@<TRIPOS>MOLECULE
NPC
   39    39     1     0     0
SMALL
bcc


@<TRIPOS>ATOM
      1 C1         -0.1130    0.0210   -0.0790 ca        1 NPC     -0.120300
      2 C2          1.1960   -0.4330   -0.2040 ca        1 NPC     -0.038000
      3 C3          2.1130   -0.2680    0.8530 ca        1 NPC     -0.218200
      4 N3          3.4950   -0.7710    0.6930 no        1 NPC      0.325200
      5 O3A         3.7880   -1.3300   -0.3350 o         1 NPC     -0.209500
      6 O3B         4.2910   -0.6200    1.5780 o         1 NPC     -0.209500
      7 C4          1.6970    0.3730    2.0420 ca        1 NPC      0.191100
      8 O4          2.6070    0.5230    3.0510 oh        1 NPC     -0.454100
      9 C5          0.3700    0.8300    2.1550 ca        1 NPC     -0.231000
     10 C6         -0.5210    0.6520    1.1090 ca        1 NPC     -0.034000
     11 C7         -1.0880   -0.1950   -1.1810 c3        1 NPC     -0.109100
     12 C8         -1.9050    1.0630   -1.4610 c         1 NPC      0.655100
     13 O8         -2.8650    1.3620   -0.7160 o         1 NPC     -0.630100
     14 N9         -1.5360    1.8450   -2.5240 n         1 NPC     -0.551900
     15 C10        -2.2930    2.9990   -2.9440 c3        1 NPC      0.080000
     16 C11        -2.3990    3.1400   -4.4620 c3        1 NPC     -0.097400
     17 C12        -3.1630    4.3980   -4.8170 c3        1 NPC     -0.077400
     18 C13        -3.2510    4.5720   -6.3200 c3        1 NPC     -0.065400
     19 C14        -4.0090    5.8200   -6.6980 c3        1 NPC     -0.196400
     20 C15        -4.2480    5.8850   -8.2190 c         1 NPC      0.908600
     21 O15        -4.5980    4.8280   -8.8190 o         1 NPC     -0.851300
     22 O16        -4.0970    7.0030   -8.7880 o         1 NPC     -0.851300
     23 H2          1.5300   -0.9310   -1.1330 ha        1 NPC      0.172000
     24 HO4         2.1750    0.9980    3.7790 ho        1 NPC      0.426000
     25 H5          0.0490    1.3320    3.0800 ha        1 NPC      0.148000
     26 H6         -1.5630    1.0150    1.1930 ha        1 NPC      0.181000
     27 H71        -1.8200   -0.9930   -0.8730 hc        1 NPC      0.075700
     28 H72        -0.5640   -0.5580   -2.1040 hc        1 NPC      0.075700
     29 HN9        -0.8110    1.5360   -3.1270 hn        1 NPC      0.309500
     30 H101       -1.7910    3.9190   -2.5250 h1        1 NPC      0.057200
     31 H102       -3.3270    2.9410   -2.4970 h1        1 NPC      0.057200
     32 H111       -2.9240    2.2490   -4.8970 hc        1 NPC      0.042700
     33 H112       -1.3760    3.1830   -4.9200 hc        1 NPC      0.042700
     34 H121       -4.1950    4.3470   -4.3830 hc        1 NPC      0.031700
     35 H122       -2.6550    5.2890   -4.3630 hc        1 NPC      0.031700
     36 H131       -2.2180    4.6180   -6.7530 hc        1 NPC      0.046200
     37 H132       -3.7640    3.6870   -6.7830 hc        1 NPC      0.046200
     38 H141       -3.4510    6.7320   -6.3720 hc        1 NPC      0.020700
     39 H142       -5.0090    5.8300   -6.1950 hc        1 NPC      0.020700
@<TRIPOS>BOND
     1    1    2 ar  
     2    1   10 ar  
     3    1   11 1   
     4    2    3 ar  
     5    2   23 1   
     6    3    4 1   
     7    3    7 ar  
     8    4    5 1   
     9    4    6 1   
    10    7    8 1   
    11    7    9 ar  
    12    8   24 1   
    13    9   10 ar  
    14    9   25 1   
    15   10   26 1   
    16   11   12 1   
    17   11   27 1   
    18   11   28 1   
    19   12   13 2   
    20   12   14 1   
    21   14   15 1   
    22   14   29 1   
    23   15   16 1   
    24   15   30 1   
    25   15   31 1   
    26   16   17 1   
    27   16   32 1   
    28   16   33 1   
    29   17   18 1   
    30   17   34 1   
    31   17   35 1   
    32   18   19 1   
    33   18   36 1   
    34   18   37 1   
    35   19   20 1   
    36   19   38 1   
    37   19   39 1   
    38   20   21 1   
    39   20   22 1   
@<TRIPOS>SUBSTRUCTURE
     1 NPC         1 TEMP              0 ****  ****    0 ROOT
