@<TRIPOS>MOLECULE
NPC
   40    40     1     0     0
SMALL
bcc


@<TRIPOS>ATOM
      1 C1         -1.1440    0.5910   -0.1070 ca        1 NPC     -0.131300
      2 C2         -0.2740   -0.3220   -0.6940 ca        1 NPC     -0.034000
      3 C3          1.0730   -0.3840   -0.2850 ca        1 NPC     -0.220200
      4 N3          1.9760   -1.3650   -0.9300 no        1 NPC      0.325200
      5 O3A         1.5300   -2.0620   -1.8070 o         1 NPC     -0.205000
      6 O3B         3.1180   -1.4450   -0.5750 o         1 NPC     -0.205000
      7 C4          1.5360    0.4880    0.7270 ca        1 NPC      0.195100
      8 O4          2.8460    0.4040    1.1020 oh        1 NPC     -0.451100
      9 C5          0.6450    1.4100    1.3090 ca        1 NPC     -0.231000
     10 C6         -0.6760    1.4590    0.8950 ca        1 NPC     -0.034000
     11 C7         -2.5750    0.6390   -0.5140 c3        1 NPC     -0.106100
     12 C8         -2.9570    2.0430   -0.9730 c         1 NPC      0.656100
     13 O8         -3.2380    2.9250   -0.1340 o         1 NPC     -0.626100
     14 N9         -3.0250    2.2740   -2.3260 n         1 NPC     -0.553900
     15 C10        -3.2840    3.5740   -2.8810 c3        1 NPC      0.094000
     16 C11        -2.0320    4.3330   -3.3390 c3        1 NPC     -0.109400
     17 C12        -2.3640    5.3510   -4.4120 c3        1 NPC     -0.080400
     18 C13        -1.8860    4.9530   -5.7940 c3        1 NPC     -0.075400
     19 C14        -2.5640    3.7140   -6.3510 c3        1 NPC     -0.126400
     20 C15        -1.8290    2.4600   -5.9940 c         1 NPC      0.646100
     21 O15        -0.7070    2.2390   -6.7330 oh        1 NPC     -0.603100
     22 O16        -2.1040    1.6050   -5.1440 o         1 NPC     -0.578000
     23 H2         -0.6290   -1.0080   -1.4840 ha        1 NPC      0.174000
     24 HO4         3.0050    1.0600    1.8010 ho        1 NPC      0.429000
     25 H5          1.0080    2.0900    2.0940 ha        1 NPC      0.150000
     26 H6         -1.3770    2.1900    1.3370 ha        1 NPC      0.173000
     27 H71        -2.7870   -0.1250   -1.3070 hc        1 NPC      0.079700
     28 H72        -3.2220    0.3960    0.3730 hc        1 NPC      0.079700
     29 HN9        -0.2850    1.4090   -6.4530 ho        1 NPC      0.448000
     30 H101       -3.8310    4.1960   -2.1170 h1        1 NPC      0.059700
     31 H102       -3.9630    3.4200   -3.7700 h1        1 NPC      0.059700
     32 H111       -1.2620    3.6150   -3.7290 hc        1 NPC      0.049700
     33 H112       -1.5790    4.8500   -2.4530 hc        1 NPC      0.049700
     34 H121       -3.4700    5.5400   -4.4410 hc        1 NPC      0.047200
     35 H122       -1.8760    6.3290   -4.1510 hc        1 NPC      0.047200
     36 H131       -2.0940    5.8060   -6.4950 hc        1 NPC      0.056200
     37 H132       -0.7740    4.7980   -5.7830 hc        1 NPC      0.056200
     38 H141       -3.6130    3.6280   -5.9630 hc        1 NPC      0.080700
     39 H142       -2.6040    3.7820   -7.4710 hc        1 NPC      0.080700
     40 H92        -2.6750    1.5870   -2.9580 hn        1 NPC      0.331500
@<TRIPOS>BOND
     1    1    2 ar  
     2    1   10 ar  
     3    1   11 1   
     4    2    3 ar  
     5    2   23 1   
     6    3    4 1   
     7    3    7 ar  
     8    4    5 1   
     9    4    6 1   
    10    7    8 1   
    11    7    9 ar  
    12    8   24 1   
    13    9   10 ar  
    14    9   25 1   
    15   10   26 1   
    16   11   12 1   
    17   11   27 1   
    18   11   28 1   
    19   12   13 2   
    20   12   14 1   
    21   14   15 1   
    22   14   40 1   
    23   15   16 1   
    24   15   30 1   
    25   15   31 1   
    26   16   17 1   
    27   16   32 1   
    28   16   33 1   
    29   17   18 1   
    30   17   34 1   
    31   17   35 1   
    32   18   19 1   
    33   18   36 1   
    34   18   37 1   
    35   19   20 1   
    36   19   38 1   
    37   19   39 1   
    38   20   21 1   
    39   20   22 2   
    40   21   29 1   
@<TRIPOS>SUBSTRUCTURE
     1 NPC         1 TEMP              0 ****  ****    0 ROOT
