@<TRIPOS>MOLECULE
NPC
   39    39     1     0     0
SMALL
bcc


@<TRIPOS>ATOM
      1 C1          2.6420    0.9680    0.7160 ca        1 NPC     -0.119300
      2 C2          3.4180   -0.1110    1.1150 ca        1 NPC     -0.040000
      3 C3          4.5930   -0.4520    0.4050 ca        1 NPC     -0.275200
      4 N3          5.3820   -1.6010    0.8870 no        1 NPC      0.326200
      5 O3A         5.0210   -2.1990    1.8640 o         1 NPC     -0.225500
      6 O3B         6.3840   -1.9220    0.2930 o         1 NPC     -0.225500
      7 C4          4.9730    0.3050   -0.7250 ca        1 NPC      0.219100
      8 O4          6.0690    0.1100   -1.5090 oh        1 NPC     -0.493100
      9 C5          4.1670    1.4010   -1.1190 ca        1 NPC     -0.180000
     10 C6          3.0270    1.7230   -0.4100 ca        1 NPC     -0.038000
     11 C7          1.4310    1.3520    1.4900 c3        1 NPC     -0.109100
     12 C8          0.2380    1.5990    0.5700 c         1 NPC      0.655100
     13 O8          0.1340    2.6880   -0.0350 o         1 NPC     -0.628100
     14 N9         -0.6780    0.5900    0.4250 n         1 NPC     -0.552900
     15 C10        -1.8980    0.7450   -0.3300 c3        1 NPC      0.081000
     16 C11        -3.1050    0.0720    0.3200 c3        1 NPC     -0.097400
     17 C12        -4.3300    0.2350   -0.5550 c3        1 NPC     -0.077400
     18 C13        -5.5290   -0.4600    0.0560 c3        1 NPC     -0.065400
     19 C14        -6.7640   -0.3100   -0.7960 c3        1 NPC     -0.196400
     20 C15        -8.0070   -0.8670   -0.0760 c         1 NPC      0.908600
     21 O15        -8.1550   -0.6100    1.1540 o         1 NPC     -0.851300
     22 O16        -8.8270   -1.5420   -0.7600 o         1 NPC     -0.851300
     23 H2          3.1270   -0.7140    1.9940 ha        1 NPC      0.168000
     24 HO4         6.5700   -0.6770   -1.2400 ho        1 NPC      0.465000
     25 H5          4.4740    1.9800   -2.0030 ha        1 NPC      0.166000
     26 H6          2.3930    2.5740   -0.7230 ha        1 NPC      0.182000
     27 H71         1.1980    0.5770    2.2670 hc        1 NPC      0.075200
     28 H72         1.6310    2.3200    2.0270 hc        1 NPC      0.075200
     29 HN9        -0.5890   -0.2310    0.9750 hn        1 NPC      0.308500
     30 H101       -2.1060    1.8450   -0.4660 h1        1 NPC      0.057700
     31 H102       -1.7360    0.2990   -1.3550 h1        1 NPC      0.057700
     32 H111       -2.9030   -1.0200    0.4760 hc        1 NPC      0.042700
     33 H112       -3.3040    0.5230    1.3270 hc        1 NPC      0.042700
     34 H121       -4.5540    1.3260   -0.6890 hc        1 NPC      0.032200
     35 H122       -4.1270   -0.1890   -1.5740 hc        1 NPC      0.032200
     36 H131       -5.3010   -1.5500    0.1920 hc        1 NPC      0.045700
     37 H132       -5.7440   -0.0390    1.0750 hc        1 NPC      0.045700
     38 H141       -6.9520    0.7720   -1.0140 hc        1 NPC      0.020700
     39 H142       -6.6340   -0.8400   -1.7730 hc        1 NPC      0.020700
@<TRIPOS>BOND
     1    1    2 ar  
     2    1   10 ar  
     3    1   11 1   
     4    2    3 ar  
     5    2   23 1   
     6    3    4 1   
     7    3    7 ar  
     8    4    5 1   
     9    4    6 1   
    10    7    8 1   
    11    7    9 ar  
    12    8   24 1   
    13    9   10 ar  
    14    9   25 1   
    15   10   26 1   
    16   11   12 1   
    17   11   27 1   
    18   11   28 1   
    19   12   13 2   
    20   12   14 1   
    21   14   15 1   
    22   14   29 1   
    23   15   16 1   
    24   15   30 1   
    25   15   31 1   
    26   16   17 1   
    27   16   32 1   
    28   16   33 1   
    29   17   18 1   
    30   17   34 1   
    31   17   35 1   
    32   18   19 1   
    33   18   36 1   
    34   18   37 1   
    35   19   20 1   
    36   19   38 1   
    37   19   39 1   
    38   20   21 1   
    39   20   22 1   
@<TRIPOS>SUBSTRUCTURE
     1 NPC         1 TEMP              0 ****  ****    0 ROOT
