@<TRIPOS>MOLECULE
NPC
   39    36     1     0     0
SMALL
bcc


@<TRIPOS>ATOM
      1 C1          3.1180    0.7300    1.4410 c1        1 NPC     -0.128000
      2 C2          4.1600   -0.1130    1.0830 c1        1 NPC     -0.040000
      3 C3          5.1770   -0.3860    1.9900 c1        1 NPC     -0.174000
      4 N3          6.2320   -1.2730    1.6310 no        1 NPC      0.580000
      5 O3A         7.1830   -1.6110    2.5520 o         1 NPC     -0.360000
      6 O3B         6.3050   -1.7080    0.4890 o         1 NPC     -0.360000
      7 C4          5.1510    0.1840    3.2540 c1        1 NPC      0.151000
      8 O4          6.2120   -0.0440    4.1490 o         1 NPC     -0.208000
      9 C5          4.1100    1.0270    3.6130 c2        1 NPC     -0.219000
     10 C6          3.0930    1.3010    2.7060 c1        1 NPC     -0.043000
     11 C7          2.0740    1.1500    0.3890 c3        1 NPC     -0.153000
     12 C8          0.8810    0.1880    0.4390 c2        1 NPC      0.285000
     13 O8          1.0250   -0.9350    0.8810 o         1 NPC     -0.361000
     14 N9         -0.3950    0.5900   -0.1100 n         1 NPC     -0.349000
     15 C10        -1.2230   -0.3770   -0.7980 c3        1 NPC     -0.049000
     16 C11        -2.6640    0.1350   -0.8570 c3        1 NPC     -0.186000
     17 C12        -3.3590   -0.4300   -2.1060 c3        1 NPC     -0.155000
     18 C13        -4.8620   -0.2260   -1.9880 c3        1 NPC     -0.146000
     19 C14        -5.5430   -0.7130   -3.2610 c3        1 NPC     -0.225000
     20 C15        -7.0440   -0.5930   -3.1090 c2        1 NPC      0.328000
     21 O15        -7.6410    0.4310   -3.5370 o         1 NPC     -0.586000
     22 O16        -7.6960   -1.5130   -2.5510 o         1 NPC     -0.586000
     23 H2          4.1790   -0.5140    0.1950 ha        1 NPC      0.170000
     24 HO4         6.3780    0.6980    4.6060 ho        1 NPC      0.234000
     25 H5          4.0920    1.4290    4.5030 ha        1 NPC      0.163000
     26 H6          2.3630    1.8920    2.9580 ha        1 NPC      0.164000
     27 H71         1.7680    2.0590    0.5790 hc        1 NPC      0.123000
     28 H72         2.4800    1.1220   -0.5030 hc        1 NPC      0.123000
     29 HN9        -0.6610    1.4590   -0.0540 hn        1 NPC      0.209000
     30 H101       -1.1990   -1.2300   -0.3160 h1        1 NPC      0.105000
     31 H102       -0.8870   -0.5070   -1.7060 h1        1 NPC      0.105000
     32 H111       -3.1480   -0.1560   -0.0550 hc        1 NPC      0.077000
     33 H112       -2.6620    1.1130   -0.8990 hc        1 NPC      0.077000
     34 H121       -3.1640   -1.3860   -2.1830 hc        1 NPC      0.071500
     35 H122       -3.0270    0.0360   -2.9030 hc        1 NPC      0.071500
     36 H131       -5.2000   -0.7330   -1.2240 hc        1 NPC      0.084000
     37 H132       -5.0530    0.7230   -1.8590 hc        1 NPC      0.084000
     38 H141       -5.2470   -0.1690   -4.0180 hc        1 NPC      0.060500
     39 H142       -5.3050   -1.6480   -3.4200 hc        1 NPC      0.060500
@<TRIPOS>BOND
     1    1    2 1   
     2    1   11 1   
     3    2   23 1   
     4    3    4 1   
     5    3    7 1   
     6    4    5 1   
     7    4    6 1   
     8    7    9 1   
     9    8   24 1   
    10    9   10 1   
    11    9   25 1   
    12   10   26 1   
    13   11   12 1   
    14   11   27 1   
    15   11   28 1   
    16   12   13 1   
    17   12   14 1   
    18   14   15 1   
    19   14   29 1   
    20   15   16 1   
    21   15   30 1   
    22   15   31 1   
    23   16   17 1   
    24   16   32 1   
    25   16   33 1   
    26   17   18 1   
    27   17   34 1   
    28   17   35 1   
    29   18   19 1   
    30   18   36 1   
    31   18   37 1   
    32   19   20 1   
    33   19   38 1   
    34   19   39 1   
    35   20   21 1   
    36   20   22 1   
@<TRIPOS>SUBSTRUCTURE
     1 NPC         1 TEMP              0 ****  ****    0 ROOT
