@<TRIPOS>MOLECULE
NPC
   40    40     1     0     0
SMALL
bcc


@<TRIPOS>ATOM
      1 C1         -1.0470    0.6290   -0.0870 ca        1 NPC     -0.131300
      2 C2         -0.3170   -0.3650   -0.7310 ca        1 NPC     -0.034000
      3 C3          1.0530   -0.5350   -0.4520 ca        1 NPC     -0.220200
      4 N3          1.8030   -1.6000   -1.1560 no        1 NPC      0.325200
      5 O3A         1.2180   -2.2710   -1.9690 o         1 NPC     -0.205000
      6 O3B         2.9640   -1.7720   -0.9100 o         1 NPC     -0.205000
      7 C4          1.6840    0.3110    0.4880 ca        1 NPC      0.195100
      8 O4          3.0130    0.1220    0.7390 oh        1 NPC     -0.451100
      9 C5          0.9340    1.3150    1.1300 ca        1 NPC     -0.231000
     10 C6         -0.4120    1.4700    0.8430 ca        1 NPC     -0.034000
     11 C7         -2.5010    0.7920   -0.3560 c3        1 NPC     -0.106100
     12 C8         -2.8090    2.2160   -0.8100 c         1 NPC      0.656100
     13 O8         -2.9300    3.1330    0.0290 o         1 NPC     -0.626100
     14 N9         -2.9910    2.4290   -2.1570 ns        1 NPC     -0.554900
     15 C10        -3.1940    3.7360   -2.7160 c3        1 NPC      0.094000
     16 C11        -1.9350    4.3770   -3.3160 c3        1 NPC     -0.109400
     17 C12        -2.2870    5.4000   -4.3760 c3        1 NPC     -0.080400
     18 C13        -1.9860    4.9380   -5.7880 c3        1 NPC     -0.075400
     19 C14        -2.8180    3.7530   -6.2420 c3        1 NPC     -0.126400
     20 C15        -2.1590    2.4470   -5.9290 c         1 NPC      0.646100
     21 O15        -2.4160    1.6340   -5.0330 o         1 NPC     -0.578000
     22 O16        -1.1410    2.1170   -6.7710 oh        1 NPC     -0.603100
     23 H2         -0.8040   -1.0310   -1.4670 ha        1 NPC      0.174000
     24 HO4         3.2930    0.7730    1.4030 ho        1 NPC      0.429000
     25 H5          1.4280    1.9750    1.8590 ha        1 NPC      0.150000
     26 H6         -1.0030    2.2660    1.3330 ha        1 NPC      0.174000
     27 H71        -2.8530    0.0360   -1.1050 hc        1 NPC      0.079700
     28 H72        -3.0770    0.6210    0.5960 hc        1 NPC      0.079700
     29 HN9        -2.7650    1.7040   -2.8010 hn        1 NPC      0.331500
     30 H101       -3.9700    3.6260   -3.5290 h1        1 NPC      0.059700
     31 H102       -3.6070    4.4170   -1.9180 h1        1 NPC      0.059700
     32 H111       -1.2710    3.5870   -3.7610 hc        1 NPC      0.050200
     33 H112       -1.3530    4.8670   -2.4920 hc        1 NPC      0.050200
     34 H121       -1.6940    6.3370   -4.1900 hc        1 NPC      0.047200
     35 H122       -3.3700    5.6840   -4.3000 hc        1 NPC      0.047200
     36 H131       -2.1910    5.7930   -6.4870 hc        1 NPC      0.056200
     37 H132       -0.8960    4.6880   -5.8830 hc        1 NPC      0.056200
     38 H141       -3.8260    3.7640   -5.7500 hc        1 NPC      0.080700
     39 H142       -2.9660    3.8050   -7.3550 hc        1 NPC      0.080700
     40 H92        -0.7640    1.2580   -6.5140 ho        1 NPC      0.448000
@<TRIPOS>BOND
     1    1    2 ar  
     2    1   10 ar  
     3    1   11 1   
     4    2    3 ar  
     5    2   23 1   
     6    3    4 1   
     7    3    7 ar  
     8    4    5 1   
     9    4    6 1   
    10    7    8 1   
    11    7    9 ar  
    12    8   24 1   
    13    9   10 ar  
    14    9   25 1   
    15   10   26 1   
    16   11   12 1   
    17   11   27 1   
    18   11   28 1   
    19   12   13 2   
    20   12   14 1   
    21   14   15 1   
    22   14   29 1   
    23   15   16 1   
    24   15   30 1   
    25   15   31 1   
    26   16   17 1   
    27   16   32 1   
    28   16   33 1   
    29   17   18 1   
    30   17   34 1   
    31   17   35 1   
    32   18   19 1   
    33   18   36 1   
    34   18   37 1   
    35   19   20 1   
    36   19   38 1   
    37   19   39 1   
    38   20   21 2   
    39   20   22 1   
    40   22   40 1   
@<TRIPOS>SUBSTRUCTURE
     1 NPC         1 TEMP              0 ****  ****    0 ROOT
