@<TRIPOS>MOLECULE
NPD
   29    30     1     0     0
SMALL
bcc


@<TRIPOS>ATOM
      1 CN          0.0010   -0.4140   -0.2110 c3        1 NPD     -0.091100
      2 CA          1.4140    0.0420    0.0770 c3        1 NPD     -0.185700
      3 CB          1.7230   -0.0230    1.5710 c3        1 NPD     -0.032100
      4 CG          1.3770    1.2480    2.2700 ca        1 NPD     -0.068300
      5 CD1         0.2480    1.3120    3.0590 ca        1 NPD     -0.128000
      6 CE1        -0.0930    2.4990    3.7470 ca        1 NPD     -0.128000
      7 CZ1         0.7000    3.6130    3.6380 ca        1 NPD     -0.117000
      8 CE2         1.8710    3.5850    2.8330 ca        1 NPD     -0.037000
      9 CZ2         2.7030    4.7330    2.7130 ca        1 NPD     -0.121000
     10 CH2         3.8330    4.6990    1.9350 ca        1 NPD     -0.127000
     11 CZ3         4.1820    3.5160    1.2420 ca        1 NPD     -0.126000
     12 CE3         3.3960    2.3940    1.3390 ca        1 NPD     -0.125000
     13 CD2         2.2180    2.3960    2.1390 ca        1 NPD     -0.031000
     14 C           2.4100   -0.7600   -0.7190 c         1 NPD      0.567900
     15 O           3.6260   -0.7020   -0.5290 o         1 NPD     -0.532100
     16 HCN1       -0.2480   -0.2610   -1.2890 hc        1 NPD      0.041700
     17 HCN2       -0.7190    0.1730    0.4090 hc        1 NPD      0.041700
     18 HCN3       -0.1240   -1.4970    0.0320 hc        1 NPD      0.041700
     19 HA          1.5270    1.1140   -0.2650 hc        1 NPD      0.089700
     20 HB1         2.8170   -0.2400    1.7200 hc        1 NPD      0.062700
     21 HB2         1.1550   -0.8770    2.0290 hc        1 NPD      0.062700
     22 HD11       -0.4050    0.4320    3.1660 ha        1 NPD      0.130000
     23 HE11       -1.0010    2.5120    4.3680 ha        1 NPD      0.132000
     24 HZ11        0.4460    4.5430    4.1690 ha        1 NPD      0.132000
     25 HZ21        2.4200    5.6460    3.2590 ha        1 NPD      0.132000
     26 HH21        4.4790    5.5850    1.8430 ha        1 NPD      0.132000
     27 HZ31        5.0920    3.5070    0.6240 ha        1 NPD      0.135000
     28 HE31        3.6730    1.4750    0.7940 ha        1 NPD      0.151000
     29 HC          1.9780   -1.4020   -1.5200 h4        1 NPD     -0.001800
@<TRIPOS>BOND
     1    1    2 1   
     2    1   16 1   
     3    1   17 1   
     4    1   18 1   
     5    2    3 1   
     6    2   14 1   
     7    2   19 1   
     8    3    4 1   
     9    3   20 1   
    10    3   21 1   
    11    4    5 ar  
    12    4   13 ar  
    13    5    6 ar  
    14    5   22 1   
    15    6    7 ar  
    16    6   23 1   
    17    7    8 ar  
    18    7   24 1   
    19    8    9 ar  
    20    8   13 ar  
    21    9   10 ar  
    22    9   25 1   
    23   10   11 ar  
    24   10   26 1   
    25   11   12 ar  
    26   11   27 1   
    27   12   13 ar  
    28   12   28 1   
    29   14   15 2   
    30   14   29 1   
@<TRIPOS>SUBSTRUCTURE
     1 NPD         1 TEMP              0 ****  ****    0 ROOT
