@<TRIPOS>MOLECULE
NPD
   29    30     1     0     0
SMALL
bcc


@<TRIPOS>ATOM
      1 CN          1.3290    0.9670    2.9340 c3        1 NPD     -0.091100
      2 CA          0.1390    0.3210    2.2600 c3        1 NPD     -0.185700
      3 CB          0.5610   -0.8970    1.4400 c3        1 NPD     -0.032100
      4 CG          0.9130   -0.5320    0.0380 ca        1 NPD     -0.068300
      5 CD1         2.2360   -0.4920   -0.3490 ca        1 NPD     -0.128000
      6 CE1         2.5960   -0.1670   -1.6770 ca        1 NPD     -0.128000
      7 CZ1         1.6270    0.1150   -2.6070 ca        1 NPD     -0.117000
      8 CE2         0.2530    0.0840   -2.2450 ca        1 NPD     -0.037000
      9 CZ2        -0.7610    0.3720   -3.2000 ca        1 NPD     -0.121000
     10 CH2        -2.0860    0.3390   -2.8440 ca        1 NPD     -0.127000
     11 CZ3        -2.4560    0.0170   -1.5160 ca        1 NPD     -0.126000
     12 CE3        -1.4980   -0.2650   -0.5740 ca        1 NPD     -0.125000
     13 CD2        -0.1150   -0.2410   -0.9120 ca        1 NPD     -0.031000
     14 C          -0.9180   -0.0430    3.2690 c         1 NPD      0.567900
     15 O          -1.8980   -0.7380    2.9950 o         1 NPD     -0.532100
     16 HCN1        1.7730    0.2830    3.6970 hc        1 NPD      0.041700
     17 HCN2        2.1120    1.2040    2.1730 hc        1 NPD      0.041700
     18 HCN3        1.0250    1.9150    3.4410 hc        1 NPD      0.041700
     19 HA         -0.3370    1.0730    1.5620 hc        1 NPD      0.089700
     20 HB1         1.4390   -1.3900    1.9380 hc        1 NPD      0.062700
     21 HB2        -0.2750   -1.6490    1.4280 hc        1 NPD      0.062700
     22 HD11        3.0330   -0.7160    0.3750 ha        1 NPD      0.130000
     23 HE11        3.6610   -0.1460   -1.9500 ha        1 NPD      0.132000
     24 HZ11        1.8940    0.3670   -3.6440 ha        1 NPD      0.132000
     25 HZ21       -0.4590    0.6200   -4.2280 ha        1 NPD      0.132000
     26 HH21       -2.8730    0.5600   -3.5800 ha        1 NPD      0.132000
     27 HZ31       -3.5240   -0.0060   -1.2490 ha        1 NPD      0.135000
     28 HE31       -1.7940   -0.5140    0.4590 ha        1 NPD      0.151000
     29 HC         -0.7720    0.3790    4.2890 h4        1 NPD     -0.001800
@<TRIPOS>BOND
     1    1    2 1   
     2    1   16 1   
     3    1   17 1   
     4    1   18 1   
     5    2    3 1   
     6    2   14 1   
     7    2   19 1   
     8    3    4 1   
     9    3   20 1   
    10    3   21 1   
    11    4    5 ar  
    12    4   13 ar  
    13    5    6 ar  
    14    5   22 1   
    15    6    7 ar  
    16    6   23 1   
    17    7    8 ar  
    18    7   24 1   
    19    8    9 ar  
    20    8   13 ar  
    21    9   10 ar  
    22    9   25 1   
    23   10   11 ar  
    24   10   26 1   
    25   11   12 ar  
    26   11   27 1   
    27   12   13 ar  
    28   12   28 1   
    29   14   15 2   
    30   14   29 1   
@<TRIPOS>SUBSTRUCTURE
     1 NPD         1 TEMP              0 ****  ****    0 ROOT
