@<TRIPOS>MOLECULE
NPD
   29    30     1     0     0
SMALL
bcc


@<TRIPOS>ATOM
      1 CN         -0.0120   -0.4470   -0.1570 c3        1 NPD     -0.091100
      2 CA          1.4020    0.0260    0.0980 c3        1 NPD     -0.185700
      3 CB          1.7430   -0.0230    1.5860 c3        1 NPD     -0.032100
      4 CG          1.3980    1.2500    2.2810 ca        1 NPD     -0.068300
      5 CD1         0.2850    1.3080    3.0940 ca        1 NPD     -0.128000
      6 CE1        -0.0550    2.4970    3.7790 ca        1 NPD     -0.128000
      7 CZ1         0.7230    3.6190    3.6440 ca        1 NPD     -0.117000
      8 CE2         1.8770    3.5970    2.8140 ca        1 NPD     -0.037000
      9 CZ2         2.6940    4.7530    2.6680 ca        1 NPD     -0.121000
     10 CH2         3.8080    4.7250    1.8670 ca        1 NPD     -0.127000
     11 CZ3         4.1550    3.5400    1.1750 ca        1 NPD     -0.126000
     12 CE3         3.3830    2.4110    1.2980 ca        1 NPD     -0.125000
     13 CD2         2.2230    2.4060    2.1230 ca        1 NPD     -0.031000
     14 C           2.3900   -0.7710   -0.7130 c         1 NPD      0.567900
     15 O           3.6080   -0.6980   -0.5490 o         1 NPD     -0.532100
     16 HCN1       -0.2850   -0.3060   -1.2300 hc        1 NPD      0.041700
     17 HCN2       -0.1200   -1.5300    0.0980 hc        1 NPD      0.041700
     18 HCN3       -0.7260    0.1370    0.4740 hc        1 NPD      0.041700
     19 HA          1.4960    1.0970   -0.2550 hc        1 NPD      0.089700
     20 HB1         2.8420   -0.2270    1.7130 hc        1 NPD      0.062700
     21 HB2         1.1940   -0.8790    2.0620 hc        1 NPD      0.062700
     22 HD11       -0.3560    0.4220    3.2210 ha        1 NPD      0.130000
     23 HE11       -0.9490    2.5060    4.4190 ha        1 NPD      0.132000
     24 HZ11        0.4700    4.5500    4.1730 ha        1 NPD      0.132000
     25 HZ21        2.4120    5.6670    3.2120 ha        1 NPD      0.132000
     26 HH21        4.4410    5.6170    1.7530 ha        1 NPD      0.132000
     27 HZ31        5.0520    3.5360    0.5380 ha        1 NPD      0.135000
     28 HE31        3.6590    1.4900    0.7550 ha        1 NPD      0.151000
     29 HC          1.9480   -1.4250   -1.4980 h4        1 NPD     -0.001800
@<TRIPOS>BOND
     1    1    2 1   
     2    1   16 1   
     3    1   17 1   
     4    1   18 1   
     5    2    3 1   
     6    2   14 1   
     7    2   19 1   
     8    3    4 1   
     9    3   20 1   
    10    3   21 1   
    11    4    5 ar  
    12    4   13 ar  
    13    5    6 ar  
    14    5   22 1   
    15    6    7 ar  
    16    6   23 1   
    17    7    8 ar  
    18    7   24 1   
    19    8    9 ar  
    20    8   13 ar  
    21    9   10 ar  
    22    9   25 1   
    23   10   11 ar  
    24   10   26 1   
    25   11   12 ar  
    26   11   27 1   
    27   12   13 ar  
    28   12   28 1   
    29   14   15 2   
    30   14   29 1   
@<TRIPOS>SUBSTRUCTURE
     1 NPD         1 TEMP              0 ****  ****    0 ROOT
