@<TRIPOS>MOLECULE
NPD
   29    26     1     0     0
SMALL
bcc


@<TRIPOS>ATOM
      1 CN          0.5640   -3.3630    0.2180 c3        1 NPD     -0.208000
      2 CA         -0.5290   -2.3460    0.4230 c3        1 NPD     -0.176000
      3 CB         -0.5040   -1.3110   -0.7510 c3        1 NPD     -0.117000
      4 CG         -0.5110    0.0820   -0.1950 c2        1 NPD     -0.067000
      5 CD1        -1.6690    0.2970    0.5510 c1        1 NPD     -0.128000
      6 CE1        -1.9060    1.5450    1.1280 c1        1 NPD     -0.123000
      7 CZ1        -0.9830    2.5790    0.9580 c1        1 NPD     -0.123000
      8 CE2         0.1770    2.3650    0.2110 c1        1 NPD     -0.036000
      9 CZ2         1.1200    3.4140    0.0520 c2        1 NPD     -0.115000
     10 CH2         2.3000    3.1990   -0.6890 c1        1 NPD     -0.129000
     11 CZ3         2.5430    1.9540   -1.2680 c1        1 NPD     -0.123000
     12 CE3         1.6020    0.9020   -1.1110 c1        1 NPD     -0.123000
     13 CD2         0.4160    1.1200   -0.3650 c1        1 NPD     -0.031000
     14 C          -1.8360   -3.0310    0.4470 c2        1 NPD      0.190000
     15 O          -2.4140   -3.1840    1.4930 o         1 NPD     -0.288000
     16 HCN1        1.1980   -3.3050    0.9470 hc        1 NPD      0.082333
     17 HCN2        0.1660   -4.2770    0.1960 hc        1 NPD      0.082333
     18 HCN3        1.0210   -3.1860   -0.6260 hc        1 NPD      0.082333
     19 HA         -0.3860   -1.8760    1.2820 hc        1 NPD      0.122000
     20 HB1        -1.3020   -1.4410   -1.3210 hc        1 NPD      0.096000
     21 HB2         0.2890   -1.4410   -1.2760 hc        1 NPD      0.096000
     22 HD11       -2.3260   -0.4400    0.6730 ha        1 NPD      0.146000
     23 HE11       -2.7220    1.6960    1.6530 ha        1 NPD      0.132750
     24 HZ11       -1.1530    3.4690    1.3670 ha        1 NPD      0.132750
     25 HZ21        0.9520    4.2750    0.4520 ha        1 NPD      0.133000
     26 HH21        2.9580    3.9350   -0.7990 ha        1 NPD      0.133000
     27 HZ31        3.3380    1.8100   -1.7670 ha        1 NPD      0.132750
     28 HE31        1.7730    0.0200   -1.5200 ha        1 NPD      0.132750
     29 HC         -2.1740   -3.4620   -0.3650 h4        1 NPD      0.092000
@<TRIPOS>BOND
     1    1    2 1   
     2    1   16 1   
     3    1   17 1   
     4    1   18 1   
     5    2    3 1   
     6    2   14 1   
     7    2   19 1   
     8    3    4 1   
     9    3   20 1   
    10    3   21 1   
    11    4    5 1   
    12    4   13 1   
    13    5   22 1   
    14    6    7 1   
    15    6   23 1   
    16    7   24 1   
    17    8    9 1   
    18    8   13 1   
    19    9   10 1   
    20    9   25 1   
    21   10   26 1   
    22   11   12 1   
    23   11   27 1   
    24   12   28 1   
    25   14   15 1   
    26   14   29 1   
@<TRIPOS>SUBSTRUCTURE
     1 NPD         1 TEMP              0 ****  ****    0 ROOT
