@<TRIPOS>MOLECULE
NPE
   32    32     1     0     0
SMALL
bcc


@<TRIPOS>ATOM
      1 C1         -0.1010   -0.4780    0.0000 ca        1 NPE     -0.295200
      2 N1         -0.9300   -1.0870   -1.0370 no        1 NPE      0.329200
      3 O1N        -0.4150   -1.5500   -2.0300 o         1 NPE     -0.272000
      4 O2N        -2.1310   -1.1340   -0.9040 o         1 NPE     -0.272000
      5 C2          1.3020   -0.4270   -0.1550 ca        1 NPE     -0.032000
      6 C3          2.0830    0.1330    0.8310 ca        1 NPE     -0.245500
      7 C4          1.5030    0.6720    2.0190 ca        1 NPE      0.363100
      8 C5          0.0830    0.6230    2.1490 ca        1 NPE     -0.245500
      9 C6         -0.6970    0.0640    1.1610 ca        1 NPE     -0.032000
     10 O3P         2.3160    1.0890    2.9610 os        1 NPE     -0.463500
     11 P           2.3190    2.6140    3.8310 p5        1 NPE      1.374600
     12 O1P         0.9160    2.6660    4.2800 o         1 NPE     -0.838000
     13 O2P         2.8700    3.5320    2.8210 o         1 NPE     -0.838000
     14 C7          3.4010    2.1650    5.0090 c3        1 NPE     -0.364600
     15 C8          3.6200    3.3590    5.9020 c3        1 NPE     -0.070400
     16 C9          4.6120    3.0940    7.0140 c3        1 NPE     -0.055400
     17 C10         4.8270    4.3080    7.8870 c3        1 NPE     -0.186400
     18 C11         5.7550    4.0140    9.0740 c         1 NPE      0.905600
     19 O1          5.5450    2.9870    9.7850 o         1 NPE     -0.865300
     20 O2          6.6880    4.8380    9.3170 o         1 NPE     -0.865300
     21 H2          1.7640   -0.8360   -1.0680 ha        1 NPE      0.138500
     22 H3          3.1750    0.1850    0.7220 ha        1 NPE      0.168500
     23 H5         -0.3810    1.0640    3.0500 ha        1 NPE      0.168500
     24 H6         -1.7930    0.0330    1.2740 ha        1 NPE      0.138500
     25 H71         4.3770    1.8350    4.5760 hc        1 NPE      0.080200
     26 H72         3.0280    1.3050    5.6180 hc        1 NPE      0.080200
     27 H81         3.9790    4.2130    5.2650 hc        1 NPE      0.039700
     28 H82         2.6290    3.6590    6.3370 hc        1 NPE      0.039700
     29 H91         4.2510    2.2460    7.6550 hc        1 NPE      0.038200
     30 H92         5.5910    2.7760    6.5700 hc        1 NPE      0.038200
     31 H101        5.2600    5.1440    7.2820 hc        1 NPE      0.019200
     32 H102        3.8450    4.6550    8.2990 hc        1 NPE      0.019200
@<TRIPOS>BOND
     1    1    2 1   
     2    1    5 ar  
     3    1    9 ar  
     4    2    3 1   
     5    2    4 1   
     6    5    6 ar  
     7    5   21 1   
     8    6    7 ar  
     9    6   22 1   
    10    7    8 ar  
    11    7   10 1   
    12    8    9 ar  
    13    8   23 1   
    14    9   24 1   
    15   10   11 1   
    16   11   12 1   
    17   11   13 1   
    18   11   14 1   
    19   14   15 1   
    20   14   25 1   
    21   14   26 1   
    22   15   16 1   
    23   15   27 1   
    24   15   28 1   
    25   16   17 1   
    26   16   29 1   
    27   16   30 1   
    28   17   18 1   
    29   17   31 1   
    30   17   32 1   
    31   18   19 1   
    32   18   20 1   
@<TRIPOS>SUBSTRUCTURE
     1 NPE         1 TEMP              0 ****  ****    0 ROOT
