@<TRIPOS>MOLECULE
NPE
   32    32     1     0     0
SMALL
bcc


@<TRIPOS>ATOM
      1 C1         -4.7570    0.2310    0.2690 ca        1 NPE     -0.295200
      2 N1         -6.2120    0.3600    0.2260 no        1 NPE      0.329200
      3 O1N        -6.8960   -0.2410    1.0240 o         1 NPE     -0.272000
      4 O2N        -6.7350    1.0690   -0.6020 o         1 NPE     -0.272000
      5 C2         -4.1490   -0.5960    1.2380 ca        1 NPE     -0.031500
      6 C3         -2.7760   -0.7020    1.2870 ca        1 NPE     -0.245500
      7 C4         -1.9440    0.0080    0.3690 ca        1 NPE      0.363100
      8 C5         -2.5810    0.8260   -0.6110 ca        1 NPE     -0.245500
      9 C6         -3.9540    0.9310   -0.6600 ca        1 NPE     -0.031500
     10 O3P        -0.6460   -0.0580    0.5450 os        1 NPE     -0.463500
     11 P           0.6170   -0.4240   -0.6180 p5        1 NPE      1.374600
     12 O1P         0.2730    0.5270   -1.6910 o         1 NPE     -0.838000
     13 O2P         0.4720   -1.8810   -0.7650 o         1 NPE     -0.838000
     14 C7          1.8980    0.0430    0.3300 c3        1 NPE     -0.364600
     15 C8          3.1600   -0.2150   -0.4530 c3        1 NPE     -0.070400
     16 C9          4.4160    0.1470    0.3100 c3        1 NPE     -0.055400
     17 C10         5.6670   -0.1340   -0.4880 c3        1 NPE     -0.186400
     18 C11         6.9390    0.3230    0.2410 c         1 NPE      0.905600
     19 O1          6.9800    1.4850    0.7440 o         1 NPE     -0.865300
     20 O2          7.9190   -0.4800    0.2870 o         1 NPE     -0.865300
     21 H2         -4.7770   -1.1530    1.9520 ha        1 NPE      0.138500
     22 H3         -2.2890   -1.3460    2.0320 ha        1 NPE      0.168500
     23 H5         -1.9500    1.3580   -1.3470 ha        1 NPE      0.168500
     24 H6         -4.4330    1.5660   -1.4230 ha        1 NPE      0.138500
     25 H71         1.9320   -0.5210    1.2940 hc        1 NPE      0.080200
     26 H72         1.8440    1.1250    0.6070 hc        1 NPE      0.080200
     27 H81         3.1080    0.3750   -1.4070 hc        1 NPE      0.039200
     28 H82         3.1820   -1.3030   -0.7330 hc        1 NPE      0.039200
     29 H91         4.4470   -0.4340    1.2690 hc        1 NPE      0.038200
     30 H92         4.3980    1.2340    0.5850 hc        1 NPE      0.038200
     31 H101        5.6220    0.4100   -1.4660 hc        1 NPE      0.019200
     32 H102        5.7450   -1.2290   -0.7090 hc        1 NPE      0.019200
@<TRIPOS>BOND
     1    1    2 1   
     2    1    5 ar  
     3    1    9 ar  
     4    2    3 1   
     5    2    4 1   
     6    5    6 ar  
     7    5   21 1   
     8    6    7 ar  
     9    6   22 1   
    10    7    8 ar  
    11    7   10 1   
    12    8    9 ar  
    13    8   23 1   
    14    9   24 1   
    15   10   11 1   
    16   11   12 1   
    17   11   13 1   
    18   11   14 1   
    19   14   15 1   
    20   14   25 1   
    21   14   26 1   
    22   15   16 1   
    23   15   27 1   
    24   15   28 1   
    25   16   17 1   
    26   16   29 1   
    27   16   30 1   
    28   17   18 1   
    29   17   31 1   
    30   17   32 1   
    31   18   19 1   
    32   18   20 1   
@<TRIPOS>SUBSTRUCTURE
     1 NPE         1 TEMP              0 ****  ****    0 ROOT
