@<TRIPOS>MOLECULE
NPE
   32    32     1     0     0
SMALL
bcc


@<TRIPOS>ATOM
      1 C1         -0.0930   -0.4760   -0.0060 ca        1 NPE     -0.295200
      2 N1         -0.9210   -1.0850   -1.0450 no        1 NPE      0.329200
      3 O1N        -0.4040   -1.5460   -2.0370 o         1 NPE     -0.272000
      4 O2N        -2.1220   -1.1330   -0.9130 o         1 NPE     -0.272000
      5 C2          1.3090   -0.4220   -0.1600 ca        1 NPE     -0.031500
      6 C3          2.0890    0.1370    0.8280 ca        1 NPE     -0.245500
      7 C4          1.5070    0.6740    2.0160 ca        1 NPE      0.363100
      8 C5          0.0870    0.6230    2.1440 ca        1 NPE     -0.245500
      9 C6         -0.6920    0.0640    1.1550 ca        1 NPE     -0.031500
     10 O3P         2.3180    1.0910    2.9590 os        1 NPE     -0.463500
     11 P           2.3180    2.6150    3.8320 p5        1 NPE      1.374600
     12 O1P         0.9140    2.6620    4.2800 o         1 NPE     -0.838000
     13 O2P         2.8670    3.5350    2.8240 o         1 NPE     -0.838000
     14 C7          3.3990    2.1650    5.0100 c3        1 NPE     -0.364600
     15 C8          3.6160    3.3580    5.9060 c3        1 NPE     -0.070400
     16 C9          4.6070    3.0920    7.0180 c3        1 NPE     -0.055400
     17 C10         4.8190    4.3040    7.8940 c3        1 NPE     -0.186400
     18 C11         5.7470    4.0110    9.0810 c         1 NPE      0.905600
     19 O1          5.5410    2.9800    9.7880 o         1 NPE     -0.865300
     20 O2          6.6760    4.8370    9.3270 o         1 NPE     -0.865300
     21 H2          1.7730   -0.8300   -1.0730 ha        1 NPE      0.138500
     22 H3          3.1810    0.1910    0.7190 ha        1 NPE      0.168500
     23 H5         -0.3780    1.0620    3.0460 ha        1 NPE      0.168500
     24 H6         -1.7880    0.0310    1.2670 ha        1 NPE      0.138500
     25 H71         3.0280    1.3030    5.6160 hc        1 NPE      0.080200
     26 H72         4.3770    1.8390    4.5770 hc        1 NPE      0.080200
     27 H81         2.6240    3.6550    6.3410 hc        1 NPE      0.039700
     28 H82         3.9730    4.2130    5.2710 hc        1 NPE      0.039700
     29 H91         4.2480    2.2420    7.6570 hc        1 NPE      0.038200
     30 H92         5.5880    2.7780    6.5740 hc        1 NPE      0.038200
     31 H101        3.8360    4.6480    8.3070 hc        1 NPE      0.019200
     32 H102        5.2490    5.1440    7.2910 hc        1 NPE      0.019200
@<TRIPOS>BOND
     1    1    2 1   
     2    1    5 ar  
     3    1    9 ar  
     4    2    3 1   
     5    2    4 1   
     6    5    6 ar  
     7    5   21 1   
     8    6    7 ar  
     9    6   22 1   
    10    7    8 ar  
    11    7   10 1   
    12    8    9 ar  
    13    8   23 1   
    14    9   24 1   
    15   10   11 1   
    16   11   12 1   
    17   11   13 1   
    18   11   14 1   
    19   14   15 1   
    20   14   25 1   
    21   14   26 1   
    22   15   16 1   
    23   15   27 1   
    24   15   28 1   
    25   16   17 1   
    26   16   29 1   
    27   16   30 1   
    28   17   18 1   
    29   17   31 1   
    30   17   32 1   
    31   18   19 1   
    32   18   20 1   
@<TRIPOS>SUBSTRUCTURE
     1 NPE         1 TEMP              0 ****  ****    0 ROOT
