@<TRIPOS>MOLECULE
NPE
   32    29     1     0     0
SMALL
bcc


@<TRIPOS>ATOM
      1 C1          0.8250    3.8500   -3.3580 c1        1 NPE     -0.250000
      2 N1          1.3260    4.8000   -4.2830 n2        1 NPE      0.475400
      3 O1N         2.2590    5.7140   -3.8840 o         1 NPE     -0.367700
      4 O2N         0.9550    4.7750   -5.4470 o         1 NPE     -0.367700
      5 C2          1.2770    3.8540   -2.0480 c2        1 NPE     -0.030000
      6 C3          0.7780    2.9330   -1.1400 c1        1 NPE     -0.245000
      7 C4         -0.1730    2.0080   -1.5420 c1        1 NPE      0.318000
      8 C5         -0.6250    2.0050   -2.8530 c1        1 NPE     -0.246000
      9 C6         -0.1260    2.9260   -3.7600 c1        1 NPE     -0.033000
     10 O3P        -0.7190    1.1100   -0.6090 os        1 NPE     -0.652000
     11 P           0.1260   -0.1660   -0.2090 p5        1 NPE      2.016000
     12 O1P         0.6000   -0.8680   -1.4590 o         1 NPE     -0.838000
     13 O2P         1.3190    0.2580    0.6140 o         1 NPE     -0.838000
     14 C7         -0.9100   -1.2970    0.7650 c3        1 NPE     -0.851000
     15 C8         -0.0370   -2.0950    1.7070 c3        1 NPE     -0.149000
     16 C9         -0.9080   -2.9720    2.5810 c3        1 NPE     -0.134000
     17 C10        -0.0420   -3.7050    3.5820 c3        1 NPE     -0.215000
     18 C11        -0.9010   -4.6460    4.3980 c2        1 NPE      0.325000
     19 O1         -1.3610   -4.2740    5.5090 o         1 NPE     -0.600000
     20 O2         -1.1510   -5.8030    3.9680 o         1 NPE     -0.600000
     21 H2          1.9470    4.5050   -1.7640 ha        1 NPE      0.141000
     22 H3          1.0960    2.9350   -0.2170 ha        1 NPE      0.192000
     23 H5         -1.2950    1.3550   -3.1360 ha        1 NPE      0.145000
     24 H6         -0.4580    2.9360   -4.6780 ha        1 NPE      0.136000
     25 H71        -1.3830   -1.9060    0.1630 hc        1 NPE      0.119500
     26 H72        -1.5600   -0.7800    1.2810 hc        1 NPE      0.119500
     27 H81         0.5740   -2.6560    1.1890 hc        1 NPE      0.078500
     28 H82         0.4790   -1.4840    2.2700 hc        1 NPE      0.078500
     29 H91        -1.5570   -2.4160    3.0570 hc        1 NPE      0.077500
     30 H92        -1.3820   -3.6210    2.0230 hc        1 NPE      0.077500
     31 H101        0.3880   -3.0580    4.1760 hc        1 NPE      0.058500
     32 H102        0.6420   -4.2180    3.1070 hc        1 NPE      0.058500
@<TRIPOS>BOND
     1    1    5 1   
     2    1    9 1   
     3    2    3 2   
     4    2    4 2   
     5    5    6 1   
     6    5   21 1   
     7    6   22 1   
     8    7    8 1   
     9    7   10 1   
    10    8   23 1   
    11    9   24 1   
    12   10   11 1   
    13   11   12 1   
    14   11   13 1   
    15   11   14 1   
    16   14   15 1   
    17   14   25 1   
    18   14   26 1   
    19   15   16 1   
    20   15   27 1   
    21   15   28 1   
    22   16   17 1   
    23   16   29 1   
    24   16   30 1   
    25   17   18 1   
    26   17   31 1   
    27   17   32 1   
    28   18   19 1   
    29   18   20 1   
@<TRIPOS>SUBSTRUCTURE
     1 NPE         1 TEMP              0 ****  ****    0 ROOT
