@<TRIPOS>MOLECULE
NPE
   32    32     1     0     0
SMALL
bcc


@<TRIPOS>ATOM
      1 C1         -0.0960   -0.4990    0.0090 ca        1 NPE     -0.295200
      2 N1         -0.9240   -1.1140   -1.0250 no        1 NPE      0.329200
      3 O1N        -0.4080   -1.5810   -2.0160 o         1 NPE     -0.272000
      4 O2N        -2.1250   -1.1640   -0.8910 o         1 NPE     -0.272000
      5 C2          1.3070   -0.4440   -0.1480 ca        1 NPE     -0.031500
      6 C3          2.0870    0.1220    0.8350 ca        1 NPE     -0.245500
      7 C4          1.5070    0.6640    2.0220 ca        1 NPE      0.363100
      8 C5          0.0870    0.6120    2.1530 ca        1 NPE     -0.245500
      9 C6         -0.6920    0.0470    1.1680 ca        1 NPE     -0.031500
     10 O3P         2.3200    1.0880    2.9610 os        1 NPE     -0.463500
     11 P           2.3180    2.6150    3.8270 p5        1 NPE      1.374600
     12 O1P         0.9150    2.6620    4.2770 o         1 NPE     -0.838000
     13 O2P         2.8640    3.5330    2.8140 o         1 NPE     -0.838000
     14 C7          3.4020    2.1730    5.0050 c3        1 NPE     -0.364600
     15 C8          3.6160    3.3690    5.8970 c3        1 NPE     -0.070400
     16 C9          4.6090    3.1100    7.0090 c3        1 NPE     -0.055400
     17 C10         4.8180    4.3250    7.8810 c3        1 NPE     -0.186400
     18 C11         5.7480    4.0390    9.0680 c         1 NPE      0.905600
     19 O1          5.5480    3.0090    9.7770 o         1 NPE     -0.865300
     20 O2          6.6750    4.8700    9.3110 o         1 NPE     -0.865300
     21 H2          1.7700   -0.8560   -1.0600 ha        1 NPE      0.138500
     22 H3          3.1790    0.1760    0.7250 ha        1 NPE      0.168500
     23 H5         -0.3770    1.0550    3.0530 ha        1 NPE      0.168500
     24 H6         -1.7880    0.0130    1.2820 ha        1 NPE      0.138500
     25 H71         3.0350    1.3120    5.6140 hc        1 NPE      0.080200
     26 H72         4.3810    1.8490    4.5720 hc        1 NPE      0.080200
     27 H81         2.6230    3.6630    6.3320 hc        1 NPE      0.039200
     28 H82         3.9690    4.2240    5.2590 hc        1 NPE      0.039200
     29 H91         4.2550    2.2600    7.6500 hc        1 NPE      0.038200
     30 H92         5.5900    2.7980    6.5640 hc        1 NPE      0.038200
     31 H101        3.8340    4.6670    8.2930 hc        1 NPE      0.019200
     32 H102        5.2450    5.1650    7.2750 hc        1 NPE      0.019200
@<TRIPOS>BOND
     1    1    2 1   
     2    1    5 ar  
     3    1    9 ar  
     4    2    3 1   
     5    2    4 1   
     6    5    6 ar  
     7    5   21 1   
     8    6    7 ar  
     9    6   22 1   
    10    7    8 ar  
    11    7   10 1   
    12    8    9 ar  
    13    8   23 1   
    14    9   24 1   
    15   10   11 1   
    16   11   12 1   
    17   11   13 1   
    18   11   14 1   
    19   14   15 1   
    20   14   25 1   
    21   14   26 1   
    22   15   16 1   
    23   15   27 1   
    24   15   28 1   
    25   16   17 1   
    26   16   29 1   
    27   16   30 1   
    28   17   18 1   
    29   17   31 1   
    30   17   32 1   
    31   18   19 1   
    32   18   20 1   
@<TRIPOS>SUBSTRUCTURE
     1 NPE         1 TEMP              0 ****  ****    0 ROOT
