@<TRIPOS>MOLECULE
NPF
   35    36     1     0     0
SMALL
bcc


@<TRIPOS>ATOM
      1 C1          0.2670    0.2190    0.1290 ca        1 NPF      0.183100
      2 C2          1.6050    0.3670    0.5230 ca        1 NPF     -0.181000
      3 C3          1.9680    0.1280    1.8440 ca        1 NPF     -0.066000
      4 C4          1.0080   -0.2520    2.7860 ca        1 NPF     -0.160000
      5 C5         -0.3220   -0.4070    2.4120 ca        1 NPF     -0.052000
      6 C6         -0.7020   -0.1940    1.0740 ca        1 NPF     -0.201200
      7 N6         -2.1170   -0.4090    0.6860 no        1 NPF      0.328200
      8 O6A        -2.9540   -0.4290    1.5490 o         1 NPF     -0.212500
      9 O6B        -2.3970   -0.5820   -0.4710 o         1 NPF     -0.212500
     10 O1'        -0.1790    0.5500   -1.1320 os        1 NPF     -0.307900
     11 C1'         0.6260    0.1210   -2.2290 c3        1 NPF      0.309900
     12 C2'        -0.3250    0.1070   -3.4420 c3        1 NPF      0.092100
     13 O2'        -1.1930   -1.0050   -3.3780 oh        1 NPF     -0.610800
     14 C3'         0.5090   -0.0470   -4.7220 c3        1 NPF      0.110100
     15 O3'        -0.3050    0.0920   -5.8730 oh        1 NPF     -0.605800
     16 C4'         1.5620    1.0730   -4.7890 c3        1 NPF      0.120100
     17 O4'         0.9610    2.3450   -4.9420 oh        1 NPF     -0.587800
     18 C5'         2.4010    1.0800   -3.5000 c3        1 NPF      0.156100
     19 C6'         3.3250    2.2800   -3.4430 c3        1 NPF     -0.088100
     20 O5'         1.6000    1.1460   -2.3140 os        1 NPF     -0.429600
     21 H2          2.3480    0.6950   -0.2230 ha        1 NPF      0.175000
     22 H3          3.0190    0.2490    2.1500 ha        1 NPF      0.146000
     23 H4          1.3020   -0.4260    3.8320 ha        1 NPF      0.150000
     24 H5         -1.0830   -0.6980    3.1570 ha        1 NPF      0.171000
     25 H1'         1.1020   -0.8780   -2.0400 h2        1 NPF      0.061700
     26 H2'        -0.9050    1.0710   -3.4740 h1        1 NPF      0.091700
     27 HO'2       -1.7600   -0.8750   -2.6010 ho        1 NPF      0.447000
     28 H3'         1.0090   -1.0550   -4.7340 h1        1 NPF      0.056700
     29 HO'3       -1.0620   -0.4980   -5.7500 ho        1 NPF      0.433000
     30 H4'         2.2430    0.8800   -5.6660 h1        1 NPF      0.056700
     31 HO'4        0.3160    2.2620   -5.6600 ho        1 NPF      0.425000
     32 H5'         2.9890    0.1170   -3.4710 h1        1 NPF      0.035700
     33 H6'1        3.9000    2.2760   -2.4870 hc        1 NPF      0.055367
     34 H6'2        2.7280    3.2220   -3.5020 hc        1 NPF      0.055367
     35 H6'3        4.0320    2.2390   -4.3040 hc        1 NPF      0.055367
@<TRIPOS>BOND
     1    1    2 ar  
     2    1    6 ar  
     3    1   10 1   
     4    2    3 ar  
     5    2   21 1   
     6    3    4 ar  
     7    3   22 1   
     8    4    5 ar  
     9    4   23 1   
    10    5    6 ar  
    11    5   24 1   
    12    6    7 1   
    13    7    8 1   
    14    7    9 1   
    15   10   11 1   
    16   11   12 1   
    17   11   20 1   
    18   11   25 1   
    19   12   13 1   
    20   12   14 1   
    21   12   26 1   
    22   13   27 1   
    23   14   15 1   
    24   14   16 1   
    25   14   28 1   
    26   15   29 1   
    27   16   17 1   
    28   16   18 1   
    29   16   30 1   
    30   17   31 1   
    31   18   19 1   
    32   18   20 1   
    33   18   32 1   
    34   19   33 1   
    35   19   34 1   
    36   19   35 1   
@<TRIPOS>SUBSTRUCTURE
     1 NPF         1 TEMP              0 ****  ****    0 ROOT
