@<TRIPOS>MOLECULE
NPF
   35    36     1     0     0
SMALL
bcc


@<TRIPOS>ATOM
      1 C1          0.2570    0.2200    0.1230 ca        1 NPF      0.183100
      2 C2          1.5940    0.3610    0.5230 ca        1 NPF     -0.181000
      3 C3          1.9500    0.1200    1.8450 ca        1 NPF     -0.066000
      4 C4          0.9850   -0.2550    2.7830 ca        1 NPF     -0.160000
      5 C5         -0.3440   -0.4030    2.4040 ca        1 NPF     -0.052000
      6 C6         -0.7180   -0.1880    1.0640 ca        1 NPF     -0.201200
      7 N6         -2.1320   -0.3950    0.6700 no        1 NPF      0.328200
      8 O6A        -2.9730   -0.4110    1.5300 o         1 NPF     -0.212500
      9 O6B        -2.4090   -0.5660   -0.4870 o         1 NPF     -0.212500
     10 O1'        -0.1820    0.5540   -1.1400 os        1 NPF     -0.307900
     11 C1'         0.6240    0.1210   -2.2330 c3        1 NPF      0.309900
     12 C2'        -0.3210    0.1120   -3.4510 c3        1 NPF      0.092100
     13 O2'        -1.1960   -0.9950   -3.3900 oh        1 NPF     -0.610800
     14 C3'         0.5170   -0.0460   -4.7270 c3        1 NPF      0.110100
     15 O3'        -0.2920    0.0980   -5.8810 oh        1 NPF     -0.605800
     16 C4'         1.5770    1.0680   -4.7890 c3        1 NPF      0.120100
     17 O4'         0.9830    2.3430   -4.9450 oh        1 NPF     -0.587800
     18 C5'         2.4100    1.0690   -3.4970 c3        1 NPF      0.156100
     19 C6'         3.3410    2.2640   -3.4360 c3        1 NPF     -0.088100
     20 O5'         1.6040    1.1400   -2.3140 os        1 NPF     -0.429600
     21 H2          2.3410    0.6860   -0.2200 ha        1 NPF      0.175000
     22 H3          3.0010    0.2360    2.1550 ha        1 NPF      0.146000
     23 H4          1.2740   -0.4320    3.8300 ha        1 NPF      0.150000
     24 H5         -1.1090   -0.6910    3.1450 ha        1 NPF      0.171000
     25 H1'         1.0940   -0.8810   -2.0430 h2        1 NPF      0.061700
     26 H2'        -0.8960    1.0800   -3.4840 h1        1 NPF      0.091700
     27 HO'2       -1.7650   -0.8610   -2.6160 ho        1 NPF      0.447000
     28 H3'         1.0100   -1.0570   -4.7380 h1        1 NPF      0.056700
     29 HO'3       -1.0530   -0.4870   -5.7610 ho        1 NPF      0.433000
     30 H4'         2.2590    0.8710   -5.6640 h1        1 NPF      0.056700
     31 HO'4        0.3410    2.2640   -5.6650 ho        1 NPF      0.425000
     32 H5'         2.9920    0.1030   -3.4660 h1        1 NPF      0.035700
     33 H6'1        4.0520    2.2190   -4.2940 hc        1 NPF      0.055367
     34 H6'2        2.7500    3.2090   -3.4970 hc        1 NPF      0.055367
     35 H6'3        3.9120    2.2560   -2.4770 hc        1 NPF      0.055367
@<TRIPOS>BOND
     1    1    2 ar  
     2    1    6 ar  
     3    1   10 1   
     4    2    3 ar  
     5    2   21 1   
     6    3    4 ar  
     7    3   22 1   
     8    4    5 ar  
     9    4   23 1   
    10    5    6 ar  
    11    5   24 1   
    12    6    7 1   
    13    7    8 1   
    14    7    9 1   
    15   10   11 1   
    16   11   12 1   
    17   11   20 1   
    18   11   25 1   
    19   12   13 1   
    20   12   14 1   
    21   12   26 1   
    22   13   27 1   
    23   14   15 1   
    24   14   16 1   
    25   14   28 1   
    26   15   29 1   
    27   16   17 1   
    28   16   18 1   
    29   16   30 1   
    30   17   31 1   
    31   18   19 1   
    32   18   20 1   
    33   18   32 1   
    34   19   33 1   
    35   19   34 1   
    36   19   35 1   
@<TRIPOS>SUBSTRUCTURE
     1 NPF         1 TEMP              0 ****  ****    0 ROOT
