@<TRIPOS>MOLECULE
NPF
   35    36     1     0     0
SMALL
bcc


@<TRIPOS>ATOM
      1 C1          0.2650    0.2140    0.1230 ca        1 NPF      0.183100
      2 C2          1.6030    0.3620    0.5180 ca        1 NPF     -0.181000
      3 C3          1.9660    0.1210    1.8380 ca        1 NPF     -0.066000
      4 C4          1.0060   -0.2600    2.7800 ca        1 NPF     -0.160000
      5 C5         -0.3230   -0.4150    2.4050 ca        1 NPF     -0.052000
      6 C6         -0.7030   -0.2010    1.0680 ca        1 NPF     -0.201200
      7 N6         -2.1180   -0.4150    0.6790 no        1 NPF      0.328200
      8 O6A        -2.9550   -0.4380    1.5420 o         1 NPF     -0.212500
      9 O6B        -2.3980   -0.5860   -0.4780 o         1 NPF     -0.212500
     10 O1'        -0.1810    0.5470   -1.1370 os        1 NPF     -0.307900
     11 C1'         0.6240    0.1200   -2.2350 c3        1 NPF      0.309900
     12 C2'        -0.3270    0.1080   -3.4480 c3        1 NPF      0.092100
     13 O2'        -1.1950   -1.0040   -3.3850 oh        1 NPF     -0.610800
     14 C3'         0.5080   -0.0440   -4.7280 c3        1 NPF      0.110100
     15 O3'        -0.3070    0.0970   -5.8780 oh        1 NPF     -0.605800
     16 C4'         1.5610    1.0760   -4.7930 c3        1 NPF      0.120100
     17 O4'         0.9600    2.3480   -4.9440 oh        1 NPF     -0.587800
     18 C5'         2.3990    1.0800   -3.5040 c3        1 NPF      0.156100
     19 C6'         3.3240    2.2800   -3.4450 c3        1 NPF     -0.088100
     20 O5'         1.5980    1.1450   -2.3180 os        1 NPF     -0.429600
     21 H2          2.3460    0.6920   -0.2280 ha        1 NPF      0.175000
     22 H3          3.0170    0.2430    2.1450 ha        1 NPF      0.146000
     23 H4          1.3010   -0.4360    3.8250 ha        1 NPF      0.150000
     24 H5         -1.0840   -0.7080    3.1500 ha        1 NPF      0.171000
     25 H1'         1.1000   -0.8800   -2.0480 h2        1 NPF      0.061700
     26 H2'        -0.9070    1.0720   -3.4780 h1        1 NPF      0.091700
     27 HO'2       -1.7620   -0.8750   -2.6090 ho        1 NPF      0.447000
     28 H3'         1.0060   -1.0520   -4.7420 h1        1 NPF      0.056700
     29 HO'3       -1.0640   -0.4920   -5.7570 ho        1 NPF      0.433000
     30 H4'         2.2410    0.8840   -5.6710 h1        1 NPF      0.056700
     31 HO'4        0.3150    2.2670   -5.6620 ho        1 NPF      0.425000
     32 H5'         2.9870    0.1170   -3.4770 h1        1 NPF      0.035700
     33 H6'1        2.7270    3.2220   -3.5030 hc        1 NPF      0.055367
     34 H6'2        4.0320    2.2400   -4.3060 hc        1 NPF      0.055367
     35 H6'3        3.8990    2.2730   -2.4890 hc        1 NPF      0.055367
@<TRIPOS>BOND
     1    1    2 ar  
     2    1    6 ar  
     3    1   10 1   
     4    2    3 ar  
     5    2   21 1   
     6    3    4 ar  
     7    3   22 1   
     8    4    5 ar  
     9    4   23 1   
    10    5    6 ar  
    11    5   24 1   
    12    6    7 1   
    13    7    8 1   
    14    7    9 1   
    15   10   11 1   
    16   11   12 1   
    17   11   20 1   
    18   11   25 1   
    19   12   13 1   
    20   12   14 1   
    21   12   26 1   
    22   13   27 1   
    23   14   15 1   
    24   14   16 1   
    25   14   28 1   
    26   15   29 1   
    27   16   17 1   
    28   16   18 1   
    29   16   30 1   
    30   17   31 1   
    31   18   19 1   
    32   18   20 1   
    33   18   32 1   
    34   19   33 1   
    35   19   34 1   
    36   19   35 1   
@<TRIPOS>SUBSTRUCTURE
     1 NPF         1 TEMP              0 ****  ****    0 ROOT
