@<TRIPOS>MOLECULE
NPF
   35    36     1     0     0
SMALL
bcc


@<TRIPOS>ATOM
      1 C1          1.5690    0.6100   -0.0900 ca        1 NPF      0.182100
      2 C2          1.5290    1.9720   -0.4260 ca        1 NPF     -0.181000
      3 C3          2.7060    2.6410   -0.7420 ca        1 NPF     -0.067000
      4 C4          3.9320    1.9710   -0.7180 ca        1 NPF     -0.160000
      5 C5          3.9890    0.6210   -0.3920 ca        1 NPF     -0.052000
      6 C6          2.8050   -0.0780   -0.0970 ca        1 NPF     -0.200200
      7 N6          2.8810   -1.5290    0.2020 no        1 NPF      0.328200
      8 O6A         3.9410   -1.9940    0.5300 o         1 NPF     -0.211500
      9 O6B         1.8990   -2.2120    0.0860 o         1 NPF     -0.211500
     10 O1'         0.4590   -0.0820    0.3440 os        1 NPF     -0.306900
     11 C1'        -0.7490    0.1270   -0.3830 c3        1 NPF      0.309900
     12 C2'        -1.6020   -1.1320   -0.1160 c3        1 NPF      0.091100
     13 O2'        -1.1250   -2.2110   -0.8930 oh        1 NPF     -0.609800
     14 C3'        -3.0440   -0.8510   -0.5640 c3        1 NPF      0.159100
     15 O3'        -3.9080   -1.9340   -0.2950 oh        1 NPF     -0.579800
     16 C4'        -3.5570    0.3810    0.2030 c3        1 NPF      0.113100
     17 O4'        -3.5500    0.0520    1.5800 oh        1 NPF     -0.568800
     18 C5'        -2.6320    1.5700   -0.1200 c3        1 NPF      0.113100
     19 C6'        -3.0140    2.8170    0.6530 c3        1 NPF     -0.101100
     20 O5'        -1.2690    1.2980    0.2250 os        1 NPF     -0.434600
     21 H2          0.5590    2.4950   -0.4140 ha        1 NPF      0.173000
     22 H3          2.6710    3.7110   -1.0020 ha        1 NPF      0.146000
     23 H4          4.8600    2.5120   -0.9560 ha        1 NPF      0.150000
     24 H5          4.9580    0.0920   -0.3660 ha        1 NPF      0.171000
     25 H1'        -0.5630    0.2950   -1.4780 h2        1 NPF      0.062700
     26 H2'        -1.5800   -1.3790    0.9820 h1        1 NPF      0.101700
     27 HO'2       -0.2570   -2.4530   -0.5350 ho        1 NPF      0.445000
     28 H3'        -3.0640   -0.6330   -1.6690 h1        1 NPF      0.046700
     29 HO'3       -3.4220   -2.7400   -0.5220 ho        1 NPF      0.425000
     30 H4'        -4.6050    0.6210   -0.1280 h1        1 NPF      0.060700
     31 HO'4       -3.8730    0.8300    2.0530 ho        1 NPF      0.404000
     32 H5'        -2.6850    1.7660   -1.2300 h1        1 NPF      0.044700
     33 H6'1       -2.4410    3.6940    0.2700 hc        1 NPF      0.052700
     34 H6'2       -4.1060    3.0090    0.5340 hc        1 NPF      0.052700
     35 H6'3       -2.7730    2.6920    1.7370 hc        1 NPF      0.052700
@<TRIPOS>BOND
     1    1    2 ar  
     2    1    6 ar  
     3    1   10 1   
     4    2    3 ar  
     5    2   21 1   
     6    3    4 ar  
     7    3   22 1   
     8    4    5 ar  
     9    4   23 1   
    10    5    6 ar  
    11    5   24 1   
    12    6    7 1   
    13    7    8 1   
    14    7    9 1   
    15   10   11 1   
    16   11   12 1   
    17   11   20 1   
    18   11   25 1   
    19   12   13 1   
    20   12   14 1   
    21   12   26 1   
    22   13   27 1   
    23   14   15 1   
    24   14   16 1   
    25   14   28 1   
    26   15   29 1   
    27   16   17 1   
    28   16   18 1   
    29   16   30 1   
    30   17   31 1   
    31   18   19 1   
    32   18   20 1   
    33   18   32 1   
    34   19   33 1   
    35   19   34 1   
    36   19   35 1   
@<TRIPOS>SUBSTRUCTURE
     1 NPF         1 TEMP              0 ****  ****    0 ROOT
