@<TRIPOS>MOLECULE
NPF
   35    33     1     0     0
SMALL
bcc


@<TRIPOS>ATOM
      1 C1         -1.2770   -1.6000    0.8710 c1        1 NPF      0.164600
      2 C2         -2.4050   -1.0530    1.4600 c1        1 NPF     -0.055000
      3 C3         -3.6220   -1.7230    1.3900 c1        1 NPF     -0.055000
      4 C4         -3.7090   -2.9360    0.7320 c1        1 NPF     -0.055000
      5 C5         -2.5760   -3.4900    0.1380 c1        1 NPF     -0.055000
      6 C6         -1.3620   -2.8230    0.2070 c1        1 NPF     -0.185300
      7 N6         -0.1780   -3.4150   -0.3650 no        1 NPF      0.336300
      8 O6A         1.0470   -3.2790    0.2820 o         1 NPF     -0.210500
      9 O6B        -0.2690   -4.1350   -1.3940 o         1 NPF     -0.210500
     10 O1'         0.0160   -1.0020    1.1120 os        1 NPF     -0.306400
     11 C1'         0.1230    0.2000    0.3760 c3        1 NPF      0.350900
     12 C2'         0.8100    1.2510    1.2330 c3        1 NPF      0.088100
     13 O2'        -0.0550    1.5830    2.3560 oh        1 NPF     -0.595800
     14 C3'         1.1020    2.4800    0.4800 c3        1 NPF      0.076100
     15 O3'         1.9030    3.3420    1.2950 oh        1 NPF     -0.595800
     16 C4'         1.8410    2.2010   -0.8070 c3        1 NPF      0.084100
     17 O4'         3.1430    1.7580   -0.5010 oh        1 NPF     -0.597800
     18 C5'         1.1510    1.1500   -1.6490 c3        1 NPF      0.124100
     19 C6'         2.0480    0.8000   -2.8200 c3        1 NPF     -0.095100
     20 O5'         0.8530   -0.0700   -0.8920 os        1 NPF     -0.450600
     21 H2         -2.3460   -0.2020    1.9230 ha        1 NPF      0.099000
     22 H3         -4.4050   -1.3400    1.8000 ha        1 NPF      0.099000
     23 H4         -4.5740   -3.4100    0.6830 ha        1 NPF      0.099000
     24 H5         -2.6360   -4.3290   -0.3180 ha        1 NPF      0.099000
     25 H1'        -0.8130    0.5290    0.1490 h2        1 NPF      0.070700
     26 H2'         1.6940    0.8640    1.5950 h1        1 NPF      0.082700
     27 HO'2       -0.0560    2.4860    2.4830 ho        1 NPF      0.425000
     28 H3'         0.2340    2.9460    0.2660 h1        1 NPF      0.089700
     29 HO'3        1.6180    4.1500    1.2250 ho        1 NPF      0.425000
     30 H4'         1.9000    3.0240   -1.3170 h1        1 NPF      0.095700
     31 HO'4        3.7210    2.3450   -0.7800 ho        1 NPF      0.437000
     32 H5'         0.3470    1.5060   -1.9790 h1        1 NPF      0.049700
     33 H6'1        2.4520    1.6400   -3.1930 hc        1 NPF      0.057033
     34 H6'2        1.5180    0.3520   -3.5180 hc        1 NPF      0.057033
     35 H6'3        2.7620    0.2000   -2.5180 hc        1 NPF      0.057033
@<TRIPOS>BOND
     1    1    6 3   
     2    1   10 1   
     3    2    3 3   
     4    2   21 1   
     5    3   22 1   
     6    4    5 3   
     7    4   23 1   
     8    5   24 1   
     9    6    7 1   
    10    7    8 1   
    11    7    9 1   
    12   10   11 1   
    13   11   12 1   
    14   11   20 1   
    15   11   25 1   
    16   12   13 1   
    17   12   14 1   
    18   12   26 1   
    19   13   27 1   
    20   14   15 1   
    21   14   16 1   
    22   14   28 1   
    23   15   29 1   
    24   16   17 1   
    25   16   18 1   
    26   16   30 1   
    27   17   31 1   
    28   18   19 1   
    29   18   20 1   
    30   18   32 1   
    31   19   33 1   
    32   19   34 1   
    33   19   35 1   
@<TRIPOS>SUBSTRUCTURE
     1 NPF         1 TEMP              0 ****  ****    0 ROOT
