@<TRIPOS>MOLECULE
NPG
   30    28     1     0     0
SMALL
bcc


@<TRIPOS>ATOM
      1 O61        -1.2100   -0.1990    2.4190 o         1 NPG     -0.214500
      2 O62        -0.3140   -2.0880    1.2850 o         1 NPG     -0.214500
      3 C6         -0.7370   -1.1370    1.8620 c1        1 NPG      0.429000
      4 C5          2.6350   -0.1800    1.4740 c3        1 NPG     -0.099000
      5 C4          2.0440    0.4610    2.6540 c2        1 NPG     -0.530000
      6 O31         3.9050    0.2000    4.1620 o         1 NPG     -0.454000
      7 C3          2.7530    0.5670    3.8240 c2        1 NPG      0.256000
      8 N1          2.0240    1.3260    4.9540 n4        1 NPG     -0.065000
      9 C2          1.8140    1.6810    7.4420 c2        1 NPG      0.346000
     10 C1          1.9910    0.6260    6.2650 c3        1 NPG     -0.155000
     11 CG          0.9550   -0.4520    6.3880 c2        1 NPG     -0.081000
     12 CD1        -0.1330   -0.5740    5.6250 c2        1 NPG     -0.254000
     13 CD2         1.2800   -1.3980    7.5010 c3        1 NPG     -0.136000
     14 CE1        -2.1790   -2.7990    8.0690 c1        1 NPG     -0.231000
     15 CE2         0.3160   -2.3040    8.0090 c1        1 NPG     -0.055000
     16 CZ         -1.0070   -2.4840    7.9690 c1        1 NPG     -0.117000
     17 H51         3.6390   -0.6130    1.7050 hc        1 NPG      0.044667
     18 H52         1.0270    0.8500    2.5460 ha        1 NPG      0.101000
     19 H41         1.9720   -1.0070    1.1030 hc        1 NPG      0.044667
     20 H42         2.7550    0.5550    0.6370 hc        1 NPG      0.044667
     21 HN1         2.5150    2.2120    5.1220 hn        1 NPG      0.221500
     22 H1          3.0170    0.1640    6.3970 hx        1 NPG      0.152000
     23 HD1        -0.3920    0.0940    4.7930 ha        1 NPG      0.113000
     24 HD2         2.2160   -1.9710    7.2300 hc        1 NPG      0.190500
     25 HE1        -0.8620   -1.3800    5.7890 ha        1 NPG      0.113000
     26 HE2         1.5730   -0.7650    8.4240 hc        1 NPG      0.190500
     27 HZ         -3.1950   -3.0740    8.1570 ha        1 NPG      0.213000
     28 O11         1.9380    1.2380    8.6100 o         1 NPG     -0.538000
     29 O12         1.6040    2.8760    7.1080 o         1 NPG     -0.538000
     30 H12         1.0720    1.5540    4.6730 hn        1 NPG      0.221500
@<TRIPOS>BOND
     1    1    3 1   
     2    2    3 1   
     3    4    5 1   
     4    4   17 1   
     5    4   19 1   
     6    4   20 1   
     7    5    7 1   
     8    5   18 1   
     9    6    7 1   
    10    7    8 1   
    11    8   10 1   
    12    8   21 1   
    13    8   30 1   
    14    9   10 1   
    15    9   28 1   
    16    9   29 1   
    17   10   11 1   
    18   10   22 1   
    19   11   12 1   
    20   11   13 1   
    21   12   23 1   
    22   12   25 1   
    23   13   15 1   
    24   13   24 1   
    25   13   26 1   
    26   14   16 1   
    27   14   27 1   
    28   15   16 1   
@<TRIPOS>SUBSTRUCTURE
     1 NPG         1 TEMP              0 ****  ****    0 ROOT
