@<TRIPOS>MOLECULE
NPG
   29    27     1     0     0
SMALL
bcc


@<TRIPOS>ATOM
      1 O61        -0.3560    2.0210   -5.7360 o         1 NPG     -0.600000
      2 O62        -0.7480   -0.0840   -5.8700 o         1 NPG     -0.600000
      3 C6         -0.2320    0.8930   -5.2760 c2        1 NPG      0.324000
      4 C5          0.6870    0.6510   -4.0370 c3        1 NPG     -0.209000
      5 C4         -0.1620    0.6630   -2.7650 c3        1 NPG     -0.159000
      6 O31         1.8430   -0.1380   -1.7290 o         1 NPG     -0.437000
      7 C3          0.7050    0.2600   -1.5580 c2        1 NPG      0.294000
      8 N1          0.1400    0.2530   -0.2610 n         1 NPG     -0.360000
      9 O11         1.9070    1.7480    1.1200 o         1 NPG     -0.574000
     10 O12         3.0530    0.0290    1.7130 o         1 NPG     -0.574000
     11 C2          1.9980    0.5310    1.2580 c2        1 NPG      0.331000
     12 C1          0.8630   -0.3600    0.8410 c3        1 NPG     -0.022000
     13 CG         -0.0490   -0.5600    1.9800 c2        1 NPG     -0.035000
     14 CD1        -0.3650   -1.8430    2.3850 c2        1 NPG     -0.122000
     15 CD2        -0.5780    0.5350    2.6590 c1        1 NPG     -0.107000
     16 CE1        -1.2030   -2.0420    3.4590 c1        1 NPG     -0.157000
     17 CE2        -1.4170    0.3370    3.7330 c1        1 NPG     -0.161500
     18 CZ         -1.7320   -0.9570    4.1360 c1        1 NPG     -0.161500
     19 H51         1.3720    1.3710   -3.9860 hc        1 NPG      0.075000
     20 H52         1.1200   -0.1960   -4.1230 hc        1 NPG      0.075000
     21 H41        -0.5160    1.5460   -2.6240 hc        1 NPG      0.102500
     22 H42        -0.8900    0.0360   -2.8590 hc        1 NPG      0.102500
     23 HN1        -0.7160    0.5950   -0.1250 hn        1 NPG      0.237000
     24 H1          1.2160   -1.2230    0.5550 h1        1 NPG      0.109000
     25 HD1        -0.0300   -2.5920    1.8950 ha        1 NPG      0.161000
     26 HD2        -0.3620    1.4620    2.3590 ha        1 NPG      0.170000
     27 HE1        -1.4210   -2.9300    3.7370 ha        1 NPG      0.103000
     28 HE2        -1.7870    1.0940    4.2070 ha        1 NPG      0.098000
     29 HZ         -2.3390   -1.1020    4.9140 ha        1 NPG      0.098000
@<TRIPOS>BOND
     1    1    3 1   
     2    2    3 1   
     3    3    4 1   
     4    4    5 1   
     5    4   19 1   
     6    4   20 1   
     7    5    7 1   
     8    5   21 1   
     9    5   22 1   
    10    6    7 1   
    11    7    8 1   
    12    8   12 1   
    13    8   23 1   
    14    9   11 1   
    15   10   11 1   
    16   11   12 1   
    17   12   13 1   
    18   12   24 1   
    19   13   14 1   
    20   13   15 1   
    21   14   16 1   
    22   14   25 1   
    23   15   26 1   
    24   16   27 1   
    25   17   18 1   
    26   17   28 1   
    27   18   29 1   
@<TRIPOS>SUBSTRUCTURE
     1 NPG         1 TEMP              0 ****  ****    0 ROOT
