@<TRIPOS>MOLECULE
NPG
   30    29     1     0     0
SMALL
bcc


@<TRIPOS>ATOM
      1 O61        -1.0770   -1.3490    1.0890 o         1 NPG     -0.467500
      2 O62         0.9880   -2.5280    1.0260 o         1 NPG     -0.467500
      3 C6         -0.0280   -1.9140    1.1100 c1        1 NPG      0.923000
      4 C5          3.2190   -0.0300    2.1860 c3        1 NPG      0.013100
      5 C4          2.3990    0.6510    3.1970 c2        1 NPG     -0.476200
      6 O31         0.5300   -0.8780    3.2310 o         1 NPG     -0.779300
      7 C3          1.1950    0.1380    3.5880 c2        1 NPG      0.501300
      8 N1          0.4120    0.9450    4.6300 ny        1 NPG     -0.622800
      9 C2          0.1880    2.0500    6.8690 c         1 NPG      0.919600
     10 C1          1.0220    1.0130    5.9880 c3        1 NPG      0.000700
     11 CG          1.0510   -0.3040    6.6940 c2        1 NPG     -0.057400
     12 CD1        -0.2490   -1.0800    6.7090 c3        1 NPG     -0.052000
     13 CD2         2.1830   -0.7440    7.3050 ce        1 NPG     -0.151000
     14 CE1        -0.2640   -2.0190    7.8810 c2        1 NPG     -0.168300
     15 CE2         2.1710   -2.1200    7.8130 ce        1 NPG     -0.138100
     16 CZ          0.9410   -2.5030    8.1490 c1        1 NPG     -0.095800
     17 H51         2.7150   -0.9570    1.8100 hc        1 NPG      0.011033
     18 H52         2.8120    1.5650    3.6340 ha        1 NPG      0.111000
     19 H41         4.2120   -0.3200    2.6140 hc        1 NPG      0.011033
     20 H42         3.4120    0.6460    1.3140 hc        1 NPG      0.011033
     21 HN1         0.3070    1.9060    4.3060 hn        1 NPG      0.426800
     22 H1          2.0690    1.4140    5.8670 hx        1 NPG      0.093700
     23 HD1        -0.3770   -1.5930    5.7180 hc        1 NPG      0.099700
     24 HD2         3.1100   -0.1620    7.3360 ha        1 NPG      0.138000
     25 HE1        -1.0970   -0.3480    6.8500 hc        1 NPG      0.099700
     26 HE2         3.0730   -2.7330    7.7730 ha        1 NPG      0.139000
     27 HZ         -1.1720   -2.1390    8.4760 ha        1 NPG      0.137000
     28 O11         0.8550    2.7910    7.6210 o         1 NPG     -0.793300
     29 O12        -1.0580    2.0420    6.6890 o         1 NPG     -0.793300
     30 H12        -0.5260    0.5400    4.7240 hn        1 NPG      0.426800
@<TRIPOS>BOND
     1    1    3 2   
     2    2    3 2   
     3    4    5 1   
     4    4   17 1   
     5    4   19 1   
     6    4   20 1   
     7    5    7 2   
     8    5   18 1   
     9    6    7 1   
    10    7    8 1   
    11    8   10 1   
    12    8   21 1   
    13    8   30 1   
    14    9   10 1   
    15    9   28 1   
    16    9   29 1   
    17   10   11 1   
    18   10   22 1   
    19   11   12 1   
    20   11   13 2   
    21   12   14 1   
    22   12   23 1   
    23   12   25 1   
    24   13   15 1   
    25   13   24 1   
    26   14   16 2   
    27   14   27 1   
    28   15   16 2   
    29   15   26 1   
@<TRIPOS>SUBSTRUCTURE
     1 NPG         1 TEMP              0 ****  ****    0 ROOT
