@<TRIPOS>MOLECULE
NPG
   29    29     1     0     0
SMALL
bcc


@<TRIPOS>ATOM
      1 O61         1.6470    1.1550    4.6480 o         1 NPG     -0.865300
      2 O62         0.5600   -0.2990    5.9350 o         1 NPG     -0.865300
      3 C6          0.8960    0.1450    4.7960 c         1 NPG      0.903600
      4 C5          0.3870   -0.6030    3.5560 c3        1 NPG     -0.179400
      5 C4          0.1010    0.3350    2.4090 c3        1 NPG     -0.132400
      6 O31         0.0140   -1.6290    0.9730 o         1 NPG     -0.659100
      7 C3         -0.1350   -0.3920    1.0950 c         1 NPG      0.644100
      8 N1         -0.4750    0.3920    0.0080 n         1 NPG     -0.551900
      9 C2         -2.1110    0.6280   -1.8760 c         1 NPG      0.917600
     10 C1         -0.8730   -0.1460   -1.2680 c3        1 NPG     -0.003000
     11 CG          0.2200   -0.1810   -2.3090 ca        1 NPG     -0.019300
     12 CD1         1.5200    0.2890   -2.0950 ca        1 NPG     -0.125000
     13 CD2        -0.0990   -0.7340   -3.5630 ca        1 NPG     -0.125000
     14 CE1         2.4810    0.2000   -3.1030 ca        1 NPG     -0.150000
     15 CE2         0.8620   -0.8200   -4.5650 ca        1 NPG     -0.150000
     16 CZ          2.1590   -0.3560   -4.3380 ca        1 NPG     -0.175000
     17 H51         1.1710   -1.3430    3.2520 hc        1 NPG      0.035200
     18 H52        -0.5340   -1.1800    3.8220 hc        1 NPG      0.035200
     19 H41        -0.7970    0.9620    2.6520 hc        1 NPG      0.063700
     20 H42         0.9760    1.0320    2.2910 hc        1 NPG      0.063700
     21 HN1        -0.7560    1.3360    0.1640 hn        1 NPG      0.321500
     22 H1         -1.2040   -1.2190   -1.1170 h1        1 NPG      0.077700
     23 HD1         1.8010    0.7300   -1.1270 ha        1 NPG      0.156000
     24 HD2        -1.1380   -1.0660   -3.7380 ha        1 NPG      0.156000
     25 HE1         3.4990    0.5700   -2.9170 ha        1 NPG      0.101000
     26 HE2         0.5970   -1.2510   -5.5400 ha        1 NPG      0.101000
     27 HZ          2.9170   -0.4270   -5.1290 ha        1 NPG      0.094000
     28 O11        -2.8490   -0.0300   -2.6600 o         1 NPG     -0.834800
     29 O12        -2.2990    1.8290   -1.5460 o         1 NPG     -0.834800
@<TRIPOS>BOND
     1    1    3 1   
     2    2    3 1   
     3    3    4 1   
     4    4    5 1   
     5    4   17 1   
     6    4   18 1   
     7    5    7 1   
     8    5   19 1   
     9    5   20 1   
    10    6    7 2   
    11    7    8 1   
    12    8   10 1   
    13    8   21 1   
    14    9   10 1   
    15    9   28 1   
    16    9   29 1   
    17   10   11 1   
    18   10   22 1   
    19   11   12 ar  
    20   11   13 ar  
    21   12   14 ar  
    22   12   23 1   
    23   13   15 ar  
    24   13   24 1   
    25   14   16 ar  
    26   14   25 1   
    27   15   16 ar  
    28   15   26 1   
    29   16   27 1   
@<TRIPOS>SUBSTRUCTURE
     1 NPG         1 TEMP              0 ****  ****    0 ROOT
