@<TRIPOS>MOLECULE
NPG
   30    28     1     0     0
SMALL
bcc


@<TRIPOS>ATOM
      1 O61         1.3130   -2.5590   -0.1960 o         1 NPG     -0.470000
      2 O62         2.5220   -0.8600   -1.3400 o         1 NPG     -0.470000
      3 C6          1.9330   -1.6820   -0.7110 c1        1 NPG      0.926000
      4 C5          1.6880    1.9670    0.6060 c3        1 NPG      0.016100
      5 C4          1.7070    1.4100    1.9640 c2        1 NPG     -0.483200
      6 O31         2.5610   -0.7840    1.4340 o         1 NPG     -0.796300
      7 C3          2.1380    0.1340    2.2010 c2        1 NPG      0.496300
      8 N1          2.1300   -0.3250    3.6450 n4        1 NPG     -0.727400
      9 C2          1.8190   -0.3600    6.7720 c         1 NPG      0.895800
     10 C1          1.7320   -0.4260    8.2610 ce        1 NPG     -0.195200
     11 CG          0.6330   -0.7440    8.9690 cf        1 NPG     -0.091200
     12 CD1        -0.6660   -1.0790    8.2710 c3        1 NPG     -0.010000
     13 CD2         0.7310   -0.7580   10.4640 cf        1 NPG     -0.106100
     14 CE1        -1.8820   -1.4320    9.1260 c2        1 NPG     -0.150300
     15 CE2        -0.4380   -1.0910   10.9850 c1        1 NPG     -0.092900
     16 CZ         -1.5540   -1.3780   10.3990 c1        1 NPG     -0.080900
     17 H51         2.0670    1.2260   -0.1440 hc        1 NPG      0.008033
     18 H52         1.3700    2.0660    2.7720 ha        1 NPG      0.112000
     19 H41         0.6480    2.2630    0.3130 hc        1 NPG      0.008033
     20 H42         2.3280    2.8850    0.5450 hc        1 NPG      0.008033
     21 HN1         2.7610    0.2340    4.2340 hn        1 NPG      0.445467
     22 H1          2.4290   -1.2960    3.7000 hn        1 NPG      0.445467
     23 HD1        -0.4730   -1.9420    7.5740 hc        1 NPG      0.093200
     24 HD2         2.6780   -0.1820    8.7710 ha        1 NPG      0.120000
     25 HE1        -0.9460   -0.2030    7.6200 hc        1 NPG      0.093200
     26 HE2         1.6730   -0.5150   10.9570 ha        1 NPG      0.141000
     27 HZ         -2.8270   -1.6750    8.6420 ha        1 NPG      0.141000
     28 O11         2.9330   -0.0420    6.2490 o         1 NPG     -0.861300
     29 O12         0.8110   -0.6190    6.0400 o         1 NPG     -0.861300
     30 H12         1.1980   -0.2530    4.0730 hn        1 NPG      0.445467
@<TRIPOS>BOND
     1    1    3 2   
     2    2    3 2   
     3    4    5 1   
     4    4   17 1   
     5    4   19 1   
     6    4   20 1   
     7    5    7 2   
     8    5   18 1   
     9    6    7 1   
    10    7    8 1   
    11    8   21 1   
    12    8   22 1   
    13    8   30 1   
    14    9   10 1   
    15    9   28 1   
    16    9   29 1   
    17   10   11 2   
    18   10   24 1   
    19   11   12 1   
    20   11   13 1   
    21   12   14 1   
    22   12   23 1   
    23   12   25 1   
    24   13   15 2   
    25   13   26 1   
    26   14   16 2   
    27   14   27 1   
    28   15   16 2   
@<TRIPOS>SUBSTRUCTURE
     1 NPG         1 TEMP              0 ****  ****    0 ROOT
