@<TRIPOS>MOLECULE
NPH
   40    42     1     0     0
SMALL
bcc


@<TRIPOS>ATOM
      1 N           0.9530    1.4760    5.1680 n3        1 NPH     -0.885800
      2 CA          0.5290    0.5120    4.1590 c3        1 NPH      0.035500
      3 CB         -0.8300    0.8750    3.5570 c3        1 NPH      0.010700
      4 SG         -2.0050   -0.4470    3.4570 ss        1 NPH     -0.309200
      5 CD         -1.2790   -1.7140    2.4730 c3        1 NPH     -0.112300
      6 CE         -1.4570   -1.5090    0.9810 c         1 NPH      0.680100
      7 OZ         -2.4080   -2.0430    0.3750 o         1 NPH     -0.622100
      8 NZ         -0.4980   -0.7140    0.3630 n         1 NPH     -0.465100
      9 C6         -0.3980   -0.4100   -0.9960 ca        1 NPH      0.125600
     10 C5         -1.4270   -0.6550   -1.8830 ca        1 NPH     -0.213000
     11 C6A         0.8280    0.2150   -1.4900 ca        1 NPH     -0.163300
     12 C4A        -1.3240   -0.3270   -3.2600 ca        1 NPH     -0.098300
     13 C10         0.9520    0.5610   -2.8700 ca        1 NPH      0.364300
     14 C7          1.9290    0.5040   -0.6410 ca        1 NPH     -0.073000
     15 C4         -2.4030   -0.6030   -4.1420 ca        1 NPH     -0.100000
     16 C1A        -0.1550    0.2800   -3.7930 ca        1 NPH      0.323300
     17 N10         2.0830    1.1540   -3.3740 nb        1 NPH     -0.653000
     18 C8          3.0600    1.1030   -1.1610 ca        1 NPH     -0.246300
     19 C3         -2.2890   -0.2790   -5.4750 ca        1 NPH     -0.250300
     20 N1         -0.0500    0.5990   -5.1250 nb        1 NPH     -0.619000
     21 C9          3.0870    1.4100   -2.5420 ca        1 NPH      0.393200
     22 C2         -1.0810    0.3250   -5.9160 ca        1 NPH      0.366200
     23 C           1.5460    0.3610    2.9900 c         1 NPH      0.868600
     24 O           2.2460    1.3520    2.6500 o         1 NPH     -0.842800
     25 OXT         1.6130   -0.7630    2.3990 o         1 NPH     -0.842800
     26 H           1.1080    2.3600    4.7140 hn        1 NPH      0.338800
     27 H2          1.8410    1.1740    5.5270 hn        1 NPH      0.338800
     28 HA          0.4420   -0.4900    4.6720 h1        1 NPH      0.062700
     29 HB2        -1.3760    1.6190    4.1940 h1        1 NPH      0.073700
     30 HB3        -0.6780    1.3290    2.5480 h1        1 NPH      0.073700
     31 HD2        -0.1890   -1.8370    2.7310 h1        1 NPH      0.121200
     32 HD3        -1.8270   -2.6500    2.7520 h1        1 NPH      0.121200
     33 HZ          0.2860   -0.4570    0.9460 hn        1 NPH      0.374500
     34 H5         -2.3690   -1.1220   -1.5480 ha        1 NPH      0.172000
     35 H7          1.9370    0.2740    0.4480 ha        1 NPH      0.215000
     36 H4         -3.3130   -1.0730   -3.7400 ha        1 NPH      0.137000
     37 H8          3.9160    1.3430   -0.5150 ha        1 NPH      0.155000
     38 H3         -3.0980   -0.4740   -6.1900 ha        1 NPH      0.129000
     39 H9          3.9730    1.8910   -2.9940 h4        1 NPH      0.009100
     40 HC2        -0.9550    0.5980   -6.9790 h4        1 NPH      0.008100
@<TRIPOS>BOND
     1    1    2 1   
     2    1   26 1   
     3    1   27 1   
     4    2    3 1   
     5    2   23 1   
     6    2   28 1   
     7    3    4 1   
     8    3   29 1   
     9    3   30 1   
    10    4    5 1   
    11    5    6 1   
    12    5   31 1   
    13    5   32 1   
    14    6    7 2   
    15    6    8 1   
    16    8    9 1   
    17    8   33 1   
    18    9   10 ar  
    19    9   11 ar  
    20   10   12 ar  
    21   10   34 1   
    22   11   13 ar  
    23   11   14 ar  
    24   12   15 ar  
    25   12   16 ar  
    26   13   16 ar  
    27   13   17 ar  
    28   14   18 ar  
    29   14   35 1   
    30   15   19 ar  
    31   15   36 1   
    32   16   20 ar  
    33   17   21 ar  
    34   18   21 ar  
    35   18   37 1   
    36   19   22 ar  
    37   19   38 1   
    38   20   22 ar  
    39   21   39 1   
    40   22   40 1   
    41   23   24 1   
    42   23   25 1   
@<TRIPOS>SUBSTRUCTURE
     1 NPH         1 TEMP              0 ****  ****    0 ROOT
