@<TRIPOS>MOLECULE
NPI
   23    22     1     0     0
SMALL
bcc


@<TRIPOS>ATOM
      1 CA          2.2740   -0.5770   -0.3100 c3        1 NPI      0.029500
      2 CB          0.9970    0.1780    0.0760 c3        1 NPI     -0.069400
      3 C4         -0.2650   -0.5320   -0.3680 c3        1 NPI     -0.077400
      4 C5         -1.5210    0.2310    0.0090 c3        1 NPI     -0.064400
      5 C6         -2.7660   -0.4730   -0.4790 c3        1 NPI     -0.182400
      6 C           3.4990    0.3600   -0.0650 c         1 NPI      0.889600
      7 O           4.3680    0.0150    0.7930 o         1 NPI     -0.858800
      8 OXT         3.5880    1.4130   -0.7570 o         1 NPI     -0.858800
      9 N           2.4010   -1.8900    0.3110 n3        1 NPI     -0.898800
     10 C7         -4.0580    0.1880    0.0180 c         1 NPI      0.904600
     11 O71        -4.2350    0.3420    1.2640 o         1 NPI     -0.868800
     12 O72        -4.9280    0.5230   -0.8420 o         1 NPI     -0.868800
     13 HA          2.2390   -0.7660   -1.4240 h1        1 NPI      0.039700
     14 H31         0.9690    0.3350    1.1860 hc        1 NPI      0.040700
     15 H32         1.0530    1.1910   -0.4030 hc        1 NPI      0.040700
     16 H41        -0.2350   -0.6740   -1.4810 hc        1 NPI      0.023200
     17 H42        -0.3080   -1.5550    0.0900 hc        1 NPI      0.023200
     18 H51        -1.5810    0.3460    1.1230 hc        1 NPI      0.036200
     19 H52        -1.4780    1.2630   -0.4270 hc        1 NPI      0.036200
     20 H61        -2.7760   -0.4970   -1.5990 hc        1 NPI      0.014700
     21 H62        -2.7640   -1.5320   -0.1150 hc        1 NPI      0.014700
     22 H           3.3740   -2.0340    0.5310 hn        1 NPI      0.327300
     23 H2          1.9080   -1.8900    1.1860 hn        1 NPI      0.327300
@<TRIPOS>BOND
     1    1    2 1   
     2    1    6 1   
     3    1    9 1   
     4    1   13 1   
     5    2    3 1   
     6    2   14 1   
     7    2   15 1   
     8    3    4 1   
     9    3   16 1   
    10    3   17 1   
    11    4    5 1   
    12    4   18 1   
    13    4   19 1   
    14    5   10 1   
    15    5   20 1   
    16    5   21 1   
    17    6    7 1   
    18    6    8 1   
    19    9   22 1   
    20    9   23 1   
    21   10   11 1   
    22   10   12 1   
@<TRIPOS>SUBSTRUCTURE
     1 NPI         1 TEMP              0 ****  ****    0 ROOT
