@<TRIPOS>MOLECULE
NPK
   55    58     1     0     0
SMALL
bcc


@<TRIPOS>ATOM
      1 N1         -0.2640   -0.4850   -0.2820 n         1 NPK     -0.502400
      2 S1         -1.0960   -1.1520    3.4360 ss        1 NPK     -0.255200
      3 C2          0.6370   -1.1930    3.0170 c3        1 NPK     -0.012600
      4 N2          1.7800   -0.6230    0.8230 n         1 NPK     -0.498900
      5 C3          1.1100   -0.8720   -0.4030 c         1 NPK      0.795500
      6 O3          1.6410   -1.2820   -1.4460 o         1 NPK     -0.604500
      7 C4          0.8160   -0.2210    1.8480 c3        1 NPK      0.053700
      8 C5         -0.5620   -0.0390    1.0810 c3        1 NPK      0.102700
      9 C6         -1.6590   -0.8150    1.7990 c3        1 NPK     -0.041300
     10 C7          1.4850   -0.8030    4.2060 c3        1 NPK     -0.071400
     11 C8          1.5600   -1.9070    5.2410 c3        1 NPK     -0.081400
     12 C9          2.5070   -1.5290    6.3620 c3        1 NPK     -0.067400
     13 C10         2.6500   -2.6340    7.3790 c3        1 NPK     -0.196400
     14 C11         3.8450   -2.3760    8.3160 c         1 NPK      0.908600
     15 O11         4.9200   -1.9360    7.8130 o         1 NPK     -0.849800
     16 O12         3.6950   -2.6360    9.5430 o         1 NPK     -0.849800
     17 C30        -1.1580   -0.3130   -1.3270 c         1 NPK      0.772100
     18 O31        -2.2440    0.2830   -1.2740 o         1 NPK     -0.564000
     19 O32        -0.7600   -0.9290   -2.4920 os        1 NPK     -0.411900
     20 C33        -1.4780   -0.5810   -3.6980 c3        1 NPK      0.193400
     21 C34        -1.6380   -1.8890   -4.4580 c3        1 NPK     -0.095100
     22 C35        -0.6440    0.4020   -4.4820 ca        1 NPK     -0.031300
     23 C36         0.7550    0.3680   -4.2740 ca        1 NPK     -0.112000
     24 C37         1.5240    1.2630   -4.9830 ca        1 NPK      0.099100
     25 C38         0.9490    2.1940   -5.8920 ca        1 NPK      0.044100
     26 C39        -0.4040    2.2510   -6.1180 ca        1 NPK     -0.072000
     27 C40        -1.1990    1.3180   -5.3940 ca        1 NPK     -0.172200
     28 N40        -2.6610    1.3770   -5.6660 no        1 NPK      0.315200
     29 O44         2.8980    1.4330   -4.9640 os        1 NPK     -0.314900
     30 C45         3.2030    2.5140   -5.8790 c3        1 NPK      0.318200
     31 O46         1.9560    2.9690   -6.4570 os        1 NPK     -0.327900
     32 O54        -3.1170    2.3890   -6.1300 o         1 NPK     -0.210500
     33 O55        -3.3530    0.4190   -5.4460 o         1 NPK     -0.210500
     34 H2          0.8950   -2.2410    2.7110 h1        1 NPK      0.080700
     35 HN2         2.4800   -1.2820    1.0860 hn        1 NPK      0.327500
     36 H4          1.1500    0.7810    2.2420 h1        1 NPK      0.101700
     37 H5         -0.8370    1.0540    1.0520 h1        1 NPK      0.089700
     38 H6         -1.9190   -1.7650    1.2710 h1        1 NPK      0.087700
     39 H6A        -2.5920   -0.2030    1.8630 h1        1 NPK      0.087700
     40 H7          2.5240   -0.5670    3.8460 hc        1 NPK      0.055700
     41 H7A         1.0770    0.1290    4.6790 hc        1 NPK      0.055700
     42 H8          0.5370   -2.1070    5.6550 hc        1 NPK      0.035700
     43 H8A         1.9150   -2.8550    4.7580 hc        1 NPK      0.035700
     44 H9          3.5250   -1.2980    5.9440 hc        1 NPK      0.047200
     45 H9A         2.1370   -0.5990    6.8670 hc        1 NPK      0.047200
     46 H10         2.8300   -3.6120    6.8630 hc        1 NPK      0.021200
     47 H10A        1.7160   -2.7330    7.9850 hc        1 NPK      0.021200
     48 H33        -2.4860   -0.1490   -3.4330 h1        1 NPK      0.117700
     49 H34        -2.2050   -1.6920   -5.4000 hc        1 NPK      0.059033
     50 H34A       -0.6410   -2.3270   -4.6990 hc        1 NPK      0.059033
     51 H34B       -2.2070   -2.6160   -3.8310 hc        1 NPK      0.059033
     52 H36         1.1960   -0.3490   -3.5540 ha        1 NPK      0.215000
     53 H39        -0.8550    2.9770   -6.8110 ha        1 NPK      0.187000
     54 H45         3.8500    2.1130   -6.6980 h2        1 NPK      0.079700
     55 H45A        3.6560    3.3550   -5.2990 h2        1 NPK      0.079700
@<TRIPOS>BOND
     1    1    5 1   
     2    1    8 1   
     3    1   17 1   
     4    2    3 1   
     5    2    9 1   
     6    3    7 1   
     7    3   10 1   
     8    3   34 1   
     9    4    5 1   
    10    4    7 1   
    11    4   35 1   
    12    5    6 2   
    13    7    8 1   
    14    7   36 1   
    15    8    9 1   
    16    8   37 1   
    17    9   38 1   
    18    9   39 1   
    19   10   11 1   
    20   10   40 1   
    21   10   41 1   
    22   11   12 1   
    23   11   42 1   
    24   11   43 1   
    25   12   13 1   
    26   12   44 1   
    27   12   45 1   
    28   13   14 1   
    29   13   46 1   
    30   13   47 1   
    31   14   15 1   
    32   14   16 1   
    33   17   18 2   
    34   17   19 1   
    35   19   20 1   
    36   20   21 1   
    37   20   22 1   
    38   20   48 1   
    39   21   49 1   
    40   21   50 1   
    41   21   51 1   
    42   22   23 ar  
    43   22   27 ar  
    44   23   24 ar  
    45   23   52 1   
    46   24   25 ar  
    47   24   29 1   
    48   25   26 ar  
    49   25   31 1   
    50   26   27 ar  
    51   26   53 1   
    52   27   28 1   
    53   28   32 1   
    54   28   33 1   
    55   29   30 1   
    56   30   31 1   
    57   30   54 1   
    58   30   55 1   
@<TRIPOS>SUBSTRUCTURE
     1 NPK         1 TEMP              0 ****  ****    0 ROOT
