@<TRIPOS>MOLECULE
NPK
   55    58     1     0     0
SMALL
bcc


@<TRIPOS>ATOM
      1 N1         -0.2610   -0.4980   -0.2850 n         1 NPK     -0.502400
      2 S1         -1.0930   -1.1890    3.4290 ss        1 NPK     -0.255200
      3 C2          0.6420   -1.1980    3.0150 c3        1 NPK     -0.012600
      4 N2          1.7820   -0.6030    0.8260 ns        1 NPK     -0.498900
      5 C3          1.1200   -0.8600   -0.4020 c         1 NPK      0.795500
      6 O3          1.6610   -1.2590   -1.4450 o         1 NPK     -0.604500
      7 C4          0.8070   -0.2210    1.8490 c3        1 NPK      0.053700
      8 C5         -0.5710   -0.0610    1.0790 c3        1 NPK      0.102700
      9 C6         -1.6570   -0.8570    1.7910 c3        1 NPK     -0.041300
     10 C7          1.4800   -0.7980    4.2080 c3        1 NPK     -0.071400
     11 C8          1.5710   -1.9030    5.2400 c3        1 NPK     -0.081400
     12 C9          2.5080   -1.5120    6.3650 c3        1 NPK     -0.067400
     13 C10         2.6670   -2.6180    7.3790 c3        1 NPK     -0.196400
     14 C11         3.8550   -2.3410    8.3200 c         1 NPK      0.908600
     15 O11         4.9230   -1.8820    7.8210 o         1 NPK     -0.849800
     16 O12         3.7050   -2.6080    9.5460 o         1 NPK     -0.849800
     17 C30        -1.1550   -0.3390   -1.3320 c         1 NPK      0.772100
     18 O31        -2.2510    0.2370   -1.2810 o         1 NPK     -0.564000
     19 O32        -0.7430   -0.9460   -2.4970 os        1 NPK     -0.411900
     20 C33        -1.4630   -0.6070   -3.7050 c3        1 NPK      0.193400
     21 C34        -1.5990   -1.9170   -4.4680 c3        1 NPK     -0.095100
     22 C35        -0.6450    0.3910   -4.4840 ca        1 NPK     -0.031300
     23 C36         0.7540    0.3810   -4.2710 ca        1 NPK     -0.112000
     24 C37         1.5090    1.2910   -4.9770 ca        1 NPK      0.099100
     25 C38         0.9210    2.2140   -5.8850 ca        1 NPK      0.044100
     26 C39        -0.4320    2.2480   -6.1150 ca        1 NPK     -0.072000
     27 C40        -1.2130    1.3000   -5.3960 ca        1 NPK     -0.172200
     28 N40        -2.6750    1.3330   -5.6720 no        1 NPK      0.315200
     29 O44         2.8810    1.4850   -4.9530 os        1 NPK     -0.314900
     30 C45         3.1690    2.5730   -5.8660 c3        1 NPK      0.318200
     31 O46         1.9160    3.0070   -6.4460 os        1 NPK     -0.327900
     32 O54        -3.1470    2.3380   -6.1350 o         1 NPK     -0.210500
     33 O55        -3.3510    0.3630   -5.4550 o         1 NPK     -0.210500
     34 H2          0.9190   -2.2410    2.7070 h1        1 NPK      0.080700
     35 HN2         2.4920   -1.2510    1.0900 hn        1 NPK      0.327500
     36 H4          1.1230    0.7860    2.2470 h1        1 NPK      0.101700
     37 H5         -0.8640    1.0280    1.0510 h1        1 NPK      0.089700
     38 H6         -1.8990   -1.8100    1.2600 h1        1 NPK      0.087700
     39 H6A        -2.6000   -0.2620    1.8530 h1        1 NPK      0.087700
     40 H7          1.0540    0.1260    4.6820 hc        1 NPK      0.055700
     41 H7A         2.5150   -0.5420    3.8520 hc        1 NPK      0.055700
     42 H8          0.5500   -2.1210    5.6500 hc        1 NPK      0.035700
     43 H8A         1.9430   -2.8440    4.7550 hc        1 NPK      0.035700
     44 H9          3.5230   -1.2620    5.9510 hc        1 NPK      0.047200
     45 H9A         2.1210   -0.5900    6.8710 hc        1 NPK      0.047200
     46 H10         2.8660   -3.5900    6.8610 hc        1 NPK      0.021200
     47 H10A        1.7330   -2.7340    7.9820 hc        1 NPK      0.021200
     48 H33        -2.4790   -0.1940   -3.4410 h1        1 NPK      0.117700
     49 H34        -2.1660   -1.7280   -5.4110 hc        1 NPK      0.059033
     50 H34A       -2.1560   -2.6550   -3.8440 hc        1 NPK      0.059033
     51 H34B       -0.5930   -2.3360   -4.7070 hc        1 NPK      0.059033
     52 H36         1.2050   -0.3290   -3.5520 ha        1 NPK      0.215000
     53 H39        -0.8940    2.9670   -6.8080 ha        1 NPK      0.187000
     54 H45         3.8250    2.1860   -6.6830 h2        1 NPK      0.079700
     55 H45A        3.6060    3.4210   -5.2820 h2        1 NPK      0.079700
@<TRIPOS>BOND
     1    1    5 1   
     2    1    8 1   
     3    1   17 1   
     4    2    3 1   
     5    2    9 1   
     6    3    7 1   
     7    3   10 1   
     8    3   34 1   
     9    4    5 1   
    10    4    7 1   
    11    4   35 1   
    12    5    6 2   
    13    7    8 1   
    14    7   36 1   
    15    8    9 1   
    16    8   37 1   
    17    9   38 1   
    18    9   39 1   
    19   10   11 1   
    20   10   40 1   
    21   10   41 1   
    22   11   12 1   
    23   11   42 1   
    24   11   43 1   
    25   12   13 1   
    26   12   44 1   
    27   12   45 1   
    28   13   14 1   
    29   13   46 1   
    30   13   47 1   
    31   14   15 1   
    32   14   16 1   
    33   17   18 2   
    34   17   19 1   
    35   19   20 1   
    36   20   21 1   
    37   20   22 1   
    38   20   48 1   
    39   21   49 1   
    40   21   50 1   
    41   21   51 1   
    42   22   23 ar  
    43   22   27 ar  
    44   23   24 ar  
    45   23   52 1   
    46   24   25 ar  
    47   24   29 1   
    48   25   26 ar  
    49   25   31 1   
    50   26   27 ar  
    51   26   53 1   
    52   27   28 1   
    53   28   32 1   
    54   28   33 1   
    55   29   30 1   
    56   30   31 1   
    57   30   54 1   
    58   30   55 1   
@<TRIPOS>SUBSTRUCTURE
     1 NPK         1 TEMP              0 ****  ****    0 ROOT
