@<TRIPOS>MOLECULE
NPK
   55    58     1     0     0
SMALL
bcc


@<TRIPOS>ATOM
      1 N1         -0.3610   -0.3650   -0.0940 n         1 NPK     -0.497400
      2 S1         -1.0300   -1.9010    3.3930 ss        1 NPK     -0.256200
      3 C2          0.6320   -1.3170    3.1180 c3        1 NPK     -0.012600
      4 N2          1.5870   -0.0410    1.1420 n         1 NPK     -0.499900
      5 C3          1.0690   -0.2770   -0.1570 c         1 NPK      0.793500
      6 O3          1.7350   -0.3460   -1.2020 o         1 NPK     -0.602500
      7 C4          0.5170   -0.1500    2.1340 c3        1 NPK      0.053700
      8 C5         -0.8240   -0.2830    1.2940 c3        1 NPK      0.101700
      9 C6         -1.6240   -1.4830    1.7850 c3        1 NPK     -0.039300
     10 C7          1.2750   -0.8940    4.4200 c3        1 NPK     -0.071400
     11 C8          1.6750   -2.0810    5.2710 c3        1 NPK     -0.081400
     12 C9          2.4210   -1.6280    6.5100 c3        1 NPK     -0.067400
     13 C10         2.8820   -2.7940    7.3490 c3        1 NPK     -0.196400
     14 C11         3.9090   -2.3440    8.4070 c         1 NPK      0.908600
     15 O11         4.8000   -1.5130    8.0650 o         1 NPK     -0.850300
     16 O12         3.8190   -2.8480    9.5620 o         1 NPK     -0.850300
     17 C30        -1.2260   -0.2050   -1.1660 c         1 NPK      0.773100
     18 O31        -2.4610   -0.1190   -1.1160 o         1 NPK     -0.566000
     19 O32        -0.5740   -0.1650   -2.3750 os        1 NPK     -0.419900
     20 C33        -1.4020   -0.0590   -3.5620 c3        1 NPK      0.199400
     21 C34        -1.7550   -1.4620   -4.0240 c3        1 NPK     -0.113100
     22 C35        -0.5530    0.6630   -4.5770 ca        1 NPK     -0.012300
     23 C36         0.8520    0.5770   -4.4270 ca        1 NPK     -0.102000
     24 C37         1.6300    1.2260   -5.3590 ca        1 NPK      0.098100
     25 C38         1.0600    1.9640   -6.4330 ca        1 NPK      0.043100
     26 C39        -0.2970    2.0740   -6.6010 ca        1 NPK     -0.072000
     27 C40        -1.1050    1.3980   -5.6440 ca        1 NPK     -0.178200
     28 N40        -2.5730    1.5260   -5.8450 no        1 NPK      0.314200
     29 O44         3.0110    1.2920   -5.4420 os        1 NPK     -0.314900
     30 C45         3.3270    2.1070   -6.5980 c3        1 NPK      0.318200
     31 O46         2.0770    2.5090   -7.2090 os        1 NPK     -0.328900
     32 O54        -2.9790    2.4220   -6.5400 o         1 NPK     -0.210500
     33 O55        -3.3260    0.7400   -5.3340 o         1 NPK     -0.210500
     34 H2          1.2270   -2.1590    2.6740 h1        1 NPK      0.080700
     35 HN2         2.4570   -0.4770    1.3580 hn        1 NPK      0.327500
     36 H4          0.4950    0.8220    2.7060 h1        1 NPK      0.101700
     37 H5         -1.4420    0.6510    1.4200 h1        1 NPK      0.088700
     38 H6         -1.5360   -2.3580    1.0960 h1        1 NPK      0.088200
     39 H6A        -2.7080   -1.2260    1.8610 h1        1 NPK      0.088200
     40 H7          2.1900   -0.2830    4.1890 hc        1 NPK      0.055700
     41 H7A         0.5730   -0.2360    4.9970 hc        1 NPK      0.055700
     42 H8          0.7600   -2.6610    5.5640 hc        1 NPK      0.035700
     43 H8A         2.3290   -2.7710    4.6740 hc        1 NPK      0.035700
     44 H9          3.3210   -1.0220    6.2170 hc        1 NPK      0.047200
     45 H9A         1.7580   -0.9630    7.1230 hc        1 NPK      0.047200
     46 H10         2.0140   -3.2810    7.8570 hc        1 NPK      0.021200
     47 H10A        3.3780   -3.5620    6.7030 hc        1 NPK      0.021200
     48 H33        -2.3350    0.5230   -3.3100 h1        1 NPK      0.111700
     49 H34        -2.3770   -1.4030   -4.9490 hc        1 NPK      0.059033
     50 H34A       -2.3420   -1.9710   -3.2220 hc        1 NPK      0.059033
     51 H34B       -0.8310   -2.0530   -4.2290 hc        1 NPK      0.059033
     52 H36         1.2960    0.0260   -3.5750 ha        1 NPK      0.217000
     53 H39        -0.7430    2.6560   -7.4230 ha        1 NPK      0.188000
     54 H45         3.8960    1.4810   -7.3280 h2        1 NPK      0.079200
     55 H45A        3.8670    3.0220   -6.2520 h2        1 NPK      0.079200
@<TRIPOS>BOND
     1    1    5 1   
     2    1    8 1   
     3    1   17 1   
     4    2    3 1   
     5    2    9 1   
     6    3    7 1   
     7    3   10 1   
     8    3   34 1   
     9    4    5 1   
    10    4    7 1   
    11    4   35 1   
    12    5    6 2   
    13    7    8 1   
    14    7   36 1   
    15    8    9 1   
    16    8   37 1   
    17    9   38 1   
    18    9   39 1   
    19   10   11 1   
    20   10   40 1   
    21   10   41 1   
    22   11   12 1   
    23   11   42 1   
    24   11   43 1   
    25   12   13 1   
    26   12   44 1   
    27   12   45 1   
    28   13   14 1   
    29   13   46 1   
    30   13   47 1   
    31   14   15 1   
    32   14   16 1   
    33   17   18 2   
    34   17   19 1   
    35   19   20 1   
    36   20   21 1   
    37   20   22 1   
    38   20   48 1   
    39   21   49 1   
    40   21   50 1   
    41   21   51 1   
    42   22   23 ar  
    43   22   27 ar  
    44   23   24 ar  
    45   23   52 1   
    46   24   25 ar  
    47   24   29 1   
    48   25   26 ar  
    49   25   31 1   
    50   26   27 ar  
    51   26   53 1   
    52   27   28 1   
    53   28   32 1   
    54   28   33 1   
    55   29   30 1   
    56   30   31 1   
    57   30   54 1   
    58   30   55 1   
@<TRIPOS>SUBSTRUCTURE
     1 NPK         1 TEMP              0 ****  ****    0 ROOT
