@<TRIPOS>MOLECULE
NPK
   55    56     1     0     0
SMALL
bcc


@<TRIPOS>ATOM
      1 N1          0.1450    0.8610    0.0550 n         1 NPK     -0.326000
      2 S1          0.1680   -1.2960    2.4830 ss        1 NPK      0.081000
      3 C2          1.0210   -0.0390    3.2110 c3        1 NPK     -0.229000
      4 N2          2.1590    0.9090    1.4530 n         1 NPK     -0.306000
      5 C3          1.6880    0.8500    0.0380 c2        1 NPK      0.387000
      6 O3          2.3940    0.8800   -0.9540 o         1 NPK     -0.318000
      7 C4          1.0660    1.0190    2.2420 c3        1 NPK     -0.017000
      8 C5         -0.2400    0.8190    1.3110 c3        1 NPK      0.030000
      9 C6         -0.8520   -0.6520    1.6810 c3        1 NPK     -0.298000
     10 C7          0.2570    0.4570    4.5330 c3        1 NPK     -0.145000
     11 C8          0.4700   -0.5510    5.6470 c3        1 NPK     -0.184000
     12 C9          1.1080    0.1440    6.8500 c3        1 NPK     -0.123000
     13 C10         0.6130   -0.4920    8.1120 c3        1 NPK     -0.227000
     14 C11         1.7910   -0.9710    8.9280 c2        1 NPK      0.327000
     15 O11         2.4210   -0.1640    9.6530 o         1 NPK     -0.587000
     16 O12         2.1110   -2.1920    8.9190 o         1 NPK     -0.587000
     17 C30        -0.7240    1.0830   -1.1020 c2        1 NPK      0.436000
     18 O31        -1.7340    1.7420   -0.9830 o         1 NPK     -0.391000
     19 O32        -0.4050    0.4790   -2.3650 os        1 NPK     -0.243000
     20 C33        -1.2020    0.9250   -3.4260 c3        1 NPK      0.076000
     21 C34        -2.6620    0.6590   -3.1120 c3        1 NPK     -0.246000
     22 C35        -0.8130    0.1800   -4.7040 c2        1 NPK      0.007000
     23 C36        -1.7540   -0.6190   -5.3570 c2        1 NPK     -0.114000
     24 C37        -1.4340   -1.2180   -6.5930 c1        1 NPK      0.045000
     25 C38        -0.1870   -1.0140   -7.1580 c1        1 NPK      0.004000
     26 C39         0.7620   -0.2090   -6.4990 c1        1 NPK     -0.065000
     27 C40         0.4450    0.3860   -5.2740 c1        1 NPK     -0.102000
     28 N40         1.3490    1.3430   -4.6860 no        1 NPK      0.576000
     29 O44        -2.2050   -2.0030   -7.5030 os        1 NPK     -0.210000
     30 C45        -1.3650   -2.3900   -8.5580 c3        1 NPK      0.098000
     31 O46        -0.1010   -1.8160   -8.3330 os        1 NPK     -0.209000
     32 O54         0.9100    2.2500   -3.9880 o         1 NPK     -0.353000
     33 O55         2.6950    1.3010   -4.9940 o         1 NPK     -0.353000
     34 H2          1.9320   -0.3330    3.4350 h1        1 NPK      0.146000
     35 HN2         3.0230    0.9160    1.7310 hn        1 NPK      0.241000
     36 H4          1.0450    1.8900    2.6810 h1        1 NPK      0.138000
     37 H5         -0.8960    1.5170    1.4910 h1        1 NPK      0.124000
     38 H6         -1.6740   -0.5570    2.1910 h1        1 NPK      0.128000
     39 H6A        -1.0180   -1.1710    0.8570 h1        1 NPK      0.128000
     40 H7          0.6090    1.3220    4.8050 hc        1 NPK      0.081500
     41 H7A        -0.6980    0.5380    4.3450 hc        1 NPK      0.081500
     42 H8         -0.4050   -0.9380    5.9140 hc        1 NPK      0.113000
     43 H8A         1.0590   -1.2630    5.3330 hc        1 NPK      0.113000
     44 H9          0.8670    1.0890    6.8460 hc        1 NPK      0.054000
     45 H9A         2.0780    0.0550    6.7990 hc        1 NPK      0.054000
     46 H10         0.1080    0.1570    8.6250 hc        1 NPK      0.063000
     47 H10A        0.0390   -1.2530    7.8910 hc        1 NPK      0.063000
     48 H33        -1.0670    1.8780   -3.5530 h1        1 NPK      0.150000
     49 H34        -2.7460   -0.2060   -2.6540 hc        1 NPK      0.096667
     50 H34A       -3.0090    1.3730   -2.5300 hc        1 NPK      0.096667
     51 H34B       -3.1800    0.6390   -3.9510 hc        1 NPK      0.096667
     52 H36        -2.5920   -0.8280   -4.9230 ha        1 NPK      0.174000
     53 H39         1.6370   -0.0660   -6.8960 ha        1 NPK      0.190000
     54 H45        -1.2780   -3.3710   -8.5600 h2        1 NPK      0.117000
     55 H45A       -1.7290   -2.0480   -9.4030 h2        1 NPK      0.117000
@<TRIPOS>BOND
     1    1    5 1   
     2    1    8 1   
     3    1   17 1   
     4    2    3 1   
     5    2    9 1   
     6    3    7 1   
     7    3   10 1   
     8    3   34 1   
     9    4    5 1   
    10    4    7 1   
    11    4   35 1   
    12    5    6 1   
    13    7    8 1   
    14    7   36 1   
    15    8    9 1   
    16    8   37 1   
    17    9   38 1   
    18    9   39 1   
    19   10   11 1   
    20   10   40 1   
    21   10   41 1   
    22   11   12 1   
    23   11   42 1   
    24   11   43 1   
    25   12   13 1   
    26   12   44 1   
    27   12   45 1   
    28   13   14 1   
    29   13   46 1   
    30   13   47 1   
    31   14   15 1   
    32   14   16 1   
    33   17   18 1   
    34   17   19 1   
    35   19   20 1   
    36   20   21 1   
    37   20   22 1   
    38   20   48 1   
    39   21   49 1   
    40   21   50 1   
    41   21   51 1   
    42   22   23 1   
    43   22   27 1   
    44   23   24 1   
    45   23   52 1   
    46   24   29 1   
    47   25   26 1   
    48   25   31 1   
    49   26   53 1   
    50   27   28 1   
    51   28   32 1   
    52   28   33 1   
    53   29   30 1   
    54   30   31 1   
    55   30   54 1   
    56   30   55 1   
@<TRIPOS>SUBSTRUCTURE
     1 NPK         1 TEMP              0 ****  ****    0 ROOT
