@<TRIPOS>MOLECULE
NPK
   55    58     1     0     0
SMALL
bcc


@<TRIPOS>ATOM
      1 N1          0.0800    0.7270    0.1140 n         1 NPK     -0.502400
      2 S1          3.6430    2.0990   -0.5100 ss        1 NPK     -0.255200
      3 C2          3.5510    0.3810   -0.0390 c3        1 NPK     -0.012600
      4 N2          1.5140   -1.0990    0.2800 n         1 NPK     -0.498900
      5 C3          0.3030   -0.5340    0.7570 c         1 NPK      0.795500
      6 O3         -0.4870   -1.0750    1.5450 o         1 NPK     -0.604500
      7 C4          2.2140   -0.1380   -0.5720 c3        1 NPK      0.053700
      8 C5          1.2030    1.0710   -0.7620 c3        1 NPK      0.102700
      9 C6          1.9030    2.3860   -0.4420 c3        1 NPK     -0.041300
     10 C7          4.7210   -0.3930   -0.6060 c3        1 NPK     -0.071400
     11 C8          6.0100   -0.1070    0.1370 c3        1 NPK     -0.081400
     12 C9          7.1330   -0.9820   -0.3800 c3        1 NPK     -0.067400
     13 C10         8.4170   -0.7620    0.3810 c3        1 NPK     -0.196400
     14 C11         9.4410   -1.8720    0.0740 c         1 NPK      0.908600
     15 O11         9.0290   -3.0670    0.0020 o         1 NPK     -0.849800
     16 O12        10.6490   -1.5310   -0.0720 o         1 NPK     -0.849800
     17 C30        -1.1100    1.4370    0.1010 c         1 NPK      0.772100
     18 O31        -1.4040    2.3650   -0.6660 o         1 NPK     -0.564000
     19 O32        -1.9830    1.0550    1.0950 os        1 NPK     -0.411900
     20 C33        -3.3420    1.5390    0.9980 c3        1 NPK      0.193400
     21 C34        -3.7420    1.8950    2.4210 c3        1 NPK     -0.095100
     22 C35        -4.2060    0.4260    0.4560 ca        1 NPK     -0.031300
     23 C36        -3.7590   -0.8980    0.6760 ca        1 NPK     -0.112000
     24 C37        -4.5400   -1.9200    0.1830 ca        1 NPK      0.099100
     25 C38        -5.7480   -1.6700   -0.5240 ca        1 NPK      0.044100
     26 C39        -6.2090   -0.3970   -0.7520 ca        1 NPK     -0.072000
     27 C40        -5.4090    0.6600   -0.2330 ca        1 NPK     -0.172200
     28 N40        -5.9330    2.0330   -0.4680 no        1 NPK      0.315200
     29 O44        -4.3320   -3.2880    0.2630 os        1 NPK     -0.314900
     30 C45        -5.4360   -3.9240   -0.4260 c3        1 NPK      0.318200
     31 O46        -6.3190   -2.8800   -0.9050 os        1 NPK     -0.327900
     32 O54        -6.7210    2.2000   -1.3620 o         1 NPK     -0.210500
     33 O55        -5.5870    2.9390    0.2420 o         1 NPK     -0.210500
     34 H2          3.5860    0.3260    1.0810 h1        1 NPK      0.080700
     35 HN2         2.0590   -1.6030    0.9450 hn        1 NPK      0.327500
     36 H4          2.3770   -0.6380   -1.5700 h1        1 NPK      0.101700
     37 H5          0.8370    1.0940   -1.8280 h1        1 NPK      0.089700
     38 H6          1.6120    2.7860    0.5590 h1        1 NPK      0.087700
     39 H6A         1.6410    3.1630   -1.2010 h1        1 NPK      0.087700
     40 H7          4.4940   -1.4920   -0.5360 hc        1 NPK      0.055700
     41 H7A         4.8500   -0.1490   -1.6930 hc        1 NPK      0.055700
     42 H8          6.2800    0.9750    0.0190 hc        1 NPK      0.035700
     43 H8A         5.8640   -0.2960    1.2330 hc        1 NPK      0.035700
     44 H9          6.8490   -2.0660   -0.2920 hc        1 NPK      0.047200
     45 H9A         7.3010   -0.7700   -1.4690 hc        1 NPK      0.047200
     46 H10         8.8600    0.2330    0.1270 hc        1 NPK      0.021200
     47 H10A        8.2200   -0.7810    1.4830 hc        1 NPK      0.021200
     48 H33        -3.3780    2.4500    0.3340 h1        1 NPK      0.117700
     49 H34        -3.6840    0.9980    3.0820 hc        1 NPK      0.059033
     50 H34A       -3.0500    2.6770    2.8170 hc        1 NPK      0.059033
     51 H34B       -4.7850    2.2950    2.4150 hc        1 NPK      0.059033
     52 H36        -2.8110   -1.0870    1.2140 ha        1 NPK      0.215000
     53 H39        -7.1370   -0.1980   -1.3090 ha        1 NPK      0.187000
     54 H45        -5.0320   -4.4820   -1.3070 h2        1 NPK      0.079700
     55 H45A       -5.9950   -4.5550    0.3070 h2        1 NPK      0.079700
@<TRIPOS>BOND
     1    1    5 1   
     2    1    8 1   
     3    1   17 1   
     4    2    3 1   
     5    2    9 1   
     6    3    7 1   
     7    3   10 1   
     8    3   34 1   
     9    4    5 1   
    10    4    7 1   
    11    4   35 1   
    12    5    6 2   
    13    7    8 1   
    14    7   36 1   
    15    8    9 1   
    16    8   37 1   
    17    9   38 1   
    18    9   39 1   
    19   10   11 1   
    20   10   40 1   
    21   10   41 1   
    22   11   12 1   
    23   11   42 1   
    24   11   43 1   
    25   12   13 1   
    26   12   44 1   
    27   12   45 1   
    28   13   14 1   
    29   13   46 1   
    30   13   47 1   
    31   14   15 1   
    32   14   16 1   
    33   17   18 2   
    34   17   19 1   
    35   19   20 1   
    36   20   21 1   
    37   20   22 1   
    38   20   48 1   
    39   21   49 1   
    40   21   50 1   
    41   21   51 1   
    42   22   23 ar  
    43   22   27 ar  
    44   23   24 ar  
    45   23   52 1   
    46   24   25 ar  
    47   24   29 1   
    48   25   26 ar  
    49   25   31 1   
    50   26   27 ar  
    51   26   53 1   
    52   27   28 1   
    53   28   32 1   
    54   28   33 1   
    55   29   30 1   
    56   30   31 1   
    57   30   54 1   
    58   30   55 1   
@<TRIPOS>SUBSTRUCTURE
     1 NPK         1 TEMP              0 ****  ****    0 ROOT
