@<TRIPOS>MOLECULE
NPL
   32    32     1     0     0
SMALL
bcc


@<TRIPOS>ATOM
      1 N1          0.0000    0.0000    0.0000 na        1 NPL      0.363900
      2 C1         -0.8080    0.0370   -1.2660 c3        1 NPL     -0.003400
      3 C2          1.4030    0.0000    0.0000 ca        1 NPL     -0.283600
      4 C2A         2.1900    0.1320   -1.2740 c3        1 NPL      0.072200
      5 C3          2.1190    0.0000    1.1750 ca        1 NPL      0.131100
      6 O3          3.5130   -0.0520    1.1040 oh        1 NPL     -0.543100
      7 C4          1.4300    0.0170    2.3820 ca        1 NPL     -0.337300
      8 C4A         2.1670    0.1050    3.7220 c3        1 NPL     -0.005900
      9 N4          3.4890   -0.2130    3.8190 nz        1 NPL      0.154400
     10 C5          0.0280    0.0320    2.3740 ca        1 NPL     -0.016300
     11 C5A        -0.7600    0.0860    3.6940 c3        1 NPL      0.332700
     12 O4P        -2.0250    0.6710    3.4270 os        1 NPL     -0.469200
     13 P          -3.1710    0.4220    4.3880 p5        1 NPL      0.943900
     14 O1P        -2.5860    0.5930    5.7970 o         1 NPL     -0.528500
     15 O2P        -3.7590   -0.9190    4.2760 o         1 NPL     -0.528500
     16 O3P        -3.9730    1.5470    3.9340 o         1 NPL     -0.528500
     17 C6         -0.6740    0.0150    1.1840 ca        1 NPL     -0.173300
     18 H11        -0.4970    0.8820   -1.8680 h1        1 NPL      0.025033
     19 H12        -0.6500   -0.8790   -1.8220 h1        1 NPL      0.025033
     20 H13        -1.8590    0.1340   -1.0210 h1        1 NPL      0.025033
     21 H21         2.4270    1.1750   -1.4450 hc        1 NPL      0.015033
     22 H22         1.6020   -0.2460   -2.1020 hc        1 NPL      0.015033
     23 H23         3.1070   -0.4390   -1.1920 hc        1 NPL      0.015033
     24 HO3         3.8480    0.7980    0.8690 ho        1 NPL      0.409000
     25 H41         1.6360   -0.5360    4.4160 hx        1 NPL      0.071200
     26 H42         2.0600    1.1230    4.0750 hx        1 NPL      0.071200
     27 HN41        3.7410   -0.3000    4.7840 hn        1 NPL      0.203467
     28 HN42        4.0370    0.5080    3.3940 hn        1 NPL      0.203467
     29 H51        -0.8950   -0.9170    4.0810 h1        1 NPL     -0.011300
     30 H52        -0.2230    0.6880    4.4160 h1        1 NPL     -0.011300
     31 H6         -1.6580   -0.4340    1.1120 h4        1 NPL      0.161000
     32 H43         3.6590   -1.0810    3.3500 hn        1 NPL      0.203467
@<TRIPOS>BOND
     1    1    2 1   
     2    1    3 1   
     3    1   17 2   
     4    2   18 1   
     5    2   19 1   
     6    2   20 1   
     7    3    4 1   
     8    3    5 ar  
     9    4   21 1   
    10    4   22 1   
    11    4   23 1   
    12    5    6 1   
    13    5    7 ar  
    14    6   24 1   
    15    7    8 1   
    16    7   10 ar  
    17    8    9 1   
    18    8   25 1   
    19    8   26 1   
    20    9   27 1   
    21    9   28 1   
    22    9   32 1   
    23   10   11 1   
    24   10   17 ar  
    25   11   12 1   
    26   11   29 1   
    27   11   30 1   
    28   12   13 1   
    29   13   14 1   
    30   13   15 1   
    31   13   16 1   
    32   17   31 1   
@<TRIPOS>SUBSTRUCTURE
     1 NPL         1 TEMP              0 ****  ****    0 ROOT
