@<TRIPOS>MOLECULE
NPL
   31    31     1     0     0
SMALL
bcc


@<TRIPOS>ATOM
      1 N1         25.9070    4.0950  -13.7200 nh        1 NPL     -0.300200
      2 C1         26.3510    2.7190  -13.7670 c3        1 NPL      0.194100
      3 C2         26.4530    5.0090  -14.6300 c2        1 NPL     -0.013200
      4 C2A        27.4410    4.5730  -15.6530 c3        1 NPL     -0.047900
      5 C3         26.0200    6.3280  -14.5560 ce        1 NPL      0.045100
      6 O3         26.5120    7.2150  -15.5000 oh        1 NPL     -0.522100
      7 C4         25.0490    6.7500  -13.5880 ce        1 NPL     -0.156200
      8 C4A        24.6790    8.2070  -13.5560 c3        1 NPL      0.189000
      9 N4         23.9650    8.7020  -14.7090 n3        1 NPL     -0.907800
     10 C5         24.5180    5.8020  -12.7400 cf        1 NPL     -0.056900
     11 C5A        23.4700    6.1170  -11.7070 c3        1 NPL      0.233600
     12 O4P        22.6170    5.0590  -11.4570 os        1 NPL     -0.567200
     13 P          22.6920    4.3100   -9.9620 p5        1 NPL      1.433800
     14 O1P        21.3160    3.9610   -9.5720 o         1 NPL     -0.835500
     15 O2P        23.6220    5.1310   -9.1550 o         1 NPL     -0.835500
     16 O3P        23.4760    2.9890  -10.4900 oh        1 NPL     -0.792400
     17 C6         24.9900    4.4380  -12.8020 ch        1 NPL     -0.155300
     18 H11        25.7790    2.1300  -13.0000 h1        1 NPL      0.057033
     19 H12        26.1660    2.2930  -14.7880 h1        1 NPL      0.057033
     20 H13        27.4480    2.6650  -13.5400 h1        1 NPL      0.057033
     21 H21        27.8260    5.4600  -16.2140 hc        1 NPL      0.048367
     22 H22        28.3060    4.0490  -15.1730 hc        1 NPL      0.048367
     23 H23        26.9630    3.8720  -16.3820 hc        1 NPL      0.048367
     24 HO3        26.7570    8.0220  -15.0230 ho        1 NPL      0.416000
     25 H41        24.0670    8.4300  -12.6360 h1        1 NPL      0.058200
     26 H42        25.6310    8.8100  -13.4620 h1        1 NPL      0.058200
     27 HN41       23.0290    8.3440  -14.7190 hn        1 NPL      0.349800
     28 HN42       24.4220    8.4140  -15.5550 hn        1 NPL      0.349800
     29 H51        24.0000    6.4380  -10.7580 h1        1 NPL      0.047200
     30 H52        22.8370    6.9720  -12.0920 h1        1 NPL      0.047200
     31 H6         24.0630    3.1670  -11.2230 ho        1 NPL      0.452000
@<TRIPOS>BOND
     1    1    2 1   
     2    1    3 1   
     3    1   17 3   
     4    2   18 1   
     5    2   19 1   
     6    2   20 1   
     7    3    4 1   
     8    3    5 2   
     9    4   21 1   
    10    4   22 1   
    11    4   23 1   
    12    5    6 1   
    13    5    7 1   
    14    6   24 1   
    15    7    8 1   
    16    7   10 2   
    17    8    9 1   
    18    8   25 1   
    19    8   26 1   
    20    9   27 1   
    21    9   28 1   
    22   10   11 1   
    23   10   17 1   
    24   11   12 1   
    25   11   29 1   
    26   11   30 1   
    27   12   13 1   
    28   13   14 1   
    29   13   15 1   
    30   13   16 1   
    31   16   31 1   
@<TRIPOS>SUBSTRUCTURE
     1 NPL         1 TEMP              0 ****  ****    0 ROOT
