@<TRIPOS>MOLECULE
NPM
   49    52     1     0     0
SMALL
bcc


@<TRIPOS>ATOM
      1 N11        -6.8830   -2.0050    0.7730 nb        1 NPM     -0.627000
      2 N12        -4.8870    0.2170    0.6700 ne        1 NPM     -0.532600
      3 N13         4.6730   -0.0470   -0.5820 ne        1 NPM     -0.532600
      4 N14         6.6470   -2.2920   -0.5020 nb        1 NPM     -0.627000
      5 C1A        -8.0500   -2.6690    0.8340 ca        1 NPM      0.393200
      6 C1B        -9.1270   -2.4490   -0.0470 ca        1 NPM     -0.239300
      7 C1C        -8.9750   -1.4900   -1.0480 ca        1 NPM     -0.095000
      8 C1D        -7.7710   -0.7900   -1.1380 ca        1 NPM     -0.231800
      9 C1E        -6.7500   -1.0750   -0.2040 ca        1 NPM      0.358500
     10 C1F        -5.4770   -0.3200   -0.3400 cf        1 NPM      0.368200
     11 C1G        -3.6780    0.9340    0.5150 ca        1 NPM      0.113400
     12 C1H        -3.4110    1.9830    1.4230 ca        1 NPM     -0.120000
     13 C1I        -2.2140    2.6860    1.3510 ca        1 NPM     -0.124000
     14 C1J        -1.2490    2.3680    0.3890 ca        1 NPM     -0.074800
     15 C1K        -1.5040    1.3250   -0.5070 ca        1 NPM     -0.124000
     16 C1L        -2.6980    0.6160   -0.4500 ca        1 NPM     -0.120000
     17 C1M         0.0130    3.1580    0.3090 c3        1 NPM      0.006200
     18 C1N         1.2250    2.3190    0.0940 ca        1 NPM     -0.074800
     19 C1O         1.7840    2.1890   -1.1830 ca        1 NPM     -0.124000
     20 C1P         2.9250    1.4230   -1.3890 ca        1 NPM     -0.120000
     21 C1Q         3.5480    0.7640   -0.3050 ca        1 NPM      0.113400
     22 C1R         2.9780    0.8980    0.9790 ca        1 NPM     -0.120000
     23 C1S         1.8330    1.6640    1.1700 ca        1 NPM     -0.124000
     24 C1T         5.6090   -0.2050    0.2870 cf        1 NPM      0.368200
     25 C1U         6.8020   -1.0500    0.0210 ca        1 NPM      0.358500
     26 C1V         8.0640   -0.5100    0.3550 ca        1 NPM     -0.231800
     27 C1W         9.2040   -1.2820    0.1300 ca        1 NPM     -0.095000
     28 C1X         9.0600   -2.5600   -0.4080 ca        1 NPM     -0.239300
     29 C1Y         7.7610   -3.0170   -0.7030 ca        1 NPM      0.393200
     30 H1A        -8.1240   -3.4220    1.6400 h4        1 NPM      0.026100
     31 H1B       -10.0570   -3.0210    0.0580 ha        1 NPM      0.145000
     32 H1C        -9.7900   -1.2860   -1.7570 ha        1 NPM      0.140000
     33 H1D        -7.6160   -0.0280   -1.9130 ha        1 NPM      0.145000
     34 H1F        -5.1240   -0.2630   -1.3930 h4        1 NPM     -0.017200
     35 H1H        -4.1520    2.2470    2.1940 ha        1 NPM      0.141250
     36 H1I        -2.0250    3.5020    2.0660 ha        1 NPM      0.136250
     37 H1K        -0.7430    1.0600   -1.2580 ha        1 NPM      0.136250
     38 H1L        -2.8650   -0.2120   -1.1560 ha        1 NPM      0.141250
     39 H1M1       -0.0890    3.8970   -0.5350 hc        1 NPM      0.057700
     40 H1M2        0.1460    3.7550    1.2530 hc        1 NPM      0.057700
     41 H1O         1.3130    2.6980   -2.0380 ha        1 NPM      0.136250
     42 H1P         3.3430    1.3300   -2.4040 ha        1 NPM      0.141250
     43 H1R         3.4260    0.3790    1.8400 ha        1 NPM      0.141250
     44 H1S         1.3980    1.7510    2.1770 ha        1 NPM      0.136250
     45 H1T         5.6390    0.2730    1.2920 h4        1 NPM     -0.017200
     46 H1V         8.1390    0.5010    0.7780 ha        1 NPM      0.145000
     47 H1W        10.2000   -0.8850    0.3750 ha        1 NPM      0.140000
     48 H1X         9.9310   -3.1990   -0.6000 ha        1 NPM      0.145000
     49 H1Y         7.5990   -4.0240   -1.1280 h4        1 NPM      0.026100
@<TRIPOS>BOND
     1    1    5 ar  
     2    1    9 ar  
     3    2   10 2   
     4    2   11 1   
     5    3   21 1   
     6    3   24 2   
     7    4   25 ar  
     8    4   29 ar  
     9    5    6 ar  
    10    5   30 1   
    11    6    7 ar  
    12    6   31 1   
    13    7    8 ar  
    14    7   32 1   
    15    8    9 ar  
    16    8   33 1   
    17    9   10 1   
    18   10   34 1   
    19   11   12 ar  
    20   11   16 ar  
    21   12   13 ar  
    22   12   35 1   
    23   13   14 ar  
    24   13   36 1   
    25   14   15 ar  
    26   14   17 1   
    27   15   16 ar  
    28   15   37 1   
    29   16   38 1   
    30   17   18 1   
    31   17   39 1   
    32   17   40 1   
    33   18   19 ar  
    34   18   23 ar  
    35   19   20 ar  
    36   19   41 1   
    37   20   21 ar  
    38   20   42 1   
    39   21   22 ar  
    40   22   23 ar  
    41   22   43 1   
    42   23   44 1   
    43   24   25 1   
    44   24   45 1   
    45   25   26 ar  
    46   26   27 ar  
    47   26   46 1   
    48   27   28 ar  
    49   27   47 1   
    50   28   29 ar  
    51   28   48 1   
    52   29   49 1   
@<TRIPOS>SUBSTRUCTURE
     1 NPM         1 TEMP              0 ****  ****    0 ROOT
