@<TRIPOS>MOLECULE
NPM
   49    52     1     0     0
SMALL
bcc


@<TRIPOS>ATOM
      1 N11        -0.0060    0.9950    1.3010 nb        1 NPM     -0.628000
      2 N12        -2.7280    0.6040    0.1170 ne        1 NPM     -0.533100
      3 N13       -10.3430   -3.7900   -3.8140 ne        1 NPM     -0.533100
      4 N14       -10.5710   -5.9850   -5.8340 nb        1 NPM     -0.628000
      5 C1A         1.3250    0.9280    1.4800 ca        1 NPM      0.393200
      6 C1B         2.0560   -0.2750    1.5010 ca        1 NPM     -0.239800
      7 C1C         1.3620   -1.4730    1.3350 ca        1 NPM     -0.094500
      8 C1D        -0.0210   -1.4330    1.1540 ca        1 NPM     -0.231800
      9 C1E        -0.6680   -0.1780    1.1390 ca        1 NPM      0.359000
     10 C1F        -2.1430   -0.1750    0.9580 cf        1 NPM      0.369200
     11 C1G        -4.1300    0.5710   -0.0610 ca        1 NPM      0.113900
     12 C1H        -4.7700    1.7640   -0.4670 ca        1 NPM     -0.120000
     13 C1I        -6.1390    1.7790   -0.7090 ca        1 NPM     -0.123750
     14 C1J        -6.9080    0.6190   -0.5650 ca        1 NPM     -0.074300
     15 C1K        -6.2780   -0.5670   -0.1720 ca        1 NPM     -0.123750
     16 C1L        -4.9120   -0.5960    0.0790 ca        1 NPM     -0.120000
     17 C1M        -8.3800    0.6630   -0.7980 c3        1 NPM      0.006200
     18 C1N        -8.8870   -0.4870   -1.5980 ca        1 NPM     -0.074300
     19 C1O        -9.4760   -1.5890   -0.9660 ca        1 NPM     -0.123750
     20 C1P        -9.9650   -2.6590   -1.7050 ca        1 NPM     -0.120000
     21 C1Q        -9.8830   -2.6500   -3.1160 ca        1 NPM      0.113900
     22 C1R        -9.2860   -1.5370   -3.7460 ca        1 NPM     -0.120000
     23 C1S        -8.7950   -0.4750   -2.9940 ca        1 NPM     -0.123750
     24 C1T       -10.8450   -3.6890   -4.9950 cf        1 NPM      0.369200
     25 C1U       -11.3380   -4.8700   -5.7490 ca        1 NPM      0.359000
     26 C1V       -12.6020   -4.7580   -6.3700 ca        1 NPM     -0.231800
     27 C1W       -13.0890   -5.8450   -7.0980 ca        1 NPM     -0.094500
     28 C1X       -12.3120   -6.9980   -7.1930 ca        1 NPM     -0.239800
     29 C1Y       -11.0610   -7.0150   -6.5460 ca        1 NPM      0.393200
     30 H1A         1.8330    1.9010    1.6110 h4        1 NPM      0.025600
     31 H1B         3.1440   -0.2620    1.6460 ha        1 NPM      0.145000
     32 H1C         1.8940   -2.4350    1.3450 ha        1 NPM      0.140000
     33 H1D        -0.6000   -2.3570    1.0190 ha        1 NPM      0.144500
     34 H1F        -2.6550   -0.9130    1.6150 h4        1 NPM     -0.016700
     35 H1H        -4.1840    2.6890   -0.5900 ha        1 NPM      0.141250
     36 H1I        -6.6200    2.7190   -1.0200 ha        1 NPM      0.136000
     37 H1K        -6.8750   -1.4870   -0.0690 ha        1 NPM      0.136000
     38 H1L        -4.4410   -1.5460    0.3730 ha        1 NPM      0.141250
     39 H1M1       -8.8940    0.6820    0.2030 hc        1 NPM      0.058200
     40 H1M2       -8.6500    1.6210   -1.3240 hc        1 NPM      0.058200
     41 H1O        -9.5520   -1.6100    0.1320 ha        1 NPM      0.136000
     42 H1P       -10.4190   -3.5180   -1.1860 ha        1 NPM      0.141250
     43 H1R        -9.1860   -1.5100   -4.8420 ha        1 NPM      0.141250
     44 H1S        -8.3270    0.3810   -3.5020 ha        1 NPM      0.136000
     45 H1T       -10.9800   -2.7370   -5.5550 h4        1 NPM     -0.016700
     46 H1V       -13.1860   -3.8340   -6.2750 ha        1 NPM      0.144500
     47 H1W       -14.0720   -5.7890   -7.5880 ha        1 NPM      0.140000
     48 H1X       -12.6590   -7.8750   -7.7550 ha        1 NPM      0.145000
     49 H1Y       -10.4100   -7.9070   -6.5970 h4        1 NPM      0.025600
@<TRIPOS>BOND
     1    1    5 ar  
     2    1    9 ar  
     3    2   10 2   
     4    2   11 1   
     5    3   21 1   
     6    3   24 2   
     7    4   25 ar  
     8    4   29 ar  
     9    5    6 ar  
    10    5   30 1   
    11    6    7 ar  
    12    6   31 1   
    13    7    8 ar  
    14    7   32 1   
    15    8    9 ar  
    16    8   33 1   
    17    9   10 1   
    18   10   34 1   
    19   11   12 ar  
    20   11   16 ar  
    21   12   13 ar  
    22   12   35 1   
    23   13   14 ar  
    24   13   36 1   
    25   14   15 ar  
    26   14   17 1   
    27   15   16 ar  
    28   15   37 1   
    29   16   38 1   
    30   17   18 1   
    31   17   39 1   
    32   17   40 1   
    33   18   19 ar  
    34   18   23 ar  
    35   19   20 ar  
    36   19   41 1   
    37   20   21 ar  
    38   20   42 1   
    39   21   22 ar  
    40   22   23 ar  
    41   22   43 1   
    42   23   44 1   
    43   24   25 1   
    44   24   45 1   
    45   25   26 ar  
    46   26   27 ar  
    47   26   46 1   
    48   27   28 ar  
    49   27   47 1   
    50   28   29 ar  
    51   28   48 1   
    52   29   49 1   
@<TRIPOS>SUBSTRUCTURE
     1 NPM         1 TEMP              0 ****  ****    0 ROOT
