@<TRIPOS>MOLECULE
NPM
   49    40     1     0     0
SMALL
bcc


@<TRIPOS>ATOM
      1 N11         2.5090   -5.5360   -0.8200 n1        1 NPM     -0.119000
      2 N12        -0.4170   -5.0570    0.3610 n1        1 NPM     -0.125000
      3 N13        -3.8590    3.0730   -0.4620 n1        1 NPM     -0.125000
      4 N14        -2.5090    5.7690    0.7020 n1        1 NPM     -0.119000
      5 C1A         3.8560   -5.5200   -0.8910 c1        1 NPM     -0.122667
      6 C1B         4.6160   -5.8650    0.2250 c1        1 NPM     -0.122667
      7 C1C         4.0010   -6.2170    1.3830 c1        1 NPM     -0.122667
      8 C1D         2.6350   -6.2320    1.4530 c1        1 NPM     -0.122667
      9 C1E         1.8850   -5.8910    0.3490 c1        1 NPM     -0.046000
     10 C1F         0.3820   -6.0930    0.3680 c2        1 NPM      0.005000
     11 C1G         0.1250   -3.7400    0.3340 c1        1 NPM     -0.010000
     12 C1H         0.3520   -3.1050   -0.9000 c2        1 NPM     -0.117000
     13 C1I         0.7000   -1.7560   -0.9380 c1        1 NPM     -0.125000
     14 C1J         0.8230   -1.0360    0.2400 c1        1 NPM     -0.077000
     15 C1K         0.5960   -1.6680    1.4750 c1        1 NPM     -0.116000
     16 C1L         0.2470   -3.0210    1.5150 c1        1 NPM     -0.125000
     17 C1M         1.2220    0.4720    0.1970 c3        1 NPM     -0.082000
     18 C1N        -0.0560    1.3420    0.0190 c2        1 NPM     -0.077000
     19 C1O        -0.7790    1.7370    1.1290 c2        1 NPM     -0.124000
     20 C1P        -2.0090    2.3900    0.9710 c1        1 NPM     -0.117000
     21 C1Q        -2.5080    2.6440   -0.3090 c1        1 NPM     -0.012000
     22 C1R        -1.7810    2.2470   -1.4310 c1        1 NPM     -0.124000
     23 C1S        -0.5590    1.5980   -1.2750 c1        1 NPM     -0.117000
     24 C1T        -4.1360    4.3500   -0.5560 c1        1 NPM      0.004000
     25 C1U        -3.0130    5.3830   -0.5030 c1        1 NPM     -0.046000
     26 C1V        -2.6660    6.0730   -1.6440 c2        1 NPM     -0.159000
     27 C1W        -1.8230    7.1370   -1.5650 c1        1 NPM     -0.095000
     28 C1X        -1.3220    7.5190   -0.3570 c1        1 NPM     -0.122667
     29 C1Y        -1.6680    6.8310    0.7810 c1        1 NPM     -0.122667
     30 H1A         4.2980   -5.2670   -1.7240 ha        1 NPM      0.150500
     31 H1B         5.5750   -5.8540    0.1740 ha        1 NPM      0.150500
     32 H1C         4.5300   -6.4570    2.1610 ha        1 NPM      0.150500
     33 H1D         2.1960   -6.4810    2.2750 ha        1 NPM      0.150500
     34 H1F         0.0050   -7.0110    0.3870 h4        1 NPM      0.153000
     35 H1H         0.2670   -3.6000   -1.7120 ha        1 NPM      0.146000
     36 H1I         0.8580   -1.3160   -1.8010 ha        1 NPM      0.131000
     37 H1K         0.6830   -1.1590    2.3090 ha        1 NPM      0.134000
     38 H1L         0.0850   -3.4710    2.3950 ha        1 NPM      0.138000
     39 H1M1        1.6690    0.7150    1.0330 hc        1 NPM      0.093000
     40 H1M2        1.8380    0.6290   -0.5650 hc        1 NPM      0.093000
     41 H1O        -0.4380    1.5630    2.0110 ha        1 NPM      0.129000
     42 H1P        -2.5210    2.6700    1.7610 ha        1 NPM      0.146000
     43 H1R        -2.1360    2.4270   -2.3420 ha        1 NPM      0.138000
     44 H1S        -0.0550    1.3220   -2.0530 ha        1 NPM      0.138000
     45 H1T        -5.0780    4.6470   -0.6620 ha        1 NPM      0.153000
     46 H1V        -3.0200    5.8030   -2.4960 ha        1 NPM      0.146000
     47 H1W        -1.5800    7.6200   -2.3640 ha        1 NPM      0.141000
     48 H1X        -0.7170    8.2820   -0.3000 ha        1 NPM      0.150500
     49 H1Y        -1.3020    7.1100    1.6610 ha        1 NPM      0.150500
@<TRIPOS>BOND
     1    1    9 1   
     2    2   10 1   
     3    3   24 1   
     4    4   25 1   
     5    5    6 1   
     6    5   30 1   
     7    6   31 1   
     8    7    8 1   
     9    7   32 1   
    10    8   33 1   
    11    9   10 1   
    12   10   34 1   
    13   11   12 1   
    14   11   16 1   
    15   12   13 1   
    16   12   35 1   
    17   13   36 1   
    18   14   15 1   
    19   14   17 1   
    20   15   37 1   
    21   16   38 1   
    22   17   18 1   
    23   17   39 1   
    24   17   40 1   
    25   18   19 1   
    26   18   23 1   
    27   19   20 1   
    28   19   41 1   
    29   20   42 1   
    30   21   22 1   
    31   22   43 1   
    32   23   44 1   
    33   24   45 1   
    34   25   26 1   
    35   26   27 1   
    36   26   46 1   
    37   27   47 1   
    38   28   29 1   
    39   28   48 1   
    40   29   49 1   
@<TRIPOS>SUBSTRUCTURE
     1 NPM         1 TEMP              0 ****  ****    0 ROOT
