@<TRIPOS>MOLECULE
NPM
   49    52     1     0     0
SMALL
bcc


@<TRIPOS>ATOM
      1 N11         0.0690    1.1530    0.4550 nb        1 NPM     -0.627500
      2 N12        -2.7690    0.3760   -0.0870 ne        1 NPM     -0.533600
      3 N13       -10.6370   -3.7850   -3.7520 ne        1 NPM     -0.533600
      4 N14       -10.8760   -6.0310   -5.7140 nb        1 NPM     -0.627500
      5 C1A         1.4130    1.1210    0.4900 ca        1 NPM      0.393200
      6 C1B         2.1610    0.0360    0.9850 ca        1 NPM     -0.239300
      7 C1C         1.4720   -1.0730    1.4760 ca        1 NPM     -0.094500
      8 C1D         0.0760   -1.0630    1.4580 ca        1 NPM     -0.232300
      9 C1E        -0.5880    0.0680    0.9350 ca        1 NPM      0.359000
     10 C1F        -2.0740    0.0480    0.9460 cf        1 NPM      0.368700
     11 C1G        -4.1820    0.3230   -0.0670 ca        1 NPM      0.113900
     12 C1H        -4.8880    1.2290   -0.8900 ca        1 NPM     -0.120250
     13 C1I        -6.2760    1.1870   -0.9520 ca        1 NPM     -0.123500
     14 C1J        -7.0010    0.2480   -0.2100 ca        1 NPM     -0.074800
     15 C1K        -6.3080   -0.6560    0.6020 ca        1 NPM     -0.123500
     16 C1L        -4.9200   -0.6220    0.6780 ca        1 NPM     -0.120250
     17 C1M        -8.4900    0.2210   -0.2700 c3        1 NPM      0.006200
     18 C1N        -9.0250   -0.8230   -1.1900 ca        1 NPM     -0.074800
     19 C1O       -10.0880   -1.6370   -0.7870 ca        1 NPM     -0.123500
     20 C1P       -10.6200   -2.5950   -1.6430 ca        1 NPM     -0.120250
     21 C1Q       -10.0960   -2.7580   -2.9450 ca        1 NPM      0.113900
     22 C1R        -9.0210   -1.9350   -3.3440 ca        1 NPM     -0.120250
     23 C1S        -8.4960   -0.9850   -2.4750 ca        1 NPM     -0.123500
     24 C1T       -10.6730   -3.6750   -5.0340 cf        1 NPM      0.368700
     25 C1U       -11.2390   -4.7380   -5.9050 ca        1 NPM      0.359000
     26 C1V       -12.1300   -4.3320   -6.9230 ca        1 NPM     -0.232300
     27 C1W       -12.6710   -5.3030   -7.7660 ca        1 NPM     -0.094500
     28 C1X       -12.3080   -6.6370   -7.5820 ca        1 NPM     -0.239300
     29 C1Y       -11.4060   -6.9460   -6.5450 ca        1 NPM      0.393200
     30 H1A         1.9170    2.0210    0.0940 h4        1 NPM      0.026100
     31 H1B         3.2580    0.0690    0.9810 ha        1 NPM      0.145000
     32 H1C         2.0170   -1.9420    1.8720 ha        1 NPM      0.140000
     33 H1D        -0.4990   -1.9180    1.8370 ha        1 NPM      0.144500
     34 H1F        -2.4910   -0.2820    1.9230 h4        1 NPM     -0.016700
     35 H1H        -4.3370    1.9760   -1.4850 ha        1 NPM      0.141000
     36 H1I        -6.8100    1.9040   -1.5950 ha        1 NPM      0.136000
     37 H1K        -6.8670   -1.4050    1.1850 ha        1 NPM      0.136000
     38 H1L        -4.4000   -1.3540    1.3140 ha        1 NPM      0.141000
     39 H1M1       -8.8930    0.0540    0.7670 hc        1 NPM      0.058200
     40 H1M2       -8.8710    1.2230   -0.6140 hc        1 NPM      0.058200
     41 H1O       -10.5120   -1.5240    0.2230 ha        1 NPM      0.136000
     42 H1P       -11.4520   -3.2300   -1.3000 ha        1 NPM      0.141000
     43 H1R        -8.5740   -2.0540   -4.3430 ha        1 NPM      0.141000
     44 H1S        -7.6500   -0.3570   -2.7940 ha        1 NPM      0.136000
     45 H1T       -10.3160   -2.7940   -5.6120 h4        1 NPM     -0.016700
     46 H1V       -12.3930   -3.2720   -7.0390 ha        1 NPM      0.144500
     47 H1W       -13.3720   -5.0180   -8.5640 ha        1 NPM      0.140000
     48 H1X       -12.7100   -7.4310   -8.2240 ha        1 NPM      0.145000
     49 H1Y       -11.0880   -7.9890   -6.3640 h4        1 NPM      0.026100
@<TRIPOS>BOND
     1    1    5 ar  
     2    1    9 ar  
     3    2   10 2   
     4    2   11 1   
     5    3   21 1   
     6    3   24 2   
     7    4   25 ar  
     8    4   29 ar  
     9    5    6 ar  
    10    5   30 1   
    11    6    7 ar  
    12    6   31 1   
    13    7    8 ar  
    14    7   32 1   
    15    8    9 ar  
    16    8   33 1   
    17    9   10 1   
    18   10   34 1   
    19   11   12 ar  
    20   11   16 ar  
    21   12   13 ar  
    22   12   35 1   
    23   13   14 ar  
    24   13   36 1   
    25   14   15 ar  
    26   14   17 1   
    27   15   16 ar  
    28   15   37 1   
    29   16   38 1   
    30   17   18 1   
    31   17   39 1   
    32   17   40 1   
    33   18   19 ar  
    34   18   23 ar  
    35   19   20 ar  
    36   19   41 1   
    37   20   21 ar  
    38   20   42 1   
    39   21   22 ar  
    40   22   23 ar  
    41   22   43 1   
    42   23   44 1   
    43   24   25 1   
    44   24   45 1   
    45   25   26 ar  
    46   26   27 ar  
    47   26   46 1   
    48   27   28 ar  
    49   27   47 1   
    50   28   29 ar  
    51   28   48 1   
    52   29   49 1   
@<TRIPOS>SUBSTRUCTURE
     1 NPM         1 TEMP              0 ****  ****    0 ROOT
