@<TRIPOS>MOLECULE
NPN
   12    11     1     0     0
SMALL
bcc


@<TRIPOS>ATOM
      1 C          -1.0470    0.0170   -2.3290 c1        1 NPN      0.431800
      2 N          -0.5250    0.0000   -1.2700 n1        1 NPN     -0.848300
      3 C1          0.0870   -0.0190   -0.0050 c3        1 NPN      0.273100
      4 C2          1.6190   -0.0020   -0.0350 c3        1 NPN     -0.096400
      5 C3          2.1570   -0.0250    1.3720 c3        1 NPN     -0.096100
      6 H11        -0.2550   -0.9480    0.5410 h1        1 NPN      0.055700
      7 H12        -0.2750    0.8770    0.5800 h1        1 NPN      0.055700
      8 H21         2.0020   -0.8890   -0.6030 hc        1 NPN      0.053700
      9 H22         1.9810    0.9180   -0.5650 hc        1 NPN      0.053700
     10 H31         1.8240   -0.9460    1.9100 hc        1 NPN      0.039033
     11 H32         1.8040    0.8640    1.9480 hc        1 NPN      0.039033
     12 H33         3.2730   -0.0120    1.3540 hc        1 NPN      0.039033
@<TRIPOS>BOND
     1    1    2 3   
     2    2    3 1   
     3    3    4 1   
     4    3    6 1   
     5    3    7 1   
     6    4    5 1   
     7    4    8 1   
     8    4    9 1   
     9    5   10 1   
    10    5   11 1   
    11    5   12 1   
@<TRIPOS>SUBSTRUCTURE
     1 NPN         1 TEMP              0 ****  ****    0 ROOT
