@<TRIPOS>MOLECULE
NPN
   12    11     1     0     0
SMALL
bcc


@<TRIPOS>ATOM
      1 C          -1.0250   -0.0100   -2.3470 c1        1 NPN      0.431800
      2 N          -0.5120   -0.0170   -1.2840 n1        1 NPN     -0.848300
      3 C1          0.0890   -0.0260   -0.0140 c3        1 NPN      0.273100
      4 C2          1.6210    0.0000   -0.0300 c3        1 NPN     -0.096400
      5 C3          2.1470   -0.0130    1.3820 c3        1 NPN     -0.096100
      6 H11        -0.2520   -0.9540    0.5350 h1        1 NPN      0.055700
      7 H12        -0.2830    0.8720    0.5630 h1        1 NPN      0.055700
      8 H21         2.0140   -0.8880   -0.5900 hc        1 NPN      0.053700
      9 H22         1.9830    0.9190   -0.5610 hc        1 NPN      0.053700
     10 H31         1.8150   -0.9330    1.9210 hc        1 NPN      0.039033
     11 H32         1.7830    0.8780    1.9500 hc        1 NPN      0.039033
     12 H33         3.2640    0.0060    1.3740 hc        1 NPN      0.039033
@<TRIPOS>BOND
     1    1    2 3   
     2    2    3 1   
     3    3    4 1   
     4    3    6 1   
     5    3    7 1   
     6    4    5 1   
     7    4    8 1   
     8    4    9 1   
     9    5   10 1   
    10    5   11 1   
    11    5   12 1   
@<TRIPOS>SUBSTRUCTURE
     1 NPN         1 TEMP              0 ****  ****    0 ROOT
