@<TRIPOS>MOLECULE
NPN
   12    10     1     0     0
SMALL
bcc


@<TRIPOS>ATOM
      1 C          -1.9050   -0.0360   -2.6310 c1        1 NPN      0.106000
      2 N          -1.5130   -0.0200   -1.5600 n1        1 NPN     -0.340000
      3 C1         -1.0390   -0.0200   -0.2190 c2        1 NPN      0.012000
      4 C2          0.4740   -0.0200   -0.2190 c3        1 NPN     -0.175000
      5 C3          0.9780   -0.0200    1.2070 c3        1 NPN     -0.214000
      6 H11        -1.1020    0.8650    0.1880 ha        1 NPN      0.095000
      7 H12        -1.2690   -0.7250    0.4150 ha        1 NPN      0.095000
      8 H21         0.8350    0.5690   -0.9090 hc        1 NPN      0.093000
      9 H22         0.6120   -0.8830   -0.6550 hc        1 NPN      0.093000
     10 H31         1.0030    0.9380    1.3960 hc        1 NPN      0.078333
     11 H32         1.9420    0.0390    1.0670 hc        1 NPN      0.078333
     12 H33         0.9840   -0.6870    1.9200 hc        1 NPN      0.078333
@<TRIPOS>BOND
     1    1    2 1   
     2    3    4 1   
     3    3    6 1   
     4    3    7 1   
     5    4    5 1   
     6    4    8 1   
     7    4    9 1   
     8    5   10 1   
     9    5   11 1   
    10    5   12 1   
@<TRIPOS>SUBSTRUCTURE
     1 NPN         1 TEMP              0 ****  ****    0 ROOT
