@<TRIPOS>MOLECULE
NPN
   12    11     1     0     0
SMALL
bcc


@<TRIPOS>ATOM
      1 C          -2.5370    0.2120   -0.0000 c1        1 NPN      0.431800
      2 N          -1.4110   -0.1430   -0.0000 n1        1 NPN     -0.848300
      3 C1         -0.0740   -0.5760   -0.0000 c3        1 NPN      0.273100
      4 C2          0.9640    0.5510    0.0000 c3        1 NPN     -0.096400
      5 C3          2.3520   -0.0330   -0.0000 c3        1 NPN     -0.096100
      6 H11         0.0910   -1.2210   -0.9130 h1        1 NPN      0.055700
      7 H12         0.0910   -1.2210    0.9130 h1        1 NPN      0.055700
      8 H21         0.8250    1.2000    0.9040 hc        1 NPN      0.053700
      9 H22         0.8250    1.2000   -0.9040 hc        1 NPN      0.053700
     10 H31         3.1120    0.7860   -0.0000 hc        1 NPN      0.039033
     11 H32         2.5180   -0.6660    0.9060 hc        1 NPN      0.039033
     12 H33         2.5180   -0.6660   -0.9060 hc        1 NPN      0.039033
@<TRIPOS>BOND
     1    1    2 3   
     2    2    3 1   
     3    3    4 1   
     4    3    6 1   
     5    3    7 1   
     6    4    5 1   
     7    4    8 1   
     8    4    9 1   
     9    5   10 1   
    10    5   11 1   
    11    5   12 1   
@<TRIPOS>SUBSTRUCTURE
     1 NPN         1 TEMP              0 ****  ****    0 ROOT
