@<TRIPOS>MOLECULE
NPO
   15    15     1     0     0
SMALL
bcc


@<TRIPOS>ATOM
      1 C1          0.0230    0.0010    0.0100 ca        1 NPO     -0.219200
      2 C2          1.4300   -0.0130   -0.0460 ca        1 NPO     -0.028000
      3 C3          2.1640    0.0550    1.1290 ca        1 NPO     -0.199500
      4 C4          1.4890    0.1370    2.3620 ca        1 NPO      0.170100
      5 C5          0.0860    0.1510    2.4180 ca        1 NPO     -0.199500
      6 C6         -0.6490    0.0830    1.2410 ca        1 NPO     -0.028000
      7 OH          2.2760    0.2020    3.4810 oh        1 NPO     -0.483100
      8 N1         -0.7590   -0.0720   -1.2470 no        1 NPO      0.319200
      9 O2         -1.9600   -0.0600   -1.1870 o         1 NPO     -0.212000
     10 O3         -0.1740   -0.1430   -2.2950 o         1 NPO     -0.212000
     11 H2          1.9450   -0.0790   -1.0210 ha        1 NPO      0.173500
     12 H3          3.2640    0.0450    1.1120 ha        1 NPO      0.158000
     13 H5         -0.4300    0.2160    3.3870 ha        1 NPO      0.158000
     14 H6         -1.7530    0.0930    1.2720 ha        1 NPO      0.173500
     15 HO          1.6980    0.2550    4.2590 ho        1 NPO      0.430000
@<TRIPOS>BOND
     1    1    2 ar  
     2    1    6 ar  
     3    1    8 1   
     4    2    3 ar  
     5    2   11 1   
     6    3    4 ar  
     7    3   12 1   
     8    4    5 ar  
     9    4    7 1   
    10    5    6 ar  
    11    5   13 1   
    12    6   14 1   
    13    7   15 1   
    14    8    9 1   
    15    8   10 1   
@<TRIPOS>SUBSTRUCTURE
     1 NPO         1 TEMP              0 ****  ****    0 ROOT
