@<TRIPOS>MOLECULE
NPO
   15    15     1     0     0
SMALL
bcc


@<TRIPOS>ATOM
      1 C1         -0.0030   -0.0010   -0.6370 ca        1 NPO     -0.219200
      2 C2          1.1920    0.0760    0.0980 ca        1 NPO     -0.028000
      3 C3          1.1380    0.1400    1.4850 ca        1 NPO     -0.199500
      4 C4         -0.1080    0.1270    2.1330 ca        1 NPO      0.170100
      5 C5         -1.3060    0.0490    1.3970 ca        1 NPO     -0.199500
      6 C6         -1.2520   -0.0140    0.0130 ca        1 NPO     -0.028000
      7 OH         -0.2350    0.1870    3.4950 oh        1 NPO     -0.483100
      8 N1          0.0520   -0.0690   -2.1170 no        1 NPO      0.319200
      9 O2         -0.9770   -0.1350   -2.7360 o         1 NPO     -0.212000
     10 O3          1.1240   -0.0570   -2.6610 o         1 NPO     -0.212000
     11 H2          2.1650    0.0860   -0.4230 ha        1 NPO      0.173500
     12 H3          2.0670    0.2000    2.0700 ha        1 NPO      0.158000
     13 H5         -2.2690    0.0410    1.9280 ha        1 NPO      0.158000
     14 H6         -2.1830   -0.0750   -0.5780 ha        1 NPO      0.173500
     15 HO          0.6530    0.2360    3.8840 ho        1 NPO      0.430000
@<TRIPOS>BOND
     1    1    2 ar  
     2    1    6 ar  
     3    1    8 1   
     4    2    3 ar  
     5    2   11 1   
     6    3    4 ar  
     7    3   12 1   
     8    4    5 ar  
     9    4    7 1   
    10    5    6 ar  
    11    5   13 1   
    12    6   14 1   
    13    7   15 1   
    14    8    9 1   
    15    8   10 1   
@<TRIPOS>SUBSTRUCTURE
     1 NPO         1 TEMP              0 ****  ****    0 ROOT
