@<TRIPOS>MOLECULE
NPO
   15    15     1     0     0
SMALL
bcc


@<TRIPOS>ATOM
      1 C1          0.0250   -0.0000    0.0090 ca        1 NPO     -0.219200
      2 C2          1.4310   -0.0550   -0.0410 ca        1 NPO     -0.028000
      3 C3          2.1630    0.0120    1.1350 ca        1 NPO     -0.199500
      4 C4          1.4860    0.1340    2.3640 ca        1 NPO      0.170100
      5 C5          0.0840    0.1890    2.4140 ca        1 NPO     -0.199500
      6 C6         -0.6490    0.1210    1.2360 ca        1 NPO     -0.028000
      7 OH          2.2700    0.1950    3.4850 oh        1 NPO     -0.483100
      8 N1         -0.7540   -0.0720   -1.2500 no        1 NPO      0.319200
      9 O2         -1.9550   -0.0250   -1.1950 o         1 NPO     -0.212000
     10 O3         -0.1680   -0.1760   -2.2940 o         1 NPO     -0.212000
     11 H2          1.9480   -0.1500   -1.0130 ha        1 NPO      0.173500
     12 H3          3.2620   -0.0280    1.1230 ha        1 NPO      0.158000
     13 H5         -0.4340    0.2840    3.3800 ha        1 NPO      0.158000
     14 H6         -1.7520    0.1630    1.2620 ha        1 NPO      0.173500
     15 HO          1.6920    0.2780    4.2600 ho        1 NPO      0.430000
@<TRIPOS>BOND
     1    1    2 ar  
     2    1    6 ar  
     3    1    8 1   
     4    2    3 ar  
     5    2   11 1   
     6    3    4 ar  
     7    3   12 1   
     8    4    5 ar  
     9    4    7 1   
    10    5    6 ar  
    11    5   13 1   
    12    6   14 1   
    13    7   15 1   
    14    8    9 1   
    15    8   10 1   
@<TRIPOS>SUBSTRUCTURE
     1 NPO         1 TEMP              0 ****  ****    0 ROOT
