@<TRIPOS>MOLECULE
NPP
   55    56     1     0     0
SMALL
bcc


@<TRIPOS>ATOM
      1 N1          4.4300    0.2370   -0.3590 n3        1 NPP     -0.173400
      2 O1          5.2340    1.1450   -0.0890 o         1 NPP     -0.665000
      3 C2          4.1000   -0.5910    0.9300 c3        1 NPP      0.054700
      4 CM1         3.8960    0.2450    2.1920 c3        1 NPP     -0.071850
      5 CM2         5.3350   -1.4730    1.1880 c3        1 NPP     -0.071850
      6 C3          2.9220   -1.5570    0.7510 c3        1 NPP     -0.063900
      7 C4          1.6760   -0.8190    0.2570 c3        1 NPP      0.205500
      8 C5          2.0040   -0.1960   -1.1010 c3        1 NPP     -0.063900
      9 C6          3.1220    0.8410   -0.9700 c3        1 NPP      0.054700
     10 CM3         3.4760    1.2760   -2.4010 c3        1 NPP     -0.071850
     11 CM4         2.5990    2.0860   -0.2590 c3        1 NPP     -0.071850
     12 N2          0.5050   -1.6980    0.2230 nh        1 NPP     -0.710600
     13 C7         -0.7650   -1.2450    0.1490 ca        1 NPP      0.348600
     14 C8         -1.9230   -2.1200    0.1320 ca        1 NPP     -0.344200
     15 N3         -1.8260   -3.5870    0.1290 no        1 NPP      0.334200
     16 O2         -0.7570   -4.1440    0.0760 o         1 NPP     -0.241500
     17 O3         -2.8440   -4.2340    0.1770 o         1 NPP     -0.241500
     18 C9         -3.2090   -1.5750    0.1200 ca        1 NPP      0.077000
     19 C10        -3.4480   -0.1980    0.1040 ca        1 NPP     -0.343200
     20 N4         -4.8480    0.2370    0.1060 no        1 NPP      0.336200
     21 O4         -5.7170   -0.6010    0.0920 o         1 NPP     -0.247500
     22 O5         -5.1440    1.4090    0.1260 o         1 NPP     -0.247500
     23 C11        -2.3230    0.7160    0.0800 ca        1 NPP      0.336600
     24 C12        -1.0380    0.1510    0.1130 ca        1 NPP     -0.363000
     25 N5         -2.4810    2.0730    0.0180 nh        1 NPP     -0.759600
     26 C13        -1.3610    2.9740   -0.0280 c3        1 NPP      0.160800
     27 C14        -1.7960    4.4560   -0.1520 c3        1 NPP      0.144800
     28 N6         -0.7150    5.4000   -0.2110 n3        1 NPP     -0.903800
     29 HM11        4.6230    1.0960    2.1820 hc        1 NPP      0.016033
     30 HM12        2.8640    0.6620    2.2570 hc        1 NPP      0.016033
     31 HM13        4.0710   -0.3690    3.1100 hc        1 NPP      0.016033
     32 HM21        5.1630   -2.1270    2.0780 hc        1 NPP      0.016033
     33 HM22        5.5510   -2.1220    0.3080 hc        1 NPP      0.016033
     34 HM23        6.2210   -0.8210    1.3790 hc        1 NPP      0.016033
     35 H31         3.2040   -2.3510    0.0120 hc        1 NPP      0.026950
     36 H32         2.7110   -2.0590    1.7320 hc        1 NPP      0.026950
     37 H4          1.4380    0.0010    1.0010 h1        1 NPP      0.064700
     38 H51         2.3280   -1.0020   -1.8100 hc        1 NPP      0.026950
     39 H52         1.0950    0.2940   -1.5410 hc        1 NPP      0.026950
     40 HM31        2.5810    1.7170   -2.9040 hc        1 NPP      0.016033
     41 HM32        4.2900    2.0390   -2.3680 hc        1 NPP      0.016033
     42 HM33        3.8280    0.4060   -3.0050 hc        1 NPP      0.016033
     43 HM41        2.2060    1.8520    0.7570 hc        1 NPP      0.016033
     44 HM42        3.4420    2.8120   -0.1470 hc        1 NPP      0.016033
     45 HM43        1.7740    2.5650   -0.8450 hc        1 NPP      0.016033
     46 HN2         0.6960   -2.6770    0.1810 hn        1 NPP      0.466800
     47 H9         -4.0820   -2.2670    0.1240 ha        1 NPP      0.193000
     48 H12        -0.1690    0.8340    0.0950 ha        1 NPP      0.175000
     49 HN5        -3.3920    2.4740    0.0190 hn        1 NPP      0.467800
     50 H131       -0.7410    2.8500    0.9090 h1        1 NPP      0.055200
     51 H132       -0.7000    2.7090   -0.9060 h1        1 NPP      0.055200
     52 H141       -2.4160    4.5800   -1.0850 h1        1 NPP      0.056700
     53 H142       -2.4420    4.7240    0.7310 h1        1 NPP      0.056700
     54 HN61       -0.1500    5.3570    0.6160 hn        1 NPP      0.355800
     55 HN62       -0.1310    5.2330   -1.0080 hn        1 NPP      0.355800
@<TRIPOS>BOND
     1    1    2 1   
     2    1    3 1   
     3    1    9 1   
     4    3    4 1   
     5    3    5 1   
     6    3    6 1   
     7    4   29 1   
     8    4   30 1   
     9    4   31 1   
    10    5   32 1   
    11    5   33 1   
    12    5   34 1   
    13    6    7 1   
    14    6   35 1   
    15    6   36 1   
    16    7    8 1   
    17    7   12 1   
    18    7   37 1   
    19    8    9 1   
    20    8   38 1   
    21    8   39 1   
    22    9   10 1   
    23    9   11 1   
    24   10   40 1   
    25   10   41 1   
    26   10   42 1   
    27   11   43 1   
    28   11   44 1   
    29   11   45 1   
    30   12   13 1   
    31   12   46 1   
    32   13   14 ar  
    33   13   24 ar  
    34   14   15 1   
    35   14   18 ar  
    36   15   16 1   
    37   15   17 1   
    38   18   19 ar  
    39   18   47 1   
    40   19   20 1   
    41   19   23 ar  
    42   20   21 1   
    43   20   22 1   
    44   23   24 ar  
    45   23   25 1   
    46   24   48 1   
    47   25   26 1   
    48   25   49 1   
    49   26   27 1   
    50   26   50 1   
    51   26   51 1   
    52   27   28 1   
    53   27   52 1   
    54   27   53 1   
    55   28   54 1   
    56   28   55 1   
@<TRIPOS>SUBSTRUCTURE
     1 NPP         1 TEMP              0 ****  ****    0 ROOT
