@<TRIPOS>MOLECULE
NPP
   56    57     1     0     0
SMALL
bcc


@<TRIPOS>ATOM
      1 N1         -0.0770    0.3350   -0.1010 n3        1 NPP     -0.450100
      2 O1         -0.6410    0.5040   -1.2880 oh        1 NPP     -0.370300
      3 C2          1.4180    0.4010   -0.1860 c3        1 NPP      0.157200
      4 CM1         1.9770    1.6240   -0.9280 c3        1 NPP     -0.104350
      5 CM2         1.8950   -0.8390   -0.9760 c3        1 NPP     -0.104350
      6 C3          2.0730    0.3080    1.2020 c3        1 NPP     -0.090400
      7 C4          1.4880    1.3460    2.1690 c3        1 NPP      0.213500
      8 C5         -0.0130    1.0600    2.3010 c3        1 NPP     -0.090400
      9 C6         -0.7340    1.1790    0.9490 c3        1 NPP      0.157200
     10 CM3        -2.1630    0.6310    1.1610 c3        1 NPP     -0.104350
     11 CM4        -0.8910    2.6640    0.5930 c3        1 NPP     -0.104350
     12 N2          2.1910    1.3320    3.4390 nh        1 NPP     -0.740600
     13 C7          2.0910    2.3240    4.3710 ca        1 NPP      0.343600
     14 C8          2.7370    2.2380    5.6600 ca        1 NPP     -0.328200
     15 N3          3.4600    1.0410    6.1290 no        1 NPP      0.333200
     16 O2          3.3740   -0.0060    5.5340 o         1 NPP     -0.224500
     17 O3          4.1260    1.1270    7.1270 o         1 NPP     -0.224500
     18 C9          2.7010    3.3310    6.5300 ca        1 NPP      0.073000
     19 C10         2.0310    4.5160    6.2150 ca        1 NPP     -0.326200
     20 N4          2.1050    5.6070    7.2050 no        1 NPP      0.334200
     21 O4          2.5170    5.3570    8.3070 o         1 NPP     -0.225000
     22 O5          1.7770    6.7300    6.9090 o         1 NPP     -0.225000
     23 C11         1.3100    4.6220    4.9700 ca        1 NPP      0.332600
     24 C12         1.3910    3.5220    4.0890 ca        1 NPP     -0.354000
     25 N5          0.5200    5.7040    4.6750 nh        1 NPP     -0.743600
     26 C13        -0.1170    5.9000    3.4020 c3        1 NPP      0.198800
     27 C14         0.8440    6.3630    2.2790 c3        1 NPP      0.124800
     28 N6          0.1780    6.4380    1.0020 n3        1 NPP     -0.918800
     29 HM11        3.0900    1.5460   -0.9760 hc        1 NPP      0.045783
     30 HM12        1.7180    2.5790   -0.4180 hc        1 NPP      0.045783
     31 HM13        1.5900    1.6580   -1.9750 hc        1 NPP      0.045783
     32 HM21        1.5550   -1.7780   -0.4800 hc        1 NPP      0.045783
     33 HM22        1.4820   -0.8150   -2.0130 hc        1 NPP      0.045783
     34 HM23        3.0090   -0.8340   -1.0240 hc        1 NPP      0.045783
     35 H31         3.1760    0.4670    1.0790 hc        1 NPP      0.063700
     36 H32         1.9170   -0.7240    1.6150 hc        1 NPP      0.063700
     37 H4          1.6310    2.3720    1.7110 h1        1 NPP      0.065700
     38 H51        -0.1620    0.0250    2.7100 hc        1 NPP      0.063700
     39 H52        -0.4880    1.7800    3.0170 hc        1 NPP      0.063700
     40 HM31       -2.6630    1.2210    1.9650 hc        1 NPP      0.045783
     41 HM32       -2.7520    0.7210    0.2180 hc        1 NPP      0.045783
     42 HM33       -2.1330   -0.4430    1.4620 hc        1 NPP      0.045783
     43 HM41        0.0900    3.1710    0.4460 hc        1 NPP      0.045783
     44 HM42       -1.5010    2.7850   -0.3350 hc        1 NPP      0.045783
     45 HM43       -1.4250    3.1870    1.4240 hc        1 NPP      0.045783
     46 HN2         2.5770    0.4480    3.7030 hn        1 NPP      0.471800
     47 H9          3.2270    3.2560    7.5100 ha        1 NPP      0.203000
     48 H12         0.8700    3.5990    3.1200 ha        1 NPP      0.160000
     49 HN5         0.6170    6.5290    5.2320 hn        1 NPP      0.467800
     50 H131       -0.6390    4.9510    3.0860 h1        1 NPP      0.067200
     51 H132       -0.9100    6.6890    3.5540 h1        1 NPP      0.067200
     52 H141        1.3060    7.3460    2.5930 h1        1 NPP      0.038200
     53 H142        1.6830    5.6160    2.1820 h1        1 NPP      0.038200
     54 HN61       -0.4960    1.4160   -1.6180 ho        1 NPP      0.366000
     55 HN62        0.8180    6.7460    0.2960 hn        1 NPP      0.356300
     56 H63        -0.6010    7.0640    1.0360 hn        1 NPP      0.356300
@<TRIPOS>BOND
     1    1    2 1   
     2    1    3 1   
     3    1    9 1   
     4    2   54 1   
     5    3    4 1   
     6    3    5 1   
     7    3    6 1   
     8    4   29 1   
     9    4   30 1   
    10    4   31 1   
    11    5   32 1   
    12    5   33 1   
    13    5   34 1   
    14    6    7 1   
    15    6   35 1   
    16    6   36 1   
    17    7    8 1   
    18    7   12 1   
    19    7   37 1   
    20    8    9 1   
    21    8   38 1   
    22    8   39 1   
    23    9   10 1   
    24    9   11 1   
    25   10   40 1   
    26   10   41 1   
    27   10   42 1   
    28   11   43 1   
    29   11   44 1   
    30   11   45 1   
    31   12   13 1   
    32   12   46 1   
    33   13   14 ar  
    34   13   24 ar  
    35   14   15 1   
    36   14   18 ar  
    37   15   16 1   
    38   15   17 1   
    39   18   19 ar  
    40   18   47 1   
    41   19   20 1   
    42   19   23 ar  
    43   20   21 1   
    44   20   22 1   
    45   23   24 ar  
    46   23   25 1   
    47   24   48 1   
    48   25   26 1   
    49   25   49 1   
    50   26   27 1   
    51   26   50 1   
    52   26   51 1   
    53   27   28 1   
    54   27   52 1   
    55   27   53 1   
    56   28   55 1   
    57   28   56 1   
@<TRIPOS>SUBSTRUCTURE
     1 NPP         1 TEMP              0 ****  ****    0 ROOT
