@<TRIPOS>MOLECULE
NPP
   55    54     1     0     0
SMALL
bcc


@<TRIPOS>ATOM
      1 N1         -1.7900   -2.6150   -2.8550 n3        1 NPP      0.134000
      2 O1         -2.3000   -2.5950   -4.1310 o         1 NPP     -0.668000
      3 C2         -0.3360   -2.6320   -2.9090 c3        1 NPP     -0.098000
      4 CM1         0.1550   -1.4360   -3.7990 c3        1 NPP     -0.191500
      5 CM2         0.1240   -3.9810   -3.5740 c3        1 NPP     -0.191500
      6 C3          0.3010   -2.5140   -1.5210 c3        1 NPP     -0.141500
      7 C4         -0.2300   -1.3620   -0.7560 c3        1 NPP      0.000000
      8 C5         -1.6990   -1.3540   -0.7140 c3        1 NPP     -0.141500
      9 C6         -2.3210   -1.4790   -2.0990 c3        1 NPP     -0.098000
     10 CM3        -3.8210   -1.6570   -1.9430 c3        1 NPP     -0.191500
     11 CM4        -2.0480   -0.1740   -2.8940 c3        1 NPP     -0.191500
     12 N2          0.3050   -1.4300    0.6700 n3        1 NPP     -0.260000
     13 C7          1.0770   -0.3130    1.2210 c2        1 NPP      0.256000
     14 C8          2.4580   -0.2640    1.0330 c2        1 NPP     -0.247000
     15 N3          3.0910   -1.1940    0.1690 no        1 NPP      0.587000
     16 O2          4.2860   -1.7500    0.5240 o         1 NPP     -0.361500
     17 O3          2.5220   -1.5730   -0.8340 o         1 NPP     -0.361500
     18 C9          3.2210    0.6930    1.7020 c1        1 NPP      0.063000
     19 C10         2.6130    1.5920    2.5530 c1        1 NPP     -0.289000
     20 N4          3.4190    2.4970    3.3370 no        1 NPP      0.592000
     21 O4          4.7600    2.3210    3.4060 o         1 NPP     -0.394000
     22 O5          2.8760    3.3620    4.0300 o         1 NPP     -0.394000
     23 C11         1.2320    1.5480    2.7450 c1        1 NPP      0.242000
     24 C12         0.4650    0.5910    2.0750 c1        1 NPP     -0.358000
     25 N5          0.6160    2.3950    3.7550 n3        1 NPP     -0.311000
     26 C13         0.4710    3.8390    3.5160 c3        1 NPP     -0.074000
     27 C14        -0.7980    4.3320    4.1640 c3        1 NPP     -0.095000
     28 N6         -1.1200    5.6700    3.6530 n3        1 NPP     -0.336000
     29 HM11        0.4000   -0.6790   -3.2230 hc        1 NPP      0.057750
     30 HM12       -0.5760   -1.1610   -4.4180 hc        1 NPP      0.057750
     31 HM13        0.9190   -1.7100   -4.3100 hc        1 NPP      0.057750
     32 HM21        0.0100   -3.9230   -4.5270 hc        1 NPP      0.057750
     33 HM22       -0.4240   -4.7230   -3.2230 hc        1 NPP      0.057750
     34 HM23        1.0820   -4.1470   -3.3640 hc        1 NPP      0.057750
     35 H31         0.1280   -3.3270   -1.0240 hc        1 NPP      0.059250
     36 H32         1.2520   -2.4070   -1.6240 hc        1 NPP      0.059250
     37 H4          0.0780   -0.5360   -1.1720 h1        1 NPP      0.136000
     38 H51        -2.0010   -0.5080   -0.3040 hc        1 NPP      0.059250
     39 H52        -2.0000   -2.0870   -0.1730 hc        1 NPP      0.059250
     40 HM31       -4.1780   -0.9410   -1.3680 hc        1 NPP      0.057750
     41 HM32       -4.0080   -2.5480   -1.5230 hc        1 NPP      0.057750
     42 HM33       -4.2520   -1.6120   -2.8250 hc        1 NPP      0.057750
     43 HM41       -1.1140    0.0760   -2.7940 hc        1 NPP      0.057750
     44 HM42       -2.2480   -0.3200   -3.8390 hc        1 NPP      0.057750
     45 HM43       -2.6250    0.5520   -2.5440 hc        1 NPP      0.057750
     46 HN2         0.1470   -2.1720    1.1810 hn        1 NPP      0.206000
     47 H9          4.1860    0.7260    1.5690 ha        1 NPP      0.192000
     48 H12        -0.5030    0.5590    2.2090 ha        1 NPP      0.142000
     49 HN5         0.3450    2.0340    4.5560 hn        1 NPP      0.257000
     50 H131        1.2380    4.3110    3.9000 h1        1 NPP      0.081000
     51 H132        0.4340    4.0100    2.5460 h1        1 NPP      0.081000
     52 H141       -0.6690    4.3780    5.1590 h1        1 NPP      0.102000
     53 H142       -1.5180    3.7300    3.9640 h1        1 NPP      0.102000
     54 HN61       -1.1580    5.6470    2.7280 hn        1 NPP      0.145500
     55 HN62       -0.4720    6.2610    3.9170 hn        1 NPP      0.145500
@<TRIPOS>BOND
     1    1    2 1   
     2    1    3 1   
     3    1    9 1   
     4    3    4 1   
     5    3    5 1   
     6    3    6 1   
     7    4   29 1   
     8    4   30 1   
     9    4   31 1   
    10    5   32 1   
    11    5   33 1   
    12    5   34 1   
    13    6    7 1   
    14    6   35 1   
    15    6   36 1   
    16    7    8 1   
    17    7   12 1   
    18    7   37 1   
    19    8    9 1   
    20    8   38 1   
    21    8   39 1   
    22    9   10 1   
    23    9   11 1   
    24   10   40 1   
    25   10   41 1   
    26   10   42 1   
    27   11   43 1   
    28   11   44 1   
    29   11   45 1   
    30   12   13 1   
    31   12   46 1   
    32   13   14 1   
    33   13   24 1   
    34   14   15 1   
    35   14   18 1   
    36   15   16 1   
    37   15   17 1   
    38   18   47 1   
    39   19   20 1   
    40   19   23 1   
    41   20   21 1   
    42   20   22 1   
    43   23   25 1   
    44   24   48 1   
    45   25   26 1   
    46   25   49 1   
    47   26   27 1   
    48   26   50 1   
    49   26   51 1   
    50   27   28 1   
    51   27   52 1   
    52   27   53 1   
    53   28   54 1   
    54   28   55 1   
@<TRIPOS>SUBSTRUCTURE
     1 NPP         1 TEMP              0 ****  ****    0 ROOT
