@<TRIPOS>MOLECULE
NPP
   56    57     1     0     0
SMALL
bcc


@<TRIPOS>ATOM
      1 N1         -0.1260    1.3170   -0.3040 n3        1 NPP     -0.436100
      2 O1         -0.1400    2.6070   -0.6080 oh        1 NPP     -0.380300
      3 C2          1.2700    0.7600   -0.2420 c3        1 NPP      0.151200
      4 CM1         2.2840    1.7090   -0.9080 c3        1 NPP     -0.085600
      5 CM2         1.3100   -0.5540   -1.0400 c3        1 NPP     -0.085600
      6 C3          1.7770    0.4580    1.1830 c3        1 NPP     -0.122400
      7 C4          1.2590    1.5140    2.1680 c3        1 NPP      0.217500
      8 C5         -0.2720    1.4100    2.2560 c3        1 NPP     -0.122400
      9 C6         -0.9450    1.0260    0.9180 c3        1 NPP      0.151200
     10 CM3        -1.3300   -0.4610    0.9580 c3        1 NPP     -0.085600
     11 CM4        -2.2730    1.8080    0.8430 c3        1 NPP     -0.085600
     12 N2          1.9160    1.3970    3.4560 nu        1 NPP     -0.744600
     13 C7          2.0070    2.4150    4.3610 ca        1 NPP      0.345600
     14 C8          2.6900    2.2660    5.6250 ca        1 NPP     -0.328200
     15 N3          3.2270    0.9810    6.1090 no        1 NPP      0.334200
     16 O2          2.9440   -0.0540    5.5570 o         1 NPP     -0.225500
     17 O3          3.9430    0.9850    7.0770 o         1 NPP     -0.225500
     18 C9          2.8760    3.3790    6.4490 ca        1 NPP      0.074000
     19 C10         2.3900    4.6460    6.1170 ca        1 NPP     -0.326200
     20 N4          2.6920    5.7460    7.0510 no        1 NPP      0.334200
     21 O4          3.1440    5.4760    8.1320 o         1 NPP     -0.225500
     22 O5          2.5080    6.8950    6.7280 o         1 NPP     -0.225500
     23 C11         1.6210    4.8220    4.9090 ca        1 NPP      0.333600
     24 C12         1.4760    3.6940    4.0730 ca        1 NPP     -0.356000
     25 N5          1.0000    6.0040    4.5990 nu        1 NPP     -0.747600
     26 C13         0.2420    6.1940    3.3940 c3        1 NPP      0.199800
     27 C14         1.0950    6.2970    2.1030 c3        1 NPP      0.124800
     28 N6          0.3940    5.7930    0.9470 n8        1 NPP     -0.926800
     29 HM11        3.2660    1.1890   -1.0020 hc        1 NPP      0.045117
     30 HM12        2.4230    2.6340   -0.3000 hc        1 NPP      0.045117
     31 HM13        1.9310    2.0020   -1.9260 hc        1 NPP      0.045117
     32 HM21        1.0970   -0.3550   -2.1180 hc        1 NPP      0.045117
     33 HM22        0.5590   -1.2860   -0.6600 hc        1 NPP      0.045117
     34 HM23        2.3280   -1.0020   -0.9470 hc        1 NPP      0.045117
     35 H31         1.4440   -0.5610    1.5070 hc        1 NPP      0.061200
     36 H32         2.8990    0.4510    1.1690 hc        1 NPP      0.061200
     37 H4          1.5280    2.5290    1.7400 h1        1 NPP      0.063700
     38 H51        -0.5660    0.6480    3.0260 hc        1 NPP      0.061200
     39 H52        -0.6710    2.3990    2.6050 hc        1 NPP      0.061200
     40 HM31       -0.4570   -1.1080    1.2040 hc        1 NPP      0.045117
     41 HM32       -1.7530   -0.7830   -0.0250 hc        1 NPP      0.045117
     42 HM33       -2.1090   -0.6110    1.7450 hc        1 NPP      0.045117
     43 HM41       -2.8460    1.5050   -0.0650 hc        1 NPP      0.045117
     44 HM42       -2.8800    1.5820    1.7510 hc        1 NPP      0.045117
     45 HM43       -2.0900    2.9080    0.7950 hc        1 NPP      0.045117
     46 HN2         2.1690    0.4690    3.7280 hn        1 NPP      0.472800
     47 H9          3.4340    3.2520    7.4060 ha        1 NPP      0.203000
     48 H12         0.9100    3.8210    3.1340 ha        1 NPP      0.165000
     49 HN5         1.2640    6.8330    5.0910 hn        1 NPP      0.471800
     50 H131       -0.3370    7.1540    3.5160 h1        1 NPP      0.066200
     51 H132       -0.5080    5.3560    3.3010 h1        1 NPP      0.066200
     52 H141        2.0350    5.6830    2.2130 h1        1 NPP      0.040700
     53 H142        1.4170    7.3740    1.9900 h1        1 NPP      0.040700
     54 HN61        0.2020    3.1500    0.1340 ho        1 NPP      0.374000
     55 HN62       -0.4810    6.2610    0.8190 hn        1 NPP      0.359300
     56 H63         0.9520    5.9080    0.1240 hn        1 NPP      0.359300
@<TRIPOS>BOND
     1    1    2 1   
     2    1    3 1   
     3    1    9 1   
     4    2   54 1   
     5    3    4 1   
     6    3    5 1   
     7    3    6 1   
     8    4   29 1   
     9    4   30 1   
    10    4   31 1   
    11    5   32 1   
    12    5   33 1   
    13    5   34 1   
    14    6    7 1   
    15    6   35 1   
    16    6   36 1   
    17    7    8 1   
    18    7   12 1   
    19    7   37 1   
    20    8    9 1   
    21    8   38 1   
    22    8   39 1   
    23    9   10 1   
    24    9   11 1   
    25   10   40 1   
    26   10   41 1   
    27   10   42 1   
    28   11   43 1   
    29   11   44 1   
    30   11   45 1   
    31   12   13 1   
    32   12   46 1   
    33   13   14 ar  
    34   13   24 ar  
    35   14   15 1   
    36   14   18 ar  
    37   15   16 1   
    38   15   17 1   
    39   18   19 ar  
    40   18   47 1   
    41   19   20 1   
    42   19   23 ar  
    43   20   21 1   
    44   20   22 1   
    45   23   24 ar  
    46   23   25 1   
    47   24   48 1   
    48   25   26 1   
    49   25   49 1   
    50   26   27 1   
    51   26   50 1   
    52   26   51 1   
    53   27   28 1   
    54   27   52 1   
    55   27   53 1   
    56   28   55 1   
    57   28   56 1   
@<TRIPOS>SUBSTRUCTURE
     1 NPP         1 TEMP              0 ****  ****    0 ROOT
