@<TRIPOS>MOLECULE
NPP
   55    56     1     0     0
SMALL
bcc


@<TRIPOS>ATOM
      1 N1         -0.0800    0.1010   -0.1580 n3        1 NPP     -0.173400
      2 O1         -0.3860    0.3840   -1.3270 o         1 NPP     -0.665000
      3 C2          1.4720   -0.0730   -0.0330 c3        1 NPP      0.054700
      4 CM1         2.2950    0.9630   -0.7960 c3        1 NPP     -0.071850
      5 CM2         1.7920   -1.4370   -0.6700 c3        1 NPP     -0.071850
      6 C3          1.9630   -0.1600    1.4170 c3        1 NPP     -0.063900
      7 C4          1.4950    1.0490    2.2300 c3        1 NPP      0.205500
      8 C5         -0.0350    1.0520    2.2340 c3        1 NPP     -0.063900
      9 C6         -0.5840    1.2190    0.8160 c3        1 NPP      0.054700
     10 CM3        -2.1080    1.0440    0.9200 c3        1 NPP     -0.071850
     11 CM4        -0.3470    2.6460    0.3290 c3        1 NPP     -0.071850
     12 N2          2.0770    1.0560    3.5730 nh        1 NPP     -0.710600
     13 C7          2.1030    2.1470    4.3690 ca        1 NPP      0.348600
     14 C8          2.6960    2.1530    5.6940 ca        1 NPP     -0.344200
     15 N3          3.2710    0.9570    6.3250 no        1 NPP      0.334200
     16 O2          3.2180   -0.1230    5.7880 o         1 NPP     -0.241500
     17 O3          3.7970    1.0700    7.4060 o         1 NPP     -0.241500
     18 C9          2.7440    3.3380    6.4310 ca        1 NPP      0.077000
     19 C10         2.2190    4.5450    5.9600 ca        1 NPP     -0.343200
     20 N4          2.3480    5.7160    6.8340 no        1 NPP      0.336200
     21 O4          2.8660    5.5790    7.9160 o         1 NPP     -0.247500
     22 O5          1.9520    6.8050    6.4900 o         1 NPP     -0.247500
     23 C11         1.5820    4.5800    4.6590 ca        1 NPP      0.336600
     24 C12         1.5610    3.3850    3.9220 ca        1 NPP     -0.363000
     25 N5          1.0070    5.7140    4.1530 nh        1 NPP     -0.759600
     26 C13         0.3570    5.7380    2.8710 c3        1 NPP      0.160800
     27 C14        -0.2630    7.1200    2.5450 c3        1 NPP      0.144800
     28 N6         -0.9350    7.1970    1.2780 n3        1 NPP     -0.903800
     29 HM11        1.7810    1.1880   -1.7640 hc        1 NPP      0.016033
     30 HM12        3.3210    0.5760   -1.0130 hc        1 NPP      0.016033
     31 HM13        2.4070    1.9130   -0.2250 hc        1 NPP      0.016033
     32 HM21        1.2290   -2.2560   -0.1640 hc        1 NPP      0.016033
     33 HM22        2.8850   -1.6560   -0.5880 hc        1 NPP      0.016033
     34 HM23        1.5030   -1.4190   -1.7480 hc        1 NPP      0.016033
     35 H31         3.0840   -0.2170    1.4190 hc        1 NPP      0.026950
     36 H32         1.5700   -1.1000    1.8850 hc        1 NPP      0.026950
     37 H4          1.8720    1.9830    1.7130 h1        1 NPP      0.064700
     38 H51        -0.4060    0.0840    2.6630 hc        1 NPP      0.026950
     39 H52        -0.4270    1.8790    2.8820 hc        1 NPP      0.026950
     40 HM31       -2.5380    1.8130    1.6070 hc        1 NPP      0.016033
     41 HM32       -2.5660    1.1590   -0.0920 hc        1 NPP      0.016033
     42 HM33       -2.3650    0.0330    1.3140 hc        1 NPP      0.016033
     43 HM41        0.7350    2.9120    0.3280 hc        1 NPP      0.016033
     44 HM42       -0.7270    2.7320   -0.7200 hc        1 NPP      0.016033
     45 HM43       -0.8830    3.3840    0.9770 hc        1 NPP      0.016033
     46 HN2         2.3980    0.1740    3.9150 hn        1 NPP      0.466800
     47 H9          3.2180    3.3210    7.4390 ha        1 NPP      0.193000
     48 H12         1.0780    3.3940    2.9280 ha        1 NPP      0.175000
     49 HN5         1.0430    6.5670    4.6650 hn        1 NPP      0.467800
     50 H131        1.1030    5.4700    2.0660 h1        1 NPP      0.055200
     51 H132       -0.4580    4.9540    2.8480 h1        1 NPP      0.055200
     52 H141       -1.0060    7.3880    3.3490 h1        1 NPP      0.056700
     53 H142        0.5520    7.8980    2.5540 h1        1 NPP      0.056700
     54 HN61       -1.7010    6.5530    1.2340 hn        1 NPP      0.355800
     55 HN62       -0.3070    7.0030    0.5220 hn        1 NPP      0.355800
@<TRIPOS>BOND
     1    1    2 1   
     2    1    3 1   
     3    1    9 1   
     4    3    4 1   
     5    3    5 1   
     6    3    6 1   
     7    4   29 1   
     8    4   30 1   
     9    4   31 1   
    10    5   32 1   
    11    5   33 1   
    12    5   34 1   
    13    6    7 1   
    14    6   35 1   
    15    6   36 1   
    16    7    8 1   
    17    7   12 1   
    18    7   37 1   
    19    8    9 1   
    20    8   38 1   
    21    8   39 1   
    22    9   10 1   
    23    9   11 1   
    24   10   40 1   
    25   10   41 1   
    26   10   42 1   
    27   11   43 1   
    28   11   44 1   
    29   11   45 1   
    30   12   13 1   
    31   12   46 1   
    32   13   14 ar  
    33   13   24 ar  
    34   14   15 1   
    35   14   18 ar  
    36   15   16 1   
    37   15   17 1   
    38   18   19 ar  
    39   18   47 1   
    40   19   20 1   
    41   19   23 ar  
    42   20   21 1   
    43   20   22 1   
    44   23   24 ar  
    45   23   25 1   
    46   24   48 1   
    47   25   26 1   
    48   25   49 1   
    49   26   27 1   
    50   26   50 1   
    51   26   51 1   
    52   27   28 1   
    53   27   52 1   
    54   27   53 1   
    55   28   54 1   
    56   28   55 1   
@<TRIPOS>SUBSTRUCTURE
     1 NPP         1 TEMP              0 ****  ****    0 ROOT
