@<TRIPOS>MOLECULE
NPR
   31    32     1     0     0
SMALL
bcc


@<TRIPOS>ATOM
      1 N1          5.0860    0.6330   -0.7640 nh        1 NPR     -0.881800
      2 C2          3.6910    0.5930   -0.4670 cc        1 NPR      0.823100
      3 N3          2.9350    1.6670   -0.6100 nd        1 NPR     -0.716100
      4 C4          1.5290    1.5890   -0.4490 c         1 NPR      0.741700
      5 O5          0.8460    2.6110   -0.6030 o         1 NPR     -0.524100
      6 C6          0.9560    0.2650   -0.0940 cc        1 NPR     -0.143600
      7 N7         -0.4310    0.1350   -0.0090 ne        1 NPR     -0.473300
      8 C8         -0.9250   -0.9960    0.3920 c2        1 NPR      0.312300
      9 C9         -0.0970   -2.1960    0.8070 c3        1 NPR      0.130500
     10 N10         1.3270   -2.0620    0.5730 nh        1 NPR     -0.751000
     11 C11         1.8170   -0.8310    0.1160 cd        1 NPR      0.358000
     12 N12         3.1930   -0.6810   -0.0750 na        1 NPR     -0.739000
     13 C13        -2.4180   -1.2570    0.4450 c3        1 NPR      0.093800
     14 O14        -2.8560   -1.8420   -0.7640 oh        1 NPR     -0.605800
     15 C15        -3.2400   -0.0110    0.8360 c3        1 NPR      0.079100
     16 O16        -4.2400   -0.3880    1.7700 oh        1 NPR     -0.592800
     17 C17        -3.9000    0.6980   -0.3540 c3        1 NPR      0.104400
     18 O18        -3.0150    0.9240   -1.4260 oh        1 NPR     -0.607800
     19 HN11        5.3820    1.5320   -1.0920 hn        1 NPR      0.411800
     20 HN12        5.6590    0.2930   -0.0200 hn        1 NPR      0.411800
     21 H91        -0.4940   -3.1060    0.2680 h1        1 NPR      0.065200
     22 H92        -0.2340   -2.3590    1.9170 h1        1 NPR      0.065200
     23 H10         1.7750   -2.8820    0.2250 hn        1 NPR      0.419800
     24 H12         3.8010   -1.4660   -0.0120 hn        1 NPR      0.454800
     25 H13        -2.6080   -2.0590    1.2220 h1        1 NPR      0.084700
     26 H14        -2.7100   -1.2030   -1.4780 ho        1 NPR      0.436000
     27 H15        -2.5970    0.7130    1.4120 h1        1 NPR      0.099700
     28 H16        -4.8470   -0.9880    1.3160 ho        1 NPR      0.403000
     29 H171       -4.7100    0.0490   -0.7870 h1        1 NPR      0.054700
     30 H172       -4.3480    1.6630    0.0040 h1        1 NPR      0.054700
     31 H18        -2.3110    1.5100   -1.1150 ho        1 NPR      0.433000
@<TRIPOS>BOND
     1    1    2 1   
     2    1   19 1   
     3    1   20 1   
     4    2    3 2   
     5    2   12 1   
     6    3    4 1   
     7    4    5 2   
     8    4    6 1   
     9    6    7 1   
    10    6   11 2   
    11    7    8 2   
    12    8    9 1   
    13    8   13 1   
    14    9   10 1   
    15    9   21 1   
    16    9   22 1   
    17   10   11 1   
    18   10   23 1   
    19   11   12 1   
    20   12   24 1   
    21   13   14 1   
    22   13   15 1   
    23   13   25 1   
    24   14   26 1   
    25   15   16 1   
    26   15   17 1   
    27   15   27 1   
    28   16   28 1   
    29   17   18 1   
    30   17   29 1   
    31   17   30 1   
    32   18   31 1   
@<TRIPOS>SUBSTRUCTURE
     1 NPR         1 TEMP              0 ****  ****    0 ROOT
