@<TRIPOS>MOLECULE
NPR
   32    33     1     0     0
SMALL
bcc


@<TRIPOS>ATOM
      1 N1         -0.2490   -0.0380   -0.1800 n4        1 NPR     -0.815600
      2 C2          1.2470   -0.2550   -0.1400 cc        1 NPR      0.705100
      3 N3          1.6680   -1.1580    0.6920 nd        1 NPR     -0.629100
      4 C4          3.0870   -1.4440    0.7830 c         1 NPR      0.741700
      5 O5          3.4350   -2.2800    1.6110 o         1 NPR     -0.416100
      6 C6          3.9500   -0.6880   -0.1440 cc        1 NPR     -0.091600
      7 N7          5.3180   -0.9930   -0.1380 ne        1 NPR     -0.495300
      8 C8          6.1070   -0.2840   -0.8860 c2        1 NPR      0.387300
      9 C9          5.6680    0.8930   -1.7360 c3        1 NPR      0.116500
     10 N10         4.2340    1.1330   -1.7380 nh        1 NPR     -0.737000
     11 C11         3.4120    0.2990   -0.9910 cd        1 NPR      0.345000
     12 N12         2.0050    0.4890   -1.0630 na        1 NPR     -0.726000
     13 C13         7.6030   -0.5460   -0.9520 c3        1 NPR      0.115800
     14 O14         7.9220   -1.9160   -0.9470 oh        1 NPR     -0.570800
     15 C15         8.3000    0.1980    0.2070 c3        1 NPR      0.113100
     16 O16         8.0130    1.5780    0.0390 oh        1 NPR     -0.622800
     17 C17         9.8100   -0.0590    0.1550 c3        1 NPR      0.096400
     18 O18        10.3600    0.6850    1.2290 oh        1 NPR     -0.613800
     19 HN11       -0.4690    0.9310    0.0700 hn        1 NPR      0.482467
     20 HN12       -0.6060   -0.2500   -1.1180 hn        1 NPR      0.482467
     21 H91         6.1660    1.8260   -1.3260 h1        1 NPR      0.095700
     22 H92         6.0250    0.7330   -2.7960 h1        1 NPR      0.095700
     23 H10         3.8710    1.5280   -2.5800 hn        1 NPR      0.438800
     24 H12         1.6460    1.3240   -1.4740 hn        1 NPR      0.461800
     25 H13         7.9980   -0.1700   -1.9410 h1        1 NPR      0.100700
     26 H14         7.6500   -2.2940   -0.0980 ho        1 NPR      0.427000
     27 H15         7.8910   -0.1500    1.1960 h1        1 NPR      0.067700
     28 H16         8.6030    2.0590    0.6370 ho        1 NPR      0.442000
     29 H171       10.0150   -1.1550    0.2780 h1        1 NPR      0.049700
     30 H172       10.2350    0.2990   -0.8200 h1        1 NPR      0.049700
     31 H18        11.3090    0.5100    1.2360 ho        1 NPR      0.423000
     32 H131       -0.6960   -0.6730    0.5020 hn        1 NPR      0.482467
@<TRIPOS>BOND
     1    1    2 1   
     2    1   19 1   
     3    1   20 1   
     4    1   32 1   
     5    2    3 2   
     6    2   12 1   
     7    3    4 1   
     8    4    5 2   
     9    4    6 1   
    10    6    7 1   
    11    6   11 2   
    12    7    8 2   
    13    8    9 1   
    14    8   13 1   
    15    9   10 1   
    16    9   21 1   
    17    9   22 1   
    18   10   11 1   
    19   10   23 1   
    20   11   12 1   
    21   12   24 1   
    22   13   14 1   
    23   13   15 1   
    24   13   25 1   
    25   14   26 1   
    26   15   16 1   
    27   15   17 1   
    28   15   27 1   
    29   16   28 1   
    30   17   18 1   
    31   17   29 1   
    32   17   30 1   
    33   18   31 1   
@<TRIPOS>SUBSTRUCTURE
     1 NPR         1 TEMP              0 ****  ****    0 ROOT
