@<TRIPOS>MOLECULE
NPR
   31    32     1     0     0
SMALL
bcc


@<TRIPOS>ATOM
      1 N1         -0.1240   -0.2520   -0.1560 nv        1 NPR     -0.881800
      2 C2          1.2410    0.1390   -0.0260 cc        1 NPR      0.817100
      3 N3          1.6830    0.7020    1.0830 nd        1 NPR     -0.713100
      4 C4          3.0660    0.9590    1.2650 c         1 NPR      0.740700
      5 O5          3.4440    1.4720    2.3270 o         1 NPR     -0.512100
      6 C6          3.9810    0.5980    0.1520 cc        1 NPR     -0.153600
      7 N7          5.3460    0.8480    0.2960 ne        1 NPR     -0.461300
      8 C8          6.1410    0.5370   -0.6840 c2        1 NPR      0.289300
      9 C9          5.6980   -0.0920   -1.9900 c3        1 NPR      0.146500
     10 N10         4.2990   -0.4620   -2.0190 nu        1 NPR     -0.762000
     11 C11         3.4510    0.0030   -1.0130 cd        1 NPR      0.368000
     12 N12         2.0670   -0.1550   -1.1550 na        1 NPR     -0.739000
     13 C13         7.6370    0.7690   -0.5730 c3        1 NPR      0.079800
     14 O14         8.2100    0.8710   -1.8670 oh        1 NPR     -0.594800
     15 C15         8.3000   -0.4280    0.1420 c3        1 NPR      0.112100
     16 O16         8.2430   -0.2460    1.5470 oh        1 NPR     -0.607800
     17 C17         9.7910   -0.5300   -0.2020 c3        1 NPR      0.145400
     18 O18        10.3740   -1.6500    0.4250 oh        1 NPR     -0.600800
     19 HN11       -0.6640   -0.0380    0.6600 hn        1 NPR      0.411800
     20 HN12       -0.5550    0.0810   -0.9930 hn        1 NPR      0.411800
     21 H91         6.3010   -1.0320   -2.1660 h1        1 NPR      0.059700
     22 H92         5.9330    0.6260   -2.8310 h1        1 NPR      0.059700
     23 H10         3.9210   -0.6320   -2.9240 hn        1 NPR      0.429800
     24 H12         1.7130   -0.7480   -1.8740 hn        1 NPR      0.449800
     25 H13         7.8470    1.7060    0.0190 h1        1 NPR      0.080700
     26 H14         7.9790    1.7450   -2.2040 ho        1 NPR      0.409000
     27 H15         7.7770   -1.3820   -0.1430 h1        1 NPR      0.053700
     28 H16         7.3140   -0.1680    1.7990 ho        1 NPR      0.428000
     29 H171       10.3150    0.4120    0.1080 h1        1 NPR      0.059700
     30 H172        9.9180   -0.7000   -1.3030 h1        1 NPR      0.059700
     31 H18        10.2250   -1.5540    1.3750 ho        1 NPR      0.415000
@<TRIPOS>BOND
     1    1    2 1   
     2    1   19 1   
     3    1   20 1   
     4    2    3 2   
     5    2   12 1   
     6    3    4 1   
     7    4    5 2   
     8    4    6 1   
     9    6    7 1   
    10    6   11 2   
    11    7    8 2   
    12    8    9 1   
    13    8   13 1   
    14    9   10 1   
    15    9   21 1   
    16    9   22 1   
    17   10   11 1   
    18   10   23 1   
    19   11   12 1   
    20   12   24 1   
    21   13   14 1   
    22   13   15 1   
    23   13   25 1   
    24   14   26 1   
    25   15   16 1   
    26   15   17 1   
    27   15   27 1   
    28   16   28 1   
    29   17   18 1   
    30   17   29 1   
    31   17   30 1   
    32   18   31 1   
@<TRIPOS>SUBSTRUCTURE
     1 NPR         1 TEMP              0 ****  ****    0 ROOT
