@<TRIPOS>MOLECULE
NPR
   31    30     1     0     0
SMALL
bcc


@<TRIPOS>ATOM
      1 N1         -5.6810    0.0520    0.9020 n3        1 NPR     -0.320000
      2 C2         -4.2740   -0.0760    0.9330 c2        1 NPR      0.229000
      3 N3         -3.6150   -0.0560    2.1230 n2        1 NPR     -0.292000
      4 C4         -2.3020   -0.1470    2.1500 c1        1 NPR      0.340000
      5 O5         -1.7280   -0.2950    3.2110 o         1 NPR     -0.280000
      6 C6         -1.5840   -0.2660    0.9470 c1        1 NPR     -0.247000
      7 N7         -0.1610   -0.1700    0.9640 n2        1 NPR     -0.051000
      8 C8          0.5690   -0.2830   -0.2470 c1        1 NPR     -0.117000
      9 C9         -0.1470   -0.1860   -1.5550 c2        1 NPR     -0.045000
     10 N10        -1.4980   -0.5170   -1.4820 n3        1 NPR     -0.291000
     11 C11        -2.2410   -0.2860   -0.2310 c2        1 NPR      0.170000
     12 N12        -3.5670   -0.1930   -0.2530 n3        1 NPR     -0.295000
     13 C13         2.0710   -0.6090   -0.2130 c3        1 NPR      0.089000
     14 O14         2.3700   -1.4260    0.9640 oh        1 NPR     -0.314000
     15 C15         2.8140    0.6040   -0.1520 c3        1 NPR      0.000000
     16 O16         2.5180    1.4130   -1.3240 oh        1 NPR     -0.344000
     17 C17         4.2930    0.2820   -0.1200 c3        1 NPR     -0.055000
     18 O18         5.0760    1.5460   -0.1180 oh        1 NPR     -0.344000
     19 HN11       -6.1730    0.1870    1.7280 hn        1 NPR      0.205000
     20 HN12       -6.1430   -0.0970    0.1050 hn        1 NPR      0.205000
     21 H91         0.0360    0.7190   -1.9290 h4        1 NPR      0.116000
     22 H92         0.2730   -0.8060   -2.2450 h4        1 NPR      0.116000
     23 H10        -1.9000   -0.1730   -2.1080 hn        1 NPR      0.206000
     24 H12        -3.9910   -0.1350   -1.0240 hn        1 NPR      0.250000
     25 H13         2.3350   -1.1350   -1.0810 h1        1 NPR      0.129000
     26 H14         2.7340   -2.1930    0.7100 ho        1 NPR      0.227000
     27 H15         2.5680    1.0970    0.6510 h1        1 NPR      0.105000
     28 H16         2.3430    2.2620   -1.0670 ho        1 NPR      0.227000
     29 H171        4.5250   -0.2390   -0.8980 h1        1 NPR      0.085000
     30 H172        4.5000   -0.2320    0.6910 h1        1 NPR      0.085000
     31 H18         5.9790    1.3550   -0.0300 ho        1 NPR      0.211000
@<TRIPOS>BOND
     1    1    2 1   
     2    1   19 1   
     3    1   20 1   
     4    2    3 1   
     5    2   12 1   
     6    3    4 1   
     7    4    5 1   
     8    6    7 1   
     9    6   11 1   
    10    7    8 1   
    11    8   13 1   
    12    9   10 1   
    13    9   21 1   
    14    9   22 1   
    15   10   11 1   
    16   10   23 1   
    17   11   12 1   
    18   12   24 1   
    19   13   14 1   
    20   13   15 1   
    21   13   25 1   
    22   14   26 1   
    23   15   16 1   
    24   15   17 1   
    25   15   27 1   
    26   16   28 1   
    27   17   18 1   
    28   17   29 1   
    29   17   30 1   
    30   18   31 1   
@<TRIPOS>SUBSTRUCTURE
     1 NPR         1 TEMP              0 ****  ****    0 ROOT
