@<TRIPOS>MOLECULE
NPS
   30    27     1     0     0
SMALL
bcc


@<TRIPOS>ATOM
      1 C1         -1.0000   -0.2210   -2.9600 c1        1 NPS      0.021000
      2 O2         -1.8880   -0.5510   -4.0320 os        1 NPS     -0.233000
      3 C2          0.3920   -0.2420   -2.9600 c1        1 NPS     -0.133500
      4 C14         0.8870    0.0130    3.3800 c3        1 NPS     -0.165000
      5 C3          1.0850   -0.2190   -1.7620 c1        1 NPS     -0.133500
      6 C4          0.3740   -0.1750   -0.5180 c1        1 NPS     -0.043000
      7 C5         -1.0140   -0.1540   -0.5090 c1        1 NPS     -0.041000
      8 C6         -1.7170   -0.1770   -1.7180 c2        1 NPS     -0.129000
      9 C7          1.0990   -0.1110    0.7070 c1        1 NPS     -0.115000
     10 C8          0.4050   -0.0280    1.9360 c2        1 NPS     -0.013000
     11 C10         1.6940    1.2590    3.5960 c3        1 NPS     -0.180000
     12 C13        -1.7330   -0.0680    0.7550 c1        1 NPS     -0.153000
     13 C11        -1.0270   -0.0070    1.9490 c2        1 NPS     -0.114000
     14 C12        -1.8630    0.3450   -5.0710 c3        1 NPS     -0.068000
     15 OXT         2.8550   -1.4060    3.0760 o         1 NPS     -0.569500
     16 O           1.4180   -2.0700    4.5740 o         1 NPS     -0.569500
     17 C15         1.7700   -1.2480    3.6770 c2        1 NPS      0.342000
     18 H14         0.0860    0.0200    4.0030 hc        1 NPS      0.085000
     19 H101        1.2960    2.0140    3.0440 hc        1 NPS      0.060667
     20 H102        1.6750    1.4990    4.5310 hc        1 NPS      0.060667
     21 H103        2.6420    1.1000    3.3120 hc        1 NPS      0.060667
     22 H7          2.0510   -0.2100    0.7010 ha        1 NPS      0.192000
     23 H11        -1.5040    0.0350    2.7910 ha        1 NPS      0.124000
     24 H3          2.0840   -0.2330   -1.7660 ha        1 NPS      0.131000
     25 H2          0.8930   -0.3500   -3.8260 ha        1 NPS      0.131000
     26 H13        -2.7370   -0.2200    0.7740 ha        1 NPS      0.113000
     27 H6         -2.6700   -0.2750   -1.7140 ha        1 NPS      0.131000
     28 H121       -1.6360    1.2490   -4.7230 h1        1 NPS      0.069000
     29 H122       -1.1700    0.0590   -5.7430 h1        1 NPS      0.069000
     30 H123       -2.7470    0.3720   -5.5030 h1        1 NPS      0.069000
@<TRIPOS>BOND
     1    1    2 1   
     2    1    8 1   
     3    2   14 1   
     4    3    5 1   
     5    3   25 1   
     6    4   10 1   
     7    4   11 1   
     8    4   17 1   
     9    4   18 1   
    10    5   24 1   
    11    6    7 1   
    12    7    8 1   
    13    8   27 1   
    14    9   10 1   
    15    9   22 1   
    16   10   13 1   
    17   11   19 1   
    18   11   20 1   
    19   11   21 1   
    20   12   13 1   
    21   12   26 1   
    22   13   23 1   
    23   14   28 1   
    24   14   29 1   
    25   14   30 1   
    26   15   17 1   
    27   16   17 1   
@<TRIPOS>SUBSTRUCTURE
     1 NPS         1 TEMP              0 ****  ****    0 ROOT
