@<TRIPOS>MOLECULE
NPS
   30    38     1     0     0
SMALL
bcc


@<TRIPOS>ATOM
      1 C1          0.0000    0.0000    0.0000 c2        1 NPS      0.359000
      2 O2         -0.7290    0.0050   -1.1320 os        1 NPS      0.551000
      3 C2          1.3690    0.0000    0.0000 c2        1 NPS     -0.314000
      4 C14         1.7780    0.0390    6.1590 DU        1 NPS     -0.577000
      5 C3          2.0590    0.0000    1.1940 c3        1 NPS     -0.153000
      6 C4          1.3870    0.0020    2.4000 c3        1 NPS     -0.349000
      7 C5         -0.0690    0.0070    2.3610 c3        1 NPS      0.085000
      8 C6         -0.7060    0.0010    1.1670 c2        1 NPS     -0.041000
      9 C7          2.0050    0.0070    3.6360 c2        1 NPS     -0.221000
     10 C8          1.2280   -0.0020    4.7850 c3        1 NPS     -0.217000
     11 C10         2.7540    1.1830    6.2920 c3        1 NPS     -0.660000
     12 C13        -0.7970    0.0070    3.5060 c2        1 NPS     -0.089000
     13 C11        -0.1370    0.0140    4.7000 c2        1 NPS     -0.370000
     14 C12        -0.1100    0.1020   -2.3710 c3        1 NPS      0.369000
     15 C15         2.3880   -1.1710    6.7560 c3        1 NPS      0.440000
     16 H14         2.1940   -0.5180    6.9900 DU        1 NPS      0.368000
     17 H101        2.6960    0.1040    6.2130 DU        1 NPS      0.236500
     18 H102        1.8110    0.7190    6.5560 DU        1 NPS      0.236500
     19 H103        2.2680    2.1070    6.0030 hc        1 NPS      0.117000
     20 H7          2.6360    0.3990    4.4240 ha        1 NPS      0.258000
     21 H11         0.6680    0.3240    5.3550 DU        1 NPS      0.394000
     22 H3          2.4670   -0.0520    2.1960 DU        1 NPS      0.329000
     23 H2          0.9920    0.0060    1.0150 DU        1 NPS      0.209000
     24 H13         0.1370    0.0050    2.9570 DU        1 NPS      0.072000
     25 H6          0.1380    0.0000    0.4880 ha        1 NPS     -0.232000
     26 H121       -0.4190    0.0460   -1.3340 h1        1 NPS     -0.288000
     27 H122       -0.5340    0.2040   -1.3790 h1        1 NPS     -0.288000
     28 H123       -0.1960   -0.8390   -2.9020 h1        1 NPS     -0.288000
     29 OXT         3.6060   -1.2860    6.7600 o         1 NPS     -0.468500
     30 O           1.6680   -2.0030    7.2740 o         1 NPS     -0.468500
@<TRIPOS>BOND
     1    1    2 1   
     2    1    3 1   
     3    1    8 1   
     4    2   14 1   
     5    3    5 1   
     6    3   23 1   
     7    4   10 1   
     8    4   11 1   
     9    4   15 1   
    10    4   16 1   
    11    4   17 1   
    12    4   18 1   
    13    5    6 1   
    14    5   22 1   
    15    5   23 1   
    16    6    7 1   
    17    6    9 1   
    18    6   22 1   
    19    7    8 1   
    20    7   12 1   
    21    7   24 1   
    22    8   25 1   
    23    9   10 1   
    24    9   20 1   
    25   10   13 1   
    26   10   21 1   
    27   11   17 1   
    28   11   18 1   
    29   11   19 1   
    30   12   13 1   
    31   12   24 1   
    32   13   21 1   
    33   14   26 1   
    34   14   27 1   
    35   14   28 1   
    36   15   16 1   
    37   15   29 1   
    38   15   30 1   
@<TRIPOS>SUBSTRUCTURE
     1 NPS         1 TEMP              0 ****  ****    0 ROOT
