@<TRIPOS>MOLECULE
NPS
   30    31     1     0     0
SMALL
bcc


@<TRIPOS>ATOM
      1 C1         15.2510   -5.2670   27.7680 ca        1 NPS      0.088100
      2 O2         15.9740   -6.4150   27.4620 os        1 NPS     -0.342900
      3 C2         15.5760   -3.9860   27.2470 ca        1 NPS     -0.203000
      4 C14        10.8350   -0.9450   29.8750 c3        1 NPS     -0.166400
      5 C3         14.7870   -2.9090   27.5650 ca        1 NPS     -0.076000
      6 C4         13.6470   -3.0540   28.4020 ca        1 NPS     -0.057000
      7 C5         13.3330   -4.3390   28.9200 ca        1 NPS     -0.025000
      8 C6         14.1560   -5.4480   28.5920 ca        1 NPS     -0.151000
      9 C7         12.8240   -1.9460   28.7290 ca        1 NPS     -0.110000
     10 C8         11.7190   -2.0980   29.5450 ca        1 NPS     -0.027300
     11 C10         9.9360   -0.6050   28.7050 c3        1 NPS     -0.062100
     12 C13        12.2020   -4.4740   29.7670 ca        1 NPS     -0.159000
     13 C11        11.4220   -3.3850   30.0710 ca        1 NPS     -0.108000
     14 C12        17.2880   -6.1980   26.9700 c3        1 NPS      0.120700
     15 C15        11.6510    0.3260   30.2670 c         1 NPS      0.922600
     16 H14        10.1970   -1.2130   30.7620 hc        1 NPS      0.044700
     17 H101        9.2250    0.2030   29.0020 hc        1 NPS      0.021033
     18 H102       10.5540   -0.2340   27.8510 hc        1 NPS      0.021033
     19 H103        9.3500   -1.4950   28.3720 hc        1 NPS      0.021033
     20 H7         13.0760   -0.9340   28.3550 ha        1 NPS      0.191000
     21 H11        10.5530   -3.4940   30.7370 ha        1 NPS      0.123000
     22 H3         15.0240   -1.9060   27.1770 ha        1 NPS      0.137000
     23 H2         16.4520   -3.8630   26.5960 ha        1 NPS      0.122000
     24 H13        11.9670   -5.4670   30.1780 ha        1 NPS      0.113000
     25 H6         13.9160   -6.4430   28.9890 ha        1 NPS      0.133000
     26 H121       17.2510   -5.8090   25.9220 h1        1 NPS      0.033033
     27 H122       17.8560   -5.4940   27.6240 h1        1 NPS      0.033033
     28 H123       17.7530   -7.2160   26.9890 h1        1 NPS      0.033033
     29 OXT        12.3670    0.8790   29.3850 o         1 NPS     -0.835800
     30 O          11.5220    0.7430   31.4500 o         1 NPS     -0.835800
@<TRIPOS>BOND
     1    1    2 1   
     2    1    3 ar  
     3    1    8 ar  
     4    2   14 1   
     5    3    5 ar  
     6    3   23 1   
     7    4   10 1   
     8    4   11 1   
     9    4   15 1   
    10    4   16 1   
    11    5    6 ar  
    12    5   22 1   
    13    6    7 ar  
    14    6    9 ar  
    15    7    8 ar  
    16    7   12 ar  
    17    8   25 1   
    18    9   10 ar  
    19    9   20 1   
    20   10   13 ar  
    21   11   17 1   
    22   11   18 1   
    23   11   19 1   
    24   12   13 ar  
    25   12   24 1   
    26   13   21 1   
    27   14   26 1   
    28   14   27 1   
    29   14   28 1   
    30   15   29 1   
    31   15   30 1   
@<TRIPOS>SUBSTRUCTURE
     1 NPS         1 TEMP              0 ****  ****    0 ROOT
