@<TRIPOS>MOLECULE
NPT
   20    19     1     0     0
SMALL
bcc


@<TRIPOS>ATOM
      1 N          -0.0480   -0.0040   -0.0620 nz        1 NPT     -0.836600
      2 C1          1.4410   -0.0040    0.0250 c3        1 NPT      0.098800
      3 C2          1.9650    0.0010    1.4730 c3        1 NPT     -0.071000
      4 C3          3.4870   -0.0020    1.3770 c3        1 NPT     -0.110100
      5 C4          1.5000   -1.2420    2.2120 c3        1 NPT     -0.110100
      6 C5          1.5030    1.2520    2.2020 c3        1 NPT     -0.110100
      7 HN1        -0.4220   -0.8340    0.4110 hn        1 NPT      0.461467
      8 HN2        -0.3470   -0.0070   -1.0410 hn        1 NPT      0.461467
      9 H11         1.8140   -0.9260   -0.5080 hx        1 NPT      0.111700
     10 H12         1.8160    0.9120   -0.5160 hx        1 NPT      0.111700
     11 H31         3.8490    0.9050    0.8350 hc        1 NPT      0.058922
     12 H32         3.9260    0.0030    2.4050 hc        1 NPT      0.058922
     13 H33         3.8460   -0.9140    0.8440 hc        1 NPT      0.058922
     14 H41         2.0400   -1.3200    3.1890 hc        1 NPT      0.058922
     15 H42         0.4060   -1.2030    2.4360 hc        1 NPT      0.058922
     16 H43         1.7220   -2.1630    1.6210 hc        1 NPT      0.058922
     17 H51         0.4090    1.2180    2.4250 hc        1 NPT      0.058922
     18 H52         2.0420    1.3350    3.1790 hc        1 NPT      0.058922
     19 H53         1.7290    2.1670    1.6030 hc        1 NPT      0.058922
     20 HN3        -0.4210    0.8310    0.4040 hn        1 NPT      0.461467
@<TRIPOS>BOND
     1    1    2 1   
     2    1    7 1   
     3    1    8 1   
     4    1   20 1   
     5    2    3 1   
     6    2    9 1   
     7    2   10 1   
     8    3    4 1   
     9    3    5 1   
    10    3    6 1   
    11    4   11 1   
    12    4   12 1   
    13    4   13 1   
    14    5   14 1   
    15    5   15 1   
    16    5   16 1   
    17    6   17 1   
    18    6   18 1   
    19    6   19 1   
@<TRIPOS>SUBSTRUCTURE
     1 NPT         1 TEMP              0 ****  ****    0 ROOT
