@<TRIPOS>MOLECULE
NPT
   19    18     1     0     0
SMALL
bcc


@<TRIPOS>ATOM
      1 N           0.1270   -0.0680   -2.0840 n3        1 NPT     -0.915800
      2 C1          0.5560   -0.6520   -0.8370 c3        1 NPT      0.165800
      3 C2         -0.0220    0.0210    0.4260 c3        1 NPT     -0.056000
      4 C3          0.5470   -0.7110    1.6350 c3        1 NPT     -0.085767
      5 C4         -1.5380   -0.0890    0.4440 c3        1 NPT     -0.085767
      6 C5          0.3900    1.4820    0.4840 c3        1 NPT     -0.085767
      7 HN1        -0.8680    0.0330   -2.1140 hn        1 NPT      0.347800
      8 HN2         0.4230   -0.6390   -2.8510 hn        1 NPT      0.347800
      9 H11         1.6800   -0.5610   -0.7980 h1        1 NPT      0.024200
     10 H12         0.3070   -1.7540   -0.7720 h1        1 NPT      0.024200
     11 H31         0.1810   -0.2370    2.5770 hc        1 NPT      0.035478
     12 H32         0.2280   -1.7810    1.6290 hc        1 NPT      0.035478
     13 H33         1.6620   -0.6690    1.6250 hc        1 NPT      0.035478
     14 H41        -1.8560   -1.1390    0.2360 hc        1 NPT      0.035478
     15 H42        -1.9310    0.2080    1.4470 hc        1 NPT      0.035478
     16 H43        -1.9980    0.5840   -0.3190 hc        1 NPT      0.035478
     17 H51         1.5020    1.5700    0.4470 hc        1 NPT      0.035478
     18 H52        -0.0400    2.0490   -0.3760 hc        1 NPT      0.035478
     19 H53         0.0250    1.9450    1.4330 hc        1 NPT      0.035478
@<TRIPOS>BOND
     1    1    2 1   
     2    1    7 1   
     3    1    8 1   
     4    2    3 1   
     5    2    9 1   
     6    2   10 1   
     7    3    4 1   
     8    3    5 1   
     9    3    6 1   
    10    4   11 1   
    11    4   12 1   
    12    4   13 1   
    13    5   14 1   
    14    5   15 1   
    15    5   16 1   
    16    6   17 1   
    17    6   18 1   
    18    6   19 1   
@<TRIPOS>SUBSTRUCTURE
     1 NPT         1 TEMP              0 ****  ****    0 ROOT
