@<TRIPOS>MOLECULE
NPT
   19    18     1     0     0
SMALL
bcc


@<TRIPOS>ATOM
      1 N          -1.6710    0.0000   -1.2310 n3        1 NPT     -0.915800
      2 C1         -0.2450    0.0000   -1.2310 c3        1 NPT      0.165800
      3 C2          0.2590    0.0000    0.1950 c3        1 NPT     -0.056000
      4 C3         -0.2460   -1.2350    0.9090 c3        1 NPT     -0.085767
      5 C4          1.7720   -0.0000    0.1950 c3        1 NPT     -0.085767
      6 C5         -0.2450    1.2350    0.9090 c3        1 NPT     -0.085767
      7 HN1        -1.9750    0.7450   -1.6610 hn        1 NPT      0.347800
      8 HN2        -1.9750   -0.7450   -1.6610 hn        1 NPT      0.347800
      9 H11         0.0800    0.7970   -1.6910 h1        1 NPT      0.024200
     10 H12         0.0800   -0.7970   -1.6910 h1        1 NPT      0.024200
     11 H31        -0.0090   -2.0290    0.3910 hc        1 NPT      0.035478
     12 H32         0.1630   -1.2900    1.7930 hc        1 NPT      0.035478
     13 H33        -1.2160   -1.1840    1.0010 hc        1 NPT      0.035478
     14 H41         2.0970    0.7970   -0.2650 hc        1 NPT      0.035478
     15 H42         2.0970   -0.7970   -0.2650 hc        1 NPT      0.035478
     16 H43         2.0970   -0.0000    1.1160 hc        1 NPT      0.035478
     17 H51         0.1630    1.2900    1.7930 hc        1 NPT      0.035478
     18 H52        -1.2160    1.1840    1.0010 hc        1 NPT      0.035478
     19 H53        -0.0090    2.0290    0.3910 hc        1 NPT      0.035478
@<TRIPOS>BOND
     1    1    2 1   
     2    1    7 1   
     3    1    8 1   
     4    2    3 1   
     5    2    9 1   
     6    2   10 1   
     7    3    4 1   
     8    3    5 1   
     9    3    6 1   
    10    4   11 1   
    11    4   12 1   
    12    4   13 1   
    13    5   14 1   
    14    5   15 1   
    15    5   16 1   
    16    6   17 1   
    17    6   18 1   
    18    6   19 1   
@<TRIPOS>SUBSTRUCTURE
     1 NPT         1 TEMP              0 ****  ****    0 ROOT
