@<TRIPOS>MOLECULE
NPT
   20    19     1     0     0
SMALL
bcc


@<TRIPOS>ATOM
      1 N          -0.0460   -0.0010   -0.0640 n4        1 NPT     -0.836600
      2 C1          1.4420   -0.0020    0.0240 c3        1 NPT      0.098800
      3 C2          1.9640    0.0010    1.4740 c3        1 NPT     -0.071000
      4 C3          3.4860   -0.0010    1.3790 c3        1 NPT     -0.110100
      5 C4          1.4990   -1.2450    2.2090 c3        1 NPT     -0.110100
      6 C5          1.5010    1.2490    2.2050 c3        1 NPT     -0.110100
      7 HN1        -0.4210   -0.8330    0.4070 hn        1 NPT      0.461467
      8 HN2        -0.3440   -0.0030   -1.0430 hn        1 NPT      0.461467
      9 H11         1.8170   -0.9220   -0.5110 hx        1 NPT      0.111700
     10 H12         1.8180    0.9170   -0.5130 hx        1 NPT      0.111700
     11 H31         3.8490    0.9070    0.8410 hc        1 NPT      0.058922
     12 H32         3.9240    0.0010    2.4080 hc        1 NPT      0.058922
     13 H33         3.8470   -0.9120    0.8440 hc        1 NPT      0.058922
     14 H41         0.4050   -1.2070    2.4310 hc        1 NPT      0.058922
     15 H42         2.0380   -1.3240    3.1870 hc        1 NPT      0.058922
     16 H43         1.7230   -2.1640    1.6160 hc        1 NPT      0.058922
     17 H51         1.7280    2.1660    1.6090 hc        1 NPT      0.058922
     18 H52         0.4070    1.2140    2.4270 hc        1 NPT      0.058922
     19 H53         2.0390    1.3300    3.1830 hc        1 NPT      0.058922
     20 HN3        -0.4200    0.8330    0.4040 hn        1 NPT      0.461467
@<TRIPOS>BOND
     1    1    2 1   
     2    1    7 1   
     3    1    8 1   
     4    1   20 1   
     5    2    3 1   
     6    2    9 1   
     7    2   10 1   
     8    3    4 1   
     9    3    5 1   
    10    3    6 1   
    11    4   11 1   
    12    4   12 1   
    13    4   13 1   
    14    5   14 1   
    15    5   15 1   
    16    5   16 1   
    17    6   17 1   
    18    6   18 1   
    19    6   19 1   
@<TRIPOS>SUBSTRUCTURE
     1 NPT         1 TEMP              0 ****  ****    0 ROOT
