@<TRIPOS>MOLECULE
NPT
   20    19     1     0     0
SMALL
bcc


@<TRIPOS>ATOM
      1 N          -0.0400    0.0010   -0.0720 n4        1 NPT     -0.836600
      2 C1          1.4480   -0.0000    0.0240 c3        1 NPT      0.098800
      3 C2          1.9630    0.0000    1.4760 c3        1 NPT     -0.071000
      4 C3          3.4860   -0.0010    1.3890 c3        1 NPT     -0.110100
      5 C4          1.4940   -1.2460    2.2070 c3        1 NPT     -0.110100
      6 C5          1.4960    1.2480    2.2060 c3        1 NPT     -0.110100
      7 HN1        -0.4170   -0.8320    0.3950 hn        1 NPT      0.461467
      8 HN2        -0.3330    0.0000   -1.0530 hn        1 NPT      0.461467
      9 H11         1.8260   -0.9200   -0.5100 hx        1 NPT      0.111700
     10 H12         1.8270    0.9190   -0.5110 hx        1 NPT      0.111700
     11 H31         3.8500    0.9080    0.8530 hc        1 NPT      0.058922
     12 H32         3.9180   -0.0010    2.4200 hc        1 NPT      0.058922
     13 H33         3.8490   -0.9110    0.8540 hc        1 NPT      0.058922
     14 H41         2.0280   -1.3270    3.1870 hc        1 NPT      0.058922
     15 H42         0.3990   -1.2090    2.4240 hc        1 NPT      0.058922
     16 H43         1.7220   -2.1650    1.6140 hc        1 NPT      0.058922
     17 H51         0.4010    1.2120    2.4230 hc        1 NPT      0.058922
     18 H52         2.0290    1.3280    3.1860 hc        1 NPT      0.058922
     19 H53         1.7240    2.1660    1.6120 hc        1 NPT      0.058922
     20 HN3        -0.4160    0.8340    0.3950 hn        1 NPT      0.461467
@<TRIPOS>BOND
     1    1    2 1   
     2    1    7 1   
     3    1    8 1   
     4    1   20 1   
     5    2    3 1   
     6    2    9 1   
     7    2   10 1   
     8    3    4 1   
     9    3    5 1   
    10    3    6 1   
    11    4   11 1   
    12    4   12 1   
    13    4   13 1   
    14    5   14 1   
    15    5   15 1   
    16    5   16 1   
    17    6   17 1   
    18    6   18 1   
    19    6   19 1   
@<TRIPOS>SUBSTRUCTURE
     1 NPT         1 TEMP              0 ****  ****    0 ROOT
