@<TRIPOS>MOLECULE
NPU
   24    24     1     0     0
SMALL
bcc


@<TRIPOS>ATOM
      1 O1         -1.4240    0.5800    1.6450 oh        1 NPU     -0.595800
      2 C2         -3.2040   -0.7990   -0.5200 c3        1 NPU     -0.133100
      3 N2         -2.0270    1.3610   -1.0180 n3        1 NPU     -0.905800
      4 CA2        -1.8830   -0.0460   -0.6930 c3        1 NPU      0.134500
      5 CB2        -1.0250   -0.2740    0.5860 c3        1 NPU      0.194400
      6 CD3         1.2280   -1.3350    0.3240 ca        1 NPU     -0.113000
      7 CD4         1.0400    1.0460   -0.0400 ca        1 NPU     -0.113000
      8 CE3         2.5920   -1.2700    0.0460 ca        1 NPU     -0.132500
      9 CE4         2.4060    1.1080   -0.3160 ca        1 NPU     -0.132500
     10 CG2         0.4420   -0.1770    0.2820 ca        1 NPU     -0.116300
     11 CZ2         3.1840   -0.0490   -0.2730 ca        1 NPU     -0.125000
     12 HO1        -1.0130    1.4420    1.5040 ho        1 NPU      0.407000
     13 H2         -3.8710   -0.6380   -1.4010 hc        1 NPU      0.041033
     14 H2A        -3.0070   -1.8930   -0.4260 hc        1 NPU      0.041033
     15 H2B        -3.7310   -0.4520    0.4010 hc        1 NPU      0.041033
     16 HN2        -2.5390    1.4610   -1.8730 hn        1 NPU      0.348800
     17 HN2A       -2.5250    1.8340   -0.2870 hn        1 NPU      0.348800
     18 HA2        -1.3200   -0.5200   -1.5530 h1        1 NPU      0.065700
     19 HB2        -1.2640   -1.3070    0.9810 h1        1 NPU      0.074700
     20 HD3         0.7690   -2.3020    0.5820 ha        1 NPU      0.137000
     21 HD4         0.4310    1.9610   -0.0930 ha        1 NPU      0.137000
     22 HE3         3.2020   -2.1850    0.0820 ha        1 NPU      0.131500
     23 HE4         2.8680    2.0730   -0.5700 ha        1 NPU      0.131500
     24 HZ2         4.2600    0.0030   -0.4910 ha        1 NPU      0.131000
@<TRIPOS>BOND
     1    1    5 1   
     2    1   12 1   
     3    2    4 1   
     4    2   13 1   
     5    2   14 1   
     6    2   15 1   
     7    3    4 1   
     8    3   16 1   
     9    3   17 1   
    10    4    5 1   
    11    4   18 1   
    12    5   10 1   
    13    5   19 1   
    14    6    8 ar  
    15    6   10 ar  
    16    6   20 1   
    17    7    9 ar  
    18    7   10 ar  
    19    7   21 1   
    20    8   11 ar  
    21    8   22 1   
    22    9   11 ar  
    23    9   23 1   
    24   11   24 1   
@<TRIPOS>SUBSTRUCTURE
     1 NPU         1 TEMP              0 ****  ****    0 ROOT
