@<TRIPOS>MOLECULE
NPU
   25    25     1     0     0
SMALL
bcc


@<TRIPOS>ATOM
      1 O1         -0.0920    0.2430    0.0380 oh        1 NPU     -0.625800
      2 C2          1.4980    1.2040   -2.1950 c3        1 NPU     -0.134100
      3 N2          1.4620    2.5470   -0.0880 n4        1 NPU     -0.838600
      4 CA2         1.9070    1.2620   -0.7340 c3        1 NPU      0.129500
      5 CB2         1.3170    0.0580    0.0530 c3        1 NPU      0.181400
      6 CD3         3.0940   -0.6280    1.6760 ca        1 NPU     -0.128500
      7 CD4         1.1870    0.6100    2.5080 ca        1 NPU     -0.128500
      8 CE3         3.6200   -0.6770    2.9670 ca        1 NPU     -0.112500
      9 CE4         1.7140    0.5560    3.7960 ca        1 NPU     -0.112500
     10 CG2         1.8770    0.0200    1.4410 ca        1 NPU     -0.201300
     11 CZ2         2.9330   -0.0850    4.0270 ca        1 NPU     -0.093000
     12 HO1        -0.4890   -0.5180    0.4850 ho        1 NPU      0.454000
     13 H2          1.9400    0.2800   -2.6470 hc        1 NPU      0.084033
     14 H2A         1.8770    2.0860   -2.7660 hc        1 NPU      0.084033
     15 H2B         0.3850    1.1420   -2.2960 hc        1 NPU      0.084033
     16 HN2         0.4400    2.6170   -0.1710 hn        1 NPU      0.464133
     17 HN2A        1.7100    2.5230    0.9090 hn        1 NPU      0.464133
     18 HA2         3.0340    1.2220   -0.6400 hx        1 NPU      0.112700
     19 HB2         1.5880   -0.8810   -0.5120 h1        1 NPU      0.096700
     20 HD3         3.6320   -1.1130    0.8470 ha        1 NPU      0.140000
     21 HD4         0.2060    1.0790    2.3340 ha        1 NPU      0.140000
     22 HE3         4.5760   -1.1940    3.1490 ha        1 NPU      0.158000
     23 HE4         1.1630    1.0090    4.6360 ha        1 NPU      0.158000
     24 HZ2         3.3460   -0.1330    5.0470 ha        1 NPU      0.161000
     25 H23         1.9000    3.3480   -0.5450 hn        1 NPU      0.464133
@<TRIPOS>BOND
     1    1    5 1   
     2    1   12 1   
     3    2    4 1   
     4    2   13 1   
     5    2   14 1   
     6    2   15 1   
     7    3    4 1   
     8    3   16 1   
     9    3   17 1   
    10    3   25 1   
    11    4    5 1   
    12    4   18 1   
    13    5   10 1   
    14    5   19 1   
    15    6    8 ar  
    16    6   10 ar  
    17    6   20 1   
    18    7    9 ar  
    19    7   10 ar  
    20    7   21 1   
    21    8   11 ar  
    22    8   22 1   
    23    9   11 ar  
    24    9   23 1   
    25   11   24 1   
@<TRIPOS>SUBSTRUCTURE
     1 NPU         1 TEMP              0 ****  ****    0 ROOT
