@<TRIPOS>MOLECULE
NPU
   25    25     1     0     0
SMALL
bcc


@<TRIPOS>ATOM
      1 O1         -0.0970    0.2490    0.0480 oh        1 NPU     -0.625800
      2 C2          1.4840    1.2060   -2.1930 c3        1 NPU     -0.134100
      3 N2          1.4630    2.5480   -0.0850 n4        1 NPU     -0.838600
      4 CA2         1.9010    1.2630   -0.7340 c3        1 NPU      0.129500
      5 CB2         1.3110    0.0590    0.0550 c3        1 NPU      0.181400
      6 CD3         3.0950   -0.6320    1.6690 ca        1 NPU     -0.128500
      7 CD4         1.1950    0.6110    2.5110 ca        1 NPU     -0.128500
      8 CE3         3.6270   -0.6830    2.9570 ca        1 NPU     -0.112500
      9 CE4         1.7280    0.5550    3.7970 ca        1 NPU     -0.112500
     10 CG2         1.8780    0.0200    1.4410 ca        1 NPU     -0.201300
     11 CZ2         2.9470   -0.0900    4.0210 ca        1 NPU     -0.093000
     12 HO1        -0.4940   -0.5110    0.4960 ho        1 NPU      0.454000
     13 H2          1.8630    2.0870   -2.7650 hc        1 NPU      0.084033
     14 H2A         1.9210    0.2810   -2.6480 hc        1 NPU      0.084033
     15 H2B         0.3710    1.1480   -2.2890 hc        1 NPU      0.084033
     16 HN2         1.9010    3.3480   -0.5440 hn        1 NPU      0.464133
     17 HN2A        0.4400    2.6210   -0.1630 hn        1 NPU      0.464133
     18 HA2         3.0290    1.2190   -0.6450 hx        1 NPU      0.112700
     19 HB2         1.5760   -0.8790   -0.5110 h1        1 NPU      0.096700
     20 HD3         3.6270   -1.1180    0.8370 ha        1 NPU      0.140000
     21 HD4         0.2140    1.0830    2.3420 ha        1 NPU      0.140000
     22 HE3         4.5820   -1.2030    3.1340 ha        1 NPU      0.158000
     23 HE4         1.1820    1.0090    4.6390 ha        1 NPU      0.158000
     24 HZ2         3.3650   -0.1390    5.0390 ha        1 NPU      0.161000
     25 H23         1.7150    2.5230    0.9100 hn        1 NPU      0.464133
@<TRIPOS>BOND
     1    1    5 1   
     2    1   12 1   
     3    2    4 1   
     4    2   13 1   
     5    2   14 1   
     6    2   15 1   
     7    3    4 1   
     8    3   16 1   
     9    3   17 1   
    10    3   25 1   
    11    4    5 1   
    12    4   18 1   
    13    5   10 1   
    14    5   19 1   
    15    6    8 ar  
    16    6   10 ar  
    17    6   20 1   
    18    7    9 ar  
    19    7   10 ar  
    20    7   21 1   
    21    8   11 ar  
    22    8   22 1   
    23    9   11 ar  
    24    9   23 1   
    25   11   24 1   
@<TRIPOS>SUBSTRUCTURE
     1 NPU         1 TEMP              0 ****  ****    0 ROOT
