@<TRIPOS>MOLECULE
NPU
   25    25     1     0     0
SMALL
bcc


@<TRIPOS>ATOM
      1 O1         -0.0910    0.2460    0.0350 oh        1 NPU     -0.625800
      2 C2          1.5020    1.2090   -2.1940 c3        1 NPU     -0.134100
      3 N2          1.4650    2.5490   -0.0860 nz        1 NPU     -0.838600
      4 CA2         1.9100    1.2650   -0.7320 c3        1 NPU      0.129500
      5 CB2         1.3170    0.0590    0.0510 c3        1 NPU      0.181400
      6 CD3         3.0910   -0.6310    1.6760 ca        1 NPU     -0.128500
      7 CD4         1.1850    0.6080    2.5070 ca        1 NPU     -0.128500
      8 CE3         3.6160   -0.6830    2.9670 ca        1 NPU     -0.112500
      9 CE4         1.7100    0.5520    3.7960 ca        1 NPU     -0.112500
     10 CG2         1.8750    0.0190    1.4400 ca        1 NPU     -0.201300
     11 CZ2         2.9280   -0.0920    4.0270 ca        1 NPU     -0.093000
     12 HO1        -0.4900   -0.5150    0.4800 ho        1 NPU      0.454000
     13 H2          1.8830    2.0920   -2.7640 hc        1 NPU      0.084033
     14 H2A         0.3900    1.1480   -2.2970 hc        1 NPU      0.084033
     15 H2B         1.9440    0.2850   -2.6470 hc        1 NPU      0.084033
     16 HN2         1.7110    2.5230    0.9120 hn        1 NPU      0.464133
     17 HN2A        0.4430    2.6190   -0.1690 hn        1 NPU      0.464133
     18 HA2         3.0370    1.2230   -0.6370 hx        1 NPU      0.112700
     19 HB2         1.5880   -0.8790   -0.5140 h1        1 NPU      0.096700
     20 HD3         3.6300   -1.1160    0.8460 ha        1 NPU      0.140000
     21 HD4         0.2040    1.0790    2.3320 ha        1 NPU      0.140000
     22 HE3         4.5710   -1.2020    3.1500 ha        1 NPU      0.158000
     23 HE4         1.1580    1.0040    4.6350 ha        1 NPU      0.158000
     24 HZ2         3.3390   -0.1410    5.0480 ha        1 NPU      0.161000
     25 H23         1.9040    3.3500   -0.5410 hn        1 NPU      0.464133
@<TRIPOS>BOND
     1    1    5 1   
     2    1   12 1   
     3    2    4 1   
     4    2   13 1   
     5    2   14 1   
     6    2   15 1   
     7    3    4 1   
     8    3   16 1   
     9    3   17 1   
    10    3   25 1   
    11    4    5 1   
    12    4   18 1   
    13    5   10 1   
    14    5   19 1   
    15    6    8 ar  
    16    6   10 ar  
    17    6   20 1   
    18    7    9 ar  
    19    7   10 ar  
    20    7   21 1   
    21    8   11 ar  
    22    8   22 1   
    23    9   11 ar  
    24    9   23 1   
    25   11   24 1   
@<TRIPOS>SUBSTRUCTURE
     1 NPU         1 TEMP              0 ****  ****    0 ROOT
