@<TRIPOS>MOLECULE
NPU
   24    21     1     0     0
SMALL
bcc


@<TRIPOS>ATOM
      1 O1         -1.9020   -0.2530   -0.8770 oh        1 NPU     -0.601800
      2 C2          0.6160    0.2570   -2.9380 c3        1 NPU     -0.092100
      3 N2         -0.8640    1.7860   -1.8060 n3        1 NPU     -0.891800
      4 CA2         0.1090    0.7550   -1.5950 c3        1 NPU      0.180500
      5 CB2        -0.5240   -0.3900   -0.8430 c3        1 NPU      0.104200
      6 CD3         1.1450   -1.0600    0.9980 c1        1 NPU     -0.067000
      7 CD4        -0.8020    0.2170    1.6350 c1        1 NPU     -0.069500
      8 CE3         1.5370   -1.1210    2.3080 c1        1 NPU     -0.067000
      9 CE4        -0.4050    0.1550    2.9540 c1        1 NPU     -0.067000
     10 CG2        -0.0340   -0.3870    0.6490 c1        1 NPU     -0.097100
     11 CZ2         0.7640   -0.5130    3.2990 c1        1 NPU     -0.067000
     12 HO1        -2.2870   -1.0630   -0.8350 ho        1 NPU      0.406000
     13 H2          0.9550    1.0400   -3.4820 hc        1 NPU      0.043700
     14 H2A        -0.1540   -0.2050   -3.4440 hc        1 NPU      0.043700
     15 H2B         1.3530   -0.3930   -2.7940 hc        1 NPU      0.043700
     16 HN2        -0.9850    2.2890   -0.9940 hn        1 NPU      0.352300
     17 HN2A       -1.6470    1.4150   -2.0510 hn        1 NPU      0.352300
     18 HA2         0.8360    1.1050   -1.0910 h1        1 NPU      0.060700
     19 HB2        -0.2630   -1.2540   -1.2760 h1        1 NPU      0.045700
     20 HD3         1.6910   -1.4900    0.3010 ha        1 NPU      0.076250
     21 HD4        -1.5610    0.6510    1.4150 ha        1 NPU      0.083500
     22 HE3         2.3430   -1.5800    2.5460 ha        1 NPU      0.076250
     23 HE4        -0.9680    0.5970    3.6730 ha        1 NPU      0.076250
     24 HZ2         1.0480   -0.5580    4.2470 ha        1 NPU      0.076250
@<TRIPOS>BOND
     1    1    5 1   
     2    1   12 1   
     3    2    4 1   
     4    2   13 1   
     5    2   14 1   
     6    2   15 1   
     7    3    4 1   
     8    3   16 1   
     9    3   17 1   
    10    4    5 1   
    11    4   18 1   
    12    5   10 1   
    13    5   19 1   
    14    6    8 3   
    15    6   20 1   
    16    7   10 3   
    17    7   21 1   
    18    8   22 1   
    19    9   11 3   
    20    9   23 1   
    21   11   24 1   
@<TRIPOS>SUBSTRUCTURE
     1 NPU         1 TEMP              0 ****  ****    0 ROOT
