@<TRIPOS>MOLECULE
NPV
   40    43     1     0     0
SMALL
bcc


@<TRIPOS>ATOM
      1 C4         -0.1440    0.1880   -0.0180 ca        1 NPV     -0.096600
      2 C5          1.1190   -0.4120   -0.0250 ca        1 NPV     -0.120000
      3 C6          1.8790   -0.4860    1.1400 ca        1 NPV     -0.122000
      4 C7          1.3760    0.0350    2.3400 cp        1 NPV     -0.208500
      5 C9         -0.6350    0.7250    1.1780 ca        1 NPV     -0.120000
      6 C10         2.1350   -0.0600    3.5940 cp        1 NPV      0.510800
      7 C15         3.7140   -0.4240    8.2830 ca        1 NPV      0.392200
      8 C11         1.4500   -0.2680    4.7950 ca        1 NPV     -0.236300
      9 C12         2.1660   -0.3320    6.0080 ca        1 NPV     -0.111300
     10 C13         1.5320   -0.5450    7.2690 ca        1 NPV     -0.086000
     11 C3         -0.9800    0.2600   -1.2910 c         1 NPV      0.905200
     12 O1         -0.4950   -0.2430   -2.3420 o         1 NPV     -0.823300
     13 O2         -2.1100    0.8190   -1.2180 o         1 NPV     -0.823300
     14 C8          0.1130    0.6510    2.3470 ca        1 NPV     -0.122000
     15 N19         3.5080    0.0590    3.5530 nb        1 NPV     -0.638000
     16 C14         2.2970   -0.5930    8.4050 ca        1 NPV     -0.242300
     17 N16         4.3460   -0.2260    7.1400 nb        1 NPV     -0.646000
     18 C17         3.5870   -0.1810    5.9880 ca        1 NPV      0.262300
     19 C18         4.2010    0.0080    4.6860 cp        1 NPV      0.417500
     20 C20         5.6720    0.1480    4.6180 cp        1 NPV     -0.126500
     21 C25         6.4250   -0.7760    3.8870 ca        1 NPV     -0.034000
     22 C21         6.3050    1.2060    5.2810 ca        1 NPV     -0.048000
     23 C22         7.6920    1.3380    5.2250 ca        1 NPV     -0.151000
     24 C23         8.4630    0.4220    4.5160 ca        1 NPV     -0.070000
     25 C24         7.8220   -0.6380    3.8530 ca        1 NPV     -0.184200
     26 N26         8.6390   -1.6270    3.1060 no        1 NPV      0.314200
     27 O27         8.1000   -2.5690    2.5900 o         1 NPV     -0.217000
     28 O28         9.8320   -1.4680    3.0430 o         1 NPV     -0.217000
     29 H5          1.4940   -0.8240   -0.9770 ha        1 NPV      0.157500
     30 H6          2.8710   -0.9590    1.1160 ha        1 NPV      0.116000
     31 H9         -1.6280    1.2050    1.1640 ha        1 NPV      0.157500
     32 H15         4.3450   -0.4580    9.1890 h4        1 NPV      0.016100
     33 H11         0.3580   -0.3910    4.7980 ha        1 NPV      0.156000
     34 H13         0.4390   -0.6660    7.2990 ha        1 NPV      0.143000
     35 H8         -0.2790    1.0890    3.2760 ha        1 NPV      0.116000
     36 H14         1.8580   -0.7560    9.3970 ha        1 NPV      0.139000
     37 H25         5.9270   -1.6000    3.3450 ha        1 NPV      0.182000
     38 H21         5.7040    1.9320    5.8510 ha        1 NPV      0.151000
     39 H22         8.1840    2.1730    5.7460 ha        1 NPV      0.141000
     40 H23         9.5600    0.5230    4.4730 ha        1 NPV      0.162000
@<TRIPOS>BOND
     1    1    2 ar  
     2    1    5 ar  
     3    1   11 1   
     4    2    3 ar  
     5    2   29 1   
     6    3    4 ar  
     7    3   30 1   
     8    4    6 1   
     9    4   14 ar  
    10    5   14 ar  
    11    5   31 1   
    12    6    8 ar  
    13    6   15 ar  
    14    7   16 ar  
    15    7   17 ar  
    16    7   32 1   
    17    8    9 ar  
    18    8   33 1   
    19    9   10 ar  
    20    9   18 ar  
    21   10   16 ar  
    22   10   34 1   
    23   11   12 1   
    24   11   13 1   
    25   14   35 1   
    26   15   19 ar  
    27   16   36 1   
    28   17   18 ar  
    29   18   19 ar  
    30   19   20 1   
    31   20   21 ar  
    32   20   22 ar  
    33   21   25 ar  
    34   21   37 1   
    35   22   23 ar  
    36   22   38 1   
    37   23   24 ar  
    38   23   39 1   
    39   24   25 ar  
    40   24   40 1   
    41   25   26 1   
    42   26   27 1   
    43   26   28 1   
@<TRIPOS>SUBSTRUCTURE
     1 NPV         1 TEMP              0 ****  ****    0 ROOT
