@<TRIPOS>MOLECULE
NPV
   40    43     1     0     0
SMALL
bcc


@<TRIPOS>ATOM
      1 C4         -0.1530    0.2040   -0.0070 ca        1 NPV     -0.096600
      2 C5          1.1040   -0.4070   -0.0160 ca        1 NPV     -0.120000
      3 C6          1.8670   -0.4830    1.1470 ca        1 NPV     -0.122000
      4 C7          1.3730    0.0480    2.3460 cp        1 NPV     -0.208500
      5 C9         -0.6360    0.7500    1.1880 ca        1 NPV     -0.120000
      6 C10         2.1350   -0.0500    3.5980 cp        1 NPV      0.510800
      7 C15         3.7250   -0.4080    8.2840 ca        1 NPV      0.392200
      8 C11         1.4520   -0.2460    4.8020 ca        1 NPV     -0.236300
      9 C12         2.1710   -0.3120    6.0140 ca        1 NPV     -0.111300
     10 C13         1.5390   -0.5130    7.2770 ca        1 NPV     -0.086000
     11 C3         -0.9920    0.2790   -1.2780 c         1 NPV      0.905200
     12 O1         -0.5160   -0.2340   -2.3280 o         1 NPV     -0.823300
     13 O2         -2.1170    0.8480   -1.2040 o         1 NPV     -0.823300
     14 C8          0.1150    0.6750    2.3550 ca        1 NPV     -0.122000
     15 N19         3.5080    0.0580    3.5520 nb        1 NPV     -0.638000
     16 C14         2.3070   -0.5640    8.4100 ca        1 NPV     -0.242300
     17 N16         4.3550   -0.2200    7.1380 nb        1 NPV     -0.646000
     18 C17         3.5930   -0.1740    5.9890 ca        1 NPV      0.262300
     19 C18         4.2040    0.0040    4.6830 cp        1 NPV      0.417500
     20 C20         5.6760    0.1310    4.6100 cp        1 NPV     -0.126500
     21 C25         6.4180   -0.8030    3.8800 ca        1 NPV     -0.034000
     22 C21         6.3210    1.1850    5.2670 ca        1 NPV     -0.047000
     23 C22         7.7100    1.3040    5.2060 ca        1 NPV     -0.151000
     24 C23         8.4700    0.3790    4.4980 ca        1 NPV     -0.070000
     25 C24         7.8160   -0.6770    3.8400 ca        1 NPV     -0.184200
     26 N26         8.6230   -1.6760    3.0950 no        1 NPV      0.314200
     27 O27         8.0730   -2.6150    2.5830 o         1 NPV     -0.217000
     28 O28         9.8160   -1.5290    3.0260 o         1 NPV     -0.217000
     29 H5          1.4720   -0.8270   -0.9670 ha        1 NPV      0.157500
     30 H6          2.8550   -0.9660    1.1220 ha        1 NPV      0.116000
     31 H9         -1.6240    1.2400    1.1740 ha        1 NPV      0.157500
     32 H15         4.3590   -0.4440    9.1880 h4        1 NPV      0.016100
     33 H11         0.3580   -0.3590    4.8090 ha        1 NPV      0.156000
     34 H13         0.4450   -0.6250    7.3110 ha        1 NPV      0.143000
     35 H8         -0.2690    1.1210    3.2830 ha        1 NPV      0.116000
     36 H14         1.8700   -0.7190    9.4050 ha        1 NPV      0.139000
     37 H25         5.9120   -1.6240    3.3430 ha        1 NPV      0.182000
     38 H21         5.7290    1.9190    5.8360 ha        1 NPV      0.151000
     39 H22         8.2110    2.1370    5.7220 ha        1 NPV      0.141000
     40 H23         9.5680    0.4700    4.4500 ha        1 NPV      0.162000
@<TRIPOS>BOND
     1    1    2 ar  
     2    1    5 ar  
     3    1   11 1   
     4    2    3 ar  
     5    2   29 1   
     6    3    4 ar  
     7    3   30 1   
     8    4    6 1   
     9    4   14 ar  
    10    5   14 ar  
    11    5   31 1   
    12    6    8 ar  
    13    6   15 ar  
    14    7   16 ar  
    15    7   17 ar  
    16    7   32 1   
    17    8    9 ar  
    18    8   33 1   
    19    9   10 ar  
    20    9   18 ar  
    21   10   16 ar  
    22   10   34 1   
    23   11   12 1   
    24   11   13 1   
    25   14   35 1   
    26   15   19 ar  
    27   16   36 1   
    28   17   18 ar  
    29   18   19 ar  
    30   19   20 1   
    31   20   21 ar  
    32   20   22 ar  
    33   21   25 ar  
    34   21   37 1   
    35   22   23 ar  
    36   22   38 1   
    37   23   24 ar  
    38   23   39 1   
    39   24   25 ar  
    40   24   40 1   
    41   25   26 1   
    42   26   27 1   
    43   26   28 1   
@<TRIPOS>SUBSTRUCTURE
     1 NPV         1 TEMP              0 ****  ****    0 ROOT
