@<TRIPOS>MOLECULE
NPV
   40    43     1     0     0
SMALL
bcc


@<TRIPOS>ATOM
      1 C4         -0.1460    0.1970   -0.0150 ca        1 NPV     -0.096600
      2 C5          1.1130   -0.4110   -0.0220 ca        1 NPV     -0.120000
      3 C6          1.8740   -0.4850    1.1430 ca        1 NPV     -0.122000
      4 C7          1.3760    0.0420    2.3420 cp        1 NPV     -0.208500
      5 C9         -0.6330    0.7390    1.1800 ca        1 NPV     -0.120000
      6 C10         2.1350   -0.0540    3.5950 cp        1 NPV      0.510800
      7 C15         3.7160   -0.4120    8.2840 ca        1 NPV      0.392200
      8 C11         1.4500   -0.2540    4.7970 ca        1 NPV     -0.236300
      9 C12         2.1670   -0.3180    6.0100 ca        1 NPV     -0.111300
     10 C13         1.5320   -0.5230    7.2720 ca        1 NPV     -0.086000
     11 C3         -0.9820    0.2700   -1.2880 c         1 NPV      0.905200
     12 O1         -0.5010   -0.2390   -2.3370 o         1 NPV     -0.823300
     13 O2         -2.1100    0.8340   -1.2150 o         1 NPV     -0.823300
     14 C8          0.1160    0.6650    2.3480 ca        1 NPV     -0.122000
     15 N19         3.5080    0.0580    3.5530 nb        1 NPV     -0.638000
     16 C14         2.2990   -0.5720    8.4070 ca        1 NPV     -0.242300
     17 N16         4.3480   -0.2210    7.1390 nb        1 NPV     -0.646000
     18 C17         3.5890   -0.1760    5.9890 ca        1 NPV      0.262300
     19 C18         4.2020    0.0060    4.6850 cp        1 NPV      0.417500
     20 C20         5.6740    0.1380    4.6150 cp        1 NPV     -0.126500
     21 C25         6.4210   -0.7930    3.8860 ca        1 NPV     -0.034000
     22 C21         6.3140    1.1940    5.2750 ca        1 NPV     -0.047000
     23 C22         7.7020    1.3180    5.2170 ca        1 NPV     -0.151000
     24 C23         8.4670    0.3950    4.5100 ca        1 NPV     -0.070000
     25 C24         7.8180   -0.6630    3.8500 ca        1 NPV     -0.184200
     26 N26         8.6300   -1.6590    3.1050 no        1 NPV      0.314200
     27 O27         8.0840   -2.5990    2.5920 o         1 NPV     -0.217000
     28 O28         9.8230   -1.5070    3.0400 o         1 NPV     -0.217000
     29 H5          1.4850   -0.8270   -0.9720 ha        1 NPV      0.157500
     30 H6          2.8640   -0.9640    1.1190 ha        1 NPV      0.116000
     31 H9         -1.6230    1.2250    1.1650 ha        1 NPV      0.157500
     32 H15         4.3490   -0.4470    9.1900 h4        1 NPV      0.016100
     33 H11         0.3570   -0.3700    4.8020 ha        1 NPV      0.156000
     34 H13         0.4390   -0.6390    7.3040 ha        1 NPV      0.143000
     35 H8         -0.2730    1.1080    3.2760 ha        1 NPV      0.116000
     36 H14         1.8590   -0.7300    9.4000 ha        1 NPV      0.139000
     37 H25         5.9180   -1.6160    3.3470 ha        1 NPV      0.182000
     38 H21         5.7180    1.9250    5.8430 ha        1 NPV      0.151000
     39 H22         8.1990    2.1520    5.7340 ha        1 NPV      0.141000
     40 H23         9.5640    0.4900    4.4650 ha        1 NPV      0.162000
@<TRIPOS>BOND
     1    1    2 ar  
     2    1    5 ar  
     3    1   11 1   
     4    2    3 ar  
     5    2   29 1   
     6    3    4 ar  
     7    3   30 1   
     8    4    6 1   
     9    4   14 ar  
    10    5   14 ar  
    11    5   31 1   
    12    6    8 ar  
    13    6   15 ar  
    14    7   16 ar  
    15    7   17 ar  
    16    7   32 1   
    17    8    9 ar  
    18    8   33 1   
    19    9   10 ar  
    20    9   18 ar  
    21   10   16 ar  
    22   10   34 1   
    23   11   12 1   
    24   11   13 1   
    25   14   35 1   
    26   15   19 ar  
    27   16   36 1   
    28   17   18 ar  
    29   18   19 ar  
    30   19   20 1   
    31   20   21 ar  
    32   20   22 ar  
    33   21   25 ar  
    34   21   37 1   
    35   22   23 ar  
    36   22   38 1   
    37   23   24 ar  
    38   23   39 1   
    39   24   25 ar  
    40   24   40 1   
    41   25   26 1   
    42   26   27 1   
    43   26   28 1   
@<TRIPOS>SUBSTRUCTURE
     1 NPV         1 TEMP              0 ****  ****    0 ROOT
