@<TRIPOS>MOLECULE
NPV
   40    43     1     0     0
SMALL
bcc


@<TRIPOS>ATOM
      1 C4          4.9390   -0.6370    0.2340 ca        1 NPV     -0.096600
      2 C5          3.8820   -1.4340   -0.2170 ca        1 NPV     -0.120000
      3 C6          2.5880   -0.9220   -0.2980 ca        1 NPV     -0.122000
      4 C7          2.3360    0.4080    0.0660 cp        1 NPV     -0.208500
      5 C9          4.6800    0.6850    0.6140 ca        1 NPV     -0.120000
      6 C10         0.9920    0.9900   -0.0440 cp        1 NPV      0.510800
      7 C15        -3.0050    3.8750   -0.6010 ca        1 NPV      0.392200
      8 C11         0.8540    2.3280   -0.4230 ca        1 NPV     -0.236300
      9 C12        -0.4300    2.9050   -0.5030 ca        1 NPV     -0.111300
     10 C13        -0.6440    4.2630   -0.8860 ca        1 NPV     -0.086000
     11 C3          6.3550   -1.1950    0.3130 c         1 NPV      0.905200
     12 O1          6.5380   -2.3900   -0.0470 o         1 NPV     -0.823300
     13 O2          7.2640   -0.4250    0.7330 o         1 NPV     -0.823300
     14 C8          3.3940    1.2060    0.5320 ca        1 NPV     -0.122000
     15 N19        -0.1020    0.1970    0.2330 nb        1 NPV     -0.638000
     16 C14        -1.9240    4.7510   -0.9380 ca        1 NPV     -0.242300
     17 N16        -2.8570    2.6120   -0.2420 nb        1 NPV     -0.646000
     18 C17        -1.5740    2.1070   -0.1910 ca        1 NPV      0.262300
     19 C18        -1.3210    0.7230    0.1700 cp        1 NPV      0.417500
     20 C20        -2.4780   -0.1440    0.4810 cp        1 NPV     -0.126500
     21 C25        -2.7180   -1.2850   -0.2910 ca        1 NPV     -0.034000
     22 C21        -3.3270    0.1780    1.5460 ca        1 NPV     -0.047000
     23 C22        -4.4240   -0.6330    1.8380 ca        1 NPV     -0.151000
     24 C23        -4.6900   -1.7660    1.0750 ca        1 NPV     -0.070000
     25 C24        -3.8340   -2.0830    0.0070 ca        1 NPV     -0.184200
     26 N26        -4.1200   -3.2830   -0.8200 no        1 NPV      0.314200
     27 O27        -3.4270   -3.5220   -1.7720 o         1 NPV     -0.217000
     28 O28        -5.0510   -3.9860   -0.5230 o         1 NPV     -0.217000
     29 H5          4.1010   -2.4750   -0.5070 ha        1 NPV      0.157500
     30 H6          1.7690   -1.5630   -0.6520 ha        1 NPV      0.116000
     31 H9          5.5230    1.2950    0.9790 ha        1 NPV      0.157500
     32 H15        -4.0430    4.2530   -0.6360 h4        1 NPV      0.016100
     33 H11         1.7400    2.9310   -0.6680 ha        1 NPV      0.156000
     34 H13         0.2270    4.8890   -1.1320 ha        1 NPV      0.143000
     35 H8          3.2020    2.2420    0.8480 ha        1 NPV      0.116000
     36 H14        -2.1410    5.7870   -1.2290 ha        1 NPV      0.139000
     37 H25        -2.0380   -1.5540   -1.1190 ha        1 NPV      0.182000
     38 H21        -3.1290    1.0770    2.1510 ha        1 NPV      0.151000
     39 H22        -5.0850   -0.3770    2.6790 ha        1 NPV      0.141000
     40 H23        -5.5580   -2.4070    1.3020 ha        1 NPV      0.162000
@<TRIPOS>BOND
     1    1    2 ar  
     2    1    5 ar  
     3    1   11 1   
     4    2    3 ar  
     5    2   29 1   
     6    3    4 ar  
     7    3   30 1   
     8    4    6 1   
     9    4   14 ar  
    10    5   14 ar  
    11    5   31 1   
    12    6    8 ar  
    13    6   15 ar  
    14    7   16 ar  
    15    7   17 ar  
    16    7   32 1   
    17    8    9 ar  
    18    8   33 1   
    19    9   10 ar  
    20    9   18 ar  
    21   10   16 ar  
    22   10   34 1   
    23   11   12 1   
    24   11   13 1   
    25   14   35 1   
    26   15   19 ar  
    27   16   36 1   
    28   17   18 ar  
    29   18   19 ar  
    30   19   20 1   
    31   20   21 ar  
    32   20   22 ar  
    33   21   25 ar  
    34   21   37 1   
    35   22   23 ar  
    36   22   38 1   
    37   23   24 ar  
    38   23   39 1   
    39   24   25 ar  
    40   24   40 1   
    41   25   26 1   
    42   26   27 1   
    43   26   28 1   
@<TRIPOS>SUBSTRUCTURE
     1 NPV         1 TEMP              0 ****  ****    0 ROOT
