@<TRIPOS>MOLECULE
NPV
   40    27     1     0     0
SMALL
bcc


@<TRIPOS>ATOM
      1 C4         -3.3300    0.0790   -3.9180 c1        1 NPV     -0.076000
      2 C5         -3.0050    1.2830   -3.3130 c2        1 NPV     -0.121000
      3 C6         -2.3240    1.2910   -2.1070 c1        1 NPV     -0.108000
      4 C7         -1.9680    0.0950   -1.5040 c1        1 NPV     -0.086667
      5 C9         -2.9740   -1.1170   -3.3150 c1        1 NPV     -0.118000
      6 C10        -1.2770    0.1040   -0.3030 c1        1 NPV      0.075000
      7 C15         0.1540    0.2740    4.4620 c1        1 NPV     -0.117750
      8 C11        -1.9580    0.1150    0.9090 c1        1 NPV     -0.128500
      9 C12        -1.2520    0.1840    2.0990 c1        1 NPV     -0.046000
     10 C13        -1.9290    0.1710    3.3150 c1        1 NPV     -0.128500
     11 C3         -4.1260    0.0690   -5.2030 c1        1 NPV      0.355000
     12 O1         -5.3790   -0.0480   -5.1670 o         1 NPV     -0.560000
     13 O2         -3.5360    0.1820   -6.3090 os        1 NPV     -0.456000
     14 C8         -2.2930   -1.1090   -2.1080 c1        1 NPV     -0.072333
     15 N19         0.0920    0.1610   -0.3210 n1        1 NPV     -0.113000
     16 C14        -1.2290    0.2160    4.4850 c1        1 NPV     -0.117750
     17 N16         0.8160    0.2860    3.2720 n1        1 NPV     -0.120000
     18 C17         0.1050    0.2410    2.0800 c1        1 NPV     -0.066000
     19 C18         0.7910    0.2290    0.8510 c1        1 NPV      0.047000
     20 C20         2.1760    0.2170    0.7780 c1        1 NPV     -0.086667
     21 C25         2.8480   -0.9770    0.5670 c1        1 NPV     -0.072333
     22 C21         2.8880    1.3990    0.9100 c1        1 NPV     -0.072333
     23 C22         4.2720    1.3880    0.8310 c1        1 NPV     -0.117750
     24 C23         4.9440    0.1940    0.6200 c1        1 NPV     -0.117750
     25 C24         4.2320   -0.9890    0.4880 c1        1 NPV     -0.086667
     26 N26         4.9220   -2.2170    0.3220 n1        1 NPV      0.569000
     27 O27         6.1430   -2.2270    0.2500 o         1 NPV     -0.378000
     28 O28         4.2250   -3.3900    0.2710 os        1 NPV     -0.456000
     29 H5         -3.2560    2.1260   -3.7380 ha        1 NPV      0.158000
     30 H6         -2.1030    2.1390   -1.6770 ha        1 NPV      0.124000
     31 H9         -3.1920   -1.9650   -3.7460 ha        1 NPV      0.157000
     32 H15         0.6540    0.3060    5.2990 ha        1 NPV      0.148750
     33 H11        -2.9350    0.1040    0.9200 ha        1 NPV      0.149500
     34 H13        -2.9040    0.1310    3.3300 ha        1 NPV      0.149500
     35 H8         -2.0420   -1.9520   -1.6830 ha        1 NPV      0.147667
     36 H14        -1.7010    0.1700    5.3370 ha        1 NPV      0.148750
     37 H25         2.3470   -1.8100    0.4740 ha        1 NPV      0.147667
     38 H21         2.4140    2.2410    1.0550 ha        1 NPV      0.147667
     39 H22         4.7730    2.2200    0.9250 ha        1 NPV      0.148750
     40 H23         5.9190    0.1860    0.5650 ha        1 NPV      0.148750
@<TRIPOS>BOND
     1    1    2 1   
     2    1    5 1   
     3    2    3 1   
     4    2   29 1   
     5    3   30 1   
     6    4   14 1   
     7    5   31 1   
     8    6   15 1   
     9    7   16 1   
    10    7   32 1   
    11    8    9 1   
    12    8   33 1   
    13    9   10 1   
    14   10   34 1   
    15   11   12 1   
    16   14   35 1   
    17   16   36 1   
    18   17   18 1   
    19   18   19 1   
    20   20   22 1   
    21   21   25 1   
    22   21   37 1   
    23   22   38 1   
    24   23   24 1   
    25   23   39 1   
    26   24   40 1   
    27   26   27 1   
@<TRIPOS>SUBSTRUCTURE
     1 NPV         1 TEMP              0 ****  ****    0 ROOT
