@<TRIPOS>MOLECULE
NPX
   30    36     1     0     0
SMALL
bcc


@<TRIPOS>ATOM
      1 C1          0.0000    0.0000    0.0000 c2        1 NPX     -0.286000
      2 O2         -0.6700    0.0010   -1.1820 os        1 NPX      0.022000
      3 C2          1.3990    0.0000    0.0000 c2        1 NPX      0.128000
      4 C3          2.0980    0.0000    1.1660 c3        1 NPX     -0.270000
      5 C4          1.4090   -0.0010    2.3920 c2        1 NPX     -0.409000
      6 C5         -0.0080    0.0000    2.3950 c3        1 NPX      0.147000
      7 C6         -0.7000    0.0060    1.1730 c2        1 NPX     -0.300000
      8 C7          2.1000   -0.0010    3.6160 c2        1 NPX     -0.201000
      9 C8          1.4020   -0.0010    4.7840 c3        1 NPX     -0.416000
     10 C9          2.1470   -0.0020    6.0950 DU        1 NPX     -0.257000
     11 C10         1.7710    1.2470    6.8940 c3        1 NPX     -0.090000
     12 C13        -0.6950    0.0000    3.6210 c3        1 NPX     -0.139000
     13 C11         0.0080   -0.0010    4.7870 c2        1 NPX     -0.314000
     14 C12         0.1160    0.0010   -2.3740 c3        1 NPX     -0.297000
     15 C15         1.7770   -1.2320    6.8820 c2        1 NPX      0.392000
     16 H2          1.5610   -0.3410    1.0150 DU        1 NPX      0.161000
     17 H6         -0.4610   -0.1850    2.2120 ha        1 NPX      0.165000
     18 H121        0.9680   -0.0000   -1.7040 h1        1 NPX      0.081667
     19 H122       -0.3230    0.0640   -1.3850 h1        1 NPX      0.081667
     20 H123        0.5520   -0.9800   -2.5190 h1        1 NPX      0.081667
     21 H3          1.7520    0.2150    0.1630 hc        1 NPX      0.010000
     22 H7          1.7350    0.0410    2.5970 ha        1 NPX      0.321000
     23 H13         0.2180    0.0230    3.0400 DU        1 NPX     -0.054000
     24 H9          2.5660    0.0440    5.0970 DU        1 NPX      0.456000
     25 H11        -0.9020   -0.0560    4.2020 DU        1 NPX      0.195000
     26 H101        2.5000    0.6190    6.3960 DU        1 NPX      0.270000
     27 H102        0.9010    0.7750    6.4550 hc        1 NPX      0.203000
     28 H103        0.7430    1.5870    6.8790 hc        1 NPX      0.203000
     29 OXT         2.3220   -1.4450    8.0900 o         1 NPX     -0.443500
     30 O           0.9890   -2.0280    6.4260 o         1 NPX     -0.443500
@<TRIPOS>BOND
     1    1    2 1   
     2    1    3 1   
     3    1    7 1   
     4    2   14 1   
     5    3    4 1   
     6    3   16 1   
     7    4    5 1   
     8    4   16 1   
     9    4   21 1   
    10    5    6 1   
    11    5    8 1   
    12    6    7 1   
    13    6   12 1   
    14    6   23 1   
    15    7   17 1   
    16    8    9 1   
    17    8   22 1   
    18    9   10 1   
    19    9   13 1   
    20    9   24 1   
    21   10   11 1   
    22   10   15 1   
    23   10   24 1   
    24   10   26 1   
    25   11   26 1   
    26   11   27 1   
    27   11   28 1   
    28   12   13 1   
    29   12   23 1   
    30   12   25 1   
    31   13   25 1   
    32   14   18 1   
    33   14   19 1   
    34   14   20 1   
    35   15   29 1   
    36   15   30 1   
@<TRIPOS>SUBSTRUCTURE
     1 NPX         1 TEMP              0 ****  ****    0 ROOT
