@<TRIPOS>MOLECULE
NPX
   30    31     1     0     0
SMALL
bcc


@<TRIPOS>ATOM
      1 C1         -3.4530   -0.1140    0.0570 ca        1 NPX      0.083100
      2 O2         -4.7580   -0.5970    0.0560 os        1 NPX     -0.340900
      3 C2         -3.1440    1.2700    0.0240 ca        1 NPX     -0.198000
      4 C3         -1.8290    1.6670    0.0740 ca        1 NPX     -0.091000
      5 C4         -0.7770    0.7180    0.1610 ca        1 NPX     -0.052000
      6 C5         -1.0980   -0.6650    0.1920 ca        1 NPX     -0.023000
      7 C6         -2.4550   -1.0690    0.1340 ca        1 NPX     -0.142000
      8 C7          0.5850    1.1190    0.2220 ca        1 NPX     -0.153000
      9 C8          1.5990    0.1880    0.3110 ca        1 NPX     -0.005300
     10 C9          3.0260    0.6030    0.4040 c3        1 NPX     -0.171400
     11 C10         3.5670    0.3650    1.7970 c3        1 NPX     -0.062100
     12 C13        -0.0380   -1.6110    0.2660 ca        1 NPX     -0.158000
     13 C11         1.2680   -1.2000    0.3210 ca        1 NPX     -0.088000
     14 C12        -5.7350    0.2880   -0.4700 c3        1 NPX      0.121700
     15 C15         3.9210   -0.1620   -0.6220 c         1 NPX      0.923600
     16 H2         -3.9500    2.0130   -0.0390 ha        1 NPX      0.120000
     17 H6         -2.7080   -2.1380    0.1570 ha        1 NPX      0.137000
     18 H121       -6.6420   -0.3560   -0.5940 h1        1 NPX      0.032367
     19 H122       -5.9430    1.1120    0.2560 h1        1 NPX      0.032367
     20 H123       -5.4150    0.7110   -1.4520 h1        1 NPX      0.032367
     21 H3         -1.5710    2.7360    0.0460 ha        1 NPX      0.124000
     22 H7          0.8170    2.1930    0.1910 ha        1 NPX      0.124000
     23 H13        -0.2900   -2.6820    0.2690 ha        1 NPX      0.120000
     24 H9          3.1080    1.6980    0.1590 hc        1 NPX      0.046700
     25 H11         2.1120   -1.9180    0.3380 ha        1 NPX      0.192000
     26 H101        4.6100    0.7580    1.8640 hc        1 NPX      0.021367
     27 H102        2.9420    0.8760    2.5680 hc        1 NPX      0.021367
     28 H103        3.5900   -0.7320    2.0110 hc        1 NPX      0.021367
     29 OXT         4.4440    0.5200   -1.5430 o         1 NPX     -0.833800
     30 O           4.0940   -1.4030   -0.4590 o         1 NPX     -0.833800
@<TRIPOS>BOND
     1    1    2 1   
     2    1    3 ar  
     3    1    7 ar  
     4    2   14 1   
     5    3    4 ar  
     6    3   16 1   
     7    4    5 ar  
     8    4   21 1   
     9    5    6 ar  
    10    5    8 ar  
    11    6    7 ar  
    12    6   12 ar  
    13    7   17 1   
    14    8    9 ar  
    15    8   22 1   
    16    9   10 1   
    17    9   13 ar  
    18   10   11 1   
    19   10   15 1   
    20   10   24 1   
    21   11   26 1   
    22   11   27 1   
    23   11   28 1   
    24   12   13 ar  
    25   12   23 1   
    26   13   25 1   
    27   14   18 1   
    28   14   19 1   
    29   14   20 1   
    30   15   29 1   
    31   15   30 1   
@<TRIPOS>SUBSTRUCTURE
     1 NPX         1 TEMP              0 ****  ****    0 ROOT
