@<TRIPOS>MOLECULE
NPX
   30    26     1     0     0
SMALL
bcc


@<TRIPOS>ATOM
      1 C1         -0.8670   -0.0090   -3.0100 c1        1 NPX      0.037000
      2 O2         -1.8370    0.2280   -4.0130 o         1 NPX     -0.224000
      3 C2          0.4820    0.0250   -2.9990 c2        1 NPX     -0.198000
      4 C3          1.1850    0.0670   -1.7610 c1        1 NPX     -0.091000
      5 C4          0.4590    0.0730   -0.5220 c1        1 NPX     -0.037500
      6 C5         -0.9210    0.0390   -0.5340 c1        1 NPX     -0.037500
      7 C6         -1.6090   -0.0030   -1.7580 c1        1 NPX     -0.142000
      8 C7          1.1480    0.1170    0.6940 c1        1 NPX     -0.155500
      9 C8          0.4660    0.1240    1.8590 c1        1 NPX      0.002000
     10 C9          1.4090    0.0520    3.0760 c3        1 NPX     -0.168000
     11 C10         1.0040    1.1160    4.1010 c3        1 NPX     -0.180000
     12 C13        -1.6480    0.0470    0.6920 c1        1 NPX     -0.155500
     13 C11        -0.9870    0.0890    1.8520 c1        1 NPX     -0.088000
     14 C12        -1.5020   -0.2710   -5.2360 c3        1 NPX     -0.068000
     15 OXT         0.2470   -1.6610    4.2920 o         1 NPX     -0.568500
     16 O           2.3630   -2.0910    3.6490 o         1 NPX     -0.568500
     17 C15         1.3230   -1.2920    3.6860 c2        1 NPX      0.343000
     18 H2          0.9800   -0.0390   -3.8410 ha        1 NPX      0.120000
     19 H6         -2.6600   -0.0480   -1.7680 ha        1 NPX      0.137000
     20 H121       -0.8480    0.2610   -5.6190 h1        1 NPX      0.071667
     21 H122       -2.3000   -0.2780   -5.8180 h1        1 NPX      0.071667
     22 H123       -1.1280   -1.2780   -5.1220 h1        1 NPX      0.071667
     23 H3          2.2220    0.1010   -1.7580 ha        1 NPX      0.124000
     24 H7          2.0740    0.1480    0.7000 ha        1 NPX      0.122000
     25 H13        -2.6390    0.0200    0.6820 ha        1 NPX      0.122000
     26 H9          2.3410    0.2180    2.7790 hc        1 NPX      0.086000
     27 H11        -1.4940    0.2140    2.7100 ha        1 NPX      0.192000
     28 H101        0.6090    1.8900    3.6300 hc        1 NPX      0.060667
     29 H102        1.8080    1.4140    4.6090 hc        1 NPX      0.060667
     30 H103        0.3180    0.7260    4.7460 hc        1 NPX      0.060667
@<TRIPOS>BOND
     1    1    3 1   
     2    1    7 1   
     3    2   14 1   
     4    3    4 1   
     5    3   18 1   
     6    4   23 1   
     7    5    6 1   
     8    5    8 1   
     9    6   12 1   
    10    7   19 1   
    11    8   24 1   
    12    9   10 1   
    13    9   13 1   
    14   10   11 1   
    15   10   17 1   
    16   10   26 1   
    17   11   28 1   
    18   11   29 1   
    19   11   30 1   
    20   12   25 1   
    21   13   27 1   
    22   14   20 1   
    23   14   21 1   
    24   14   22 1   
    25   15   17 1   
    26   16   17 1   
@<TRIPOS>SUBSTRUCTURE
     1 NPX         1 TEMP              0 ****  ****    0 ROOT
