@<TRIPOS>MOLECULE
NPY
   18    14     1     0     0
SMALL
bcc


@<TRIPOS>ATOM
      1 C1          0.3600   -0.0000   -1.8140 c1        1 NPY     -0.066833
      2 C2          1.7490   -0.0000   -1.8140 c1        1 NPY     -0.066833
      3 C3          2.4450   -0.0000   -0.6090 c1        1 NPY     -0.066833
      4 C4          1.7520   -0.0000    0.5940 c1        1 NPY     -0.066833
      5 C4A         0.3440   -0.0000    0.5950 cg        1 NPY     -0.037000
      6 C5         -0.3600   -0.0000    1.8140 c1        1 NPY     -0.059500
      7 C6         -1.7490   -0.0000    1.8140 c1        1 NPY     -0.066833
      8 C7         -2.4450    0.0000    0.6090 c1        1 NPY     -0.066833
      9 C8         -1.7520    0.0000   -0.5940 c1        1 NPY     -0.059500
     10 C8A        -0.3440   -0.0000   -0.5950 cg        1 NPY     -0.037000
     11 H11        -0.1280   -0.0000   -2.6600 ha        1 NPY      0.074500
     12 H2          2.2370   -0.0000   -2.6600 ha        1 NPY      0.074500
     13 H3          3.4210    0.0000   -0.6100 ha        1 NPY      0.074500
     14 H4          2.2400   -0.0000    1.4390 ha        1 NPY      0.074500
     15 H5          0.1280   -0.0000    2.6600 ha        1 NPY      0.074500
     16 H6         -2.2370   -0.0000    2.6600 ha        1 NPY      0.074500
     17 H7         -3.4210    0.0000    0.6100 ha        1 NPY      0.074500
     18 H8         -2.2400    0.0000   -1.4390 ha        1 NPY      0.074500
@<TRIPOS>BOND
     1    1    2 3   
     2    1   11 1   
     3    2   12 1   
     4    3    4 3   
     5    3   13 1   
     6    4   14 1   
     7    5    6 3   
     8    5   10 1   
     9    6   15 1   
    10    7    8 3   
    11    7   16 1   
    12    8   17 1   
    13    9   10 3   
    14    9   18 1   
@<TRIPOS>SUBSTRUCTURE
     1 NPY         1 TEMP              0 ****  ****    0 ROOT
