@<TRIPOS>MOLECULE
NPY
   18    19     1     0     0
SMALL
bcc


@<TRIPOS>ATOM
      1 C1         -1.2420    1.4020   -0.0010 ca        1 NPY     -0.117000
      2 C2         -2.4270    0.7080   -0.0010 ca        1 NPY     -0.128000
      3 C3         -2.4270   -0.7080   -0.0000 ca        1 NPY     -0.128000
      4 C4         -1.2420   -1.4020   -0.0000 ca        1 NPY     -0.117000
      5 C4A         0.0000   -0.7100   -0.0000 ca        1 NPY     -0.037000
      6 C5          1.2420   -1.4020    0.0000 ca        1 NPY     -0.117000
      7 C6          2.4270   -0.7080    0.0000 ca        1 NPY     -0.128000
      8 C7          2.4270    0.7080    0.0000 ca        1 NPY     -0.128000
      9 C8          1.2420    1.4020   -0.0000 ca        1 NPY     -0.117000
     10 C8A         0.0000    0.7090   -0.0000 ca        1 NPY     -0.037000
     11 H11        -1.2320    2.5020   -0.0010 ha        1 NPY      0.132000
     12 H2         -3.3890    1.2410   -0.0010 ha        1 NPY      0.132000
     13 H3         -3.3890   -1.2410   -0.0000 ha        1 NPY      0.132000
     14 H4         -1.2320   -2.5020    0.0000 ha        1 NPY      0.132000
     15 H5          1.2320   -2.5020    0.0000 ha        1 NPY      0.132000
     16 H6          3.3890   -1.2410    0.0010 ha        1 NPY      0.132000
     17 H7          3.3890    1.2410    0.0000 ha        1 NPY      0.132000
     18 H8          1.2320    2.5020   -0.0000 ha        1 NPY      0.132000
@<TRIPOS>BOND
     1    1    2 ar  
     2    1   10 ar  
     3    1   11 1   
     4    2    3 ar  
     5    2   12 1   
     6    3    4 ar  
     7    3   13 1   
     8    4    5 ar  
     9    4   14 1   
    10    5    6 ar  
    11    5   10 ar  
    12    6    7 ar  
    13    6   15 1   
    14    7    8 ar  
    15    7   16 1   
    16    8    9 ar  
    17    8   17 1   
    18    9   10 ar  
    19    9   18 1   
@<TRIPOS>SUBSTRUCTURE
     1 NPY         1 TEMP              0 ****  ****    0 ROOT
