@<TRIPOS>MOLECULE
NPZ
   34    37     1     0     0
SMALL
bcc


@<TRIPOS>ATOM
      1 C6         -0.0960   -0.1740    0.0760 ca        1 NPZ      0.759200
      2 NAF        -0.8620   -0.1840   -1.0650 nh        1 NPZ     -0.956500
      3 C5          1.3260   -0.0600   -0.0060 ca        1 NPZ     -0.495500
      4 N1         -0.6940   -0.2330    1.3140 nb        1 NPZ     -0.800000
      5 C2          0.1190   -0.1700    2.4040 ca        1 NPZ      0.695900
      6 N3          1.4650   -0.0700    2.4800 nb        1 NPZ     -0.740000
      7 C4          2.0610   -0.0220    1.2480 ca        1 NPZ      0.470800
      8 NAT         3.4240    0.0350    0.8970 na        1 NPZ     -0.000800
      9 CAU         4.4980    0.2290    1.8400 c3        1 NPZ      0.047600
     10 NAP         3.5780    0.0750   -0.4420 nc        1 NPZ     -0.502100
     11 CAO         2.3550    0.0090   -1.0280 cd        1 NPZ      0.423500
     12 CAG         2.1470    0.0030   -2.4710 ca        1 NPZ     -0.100900
     13 CAH         1.3510    0.9550   -3.0740 ca        1 NPZ     -0.111000
     14 CAA         2.7890   -0.9910   -3.2590 ca        1 NPZ     -0.104000
     15 CAB         2.6050   -1.0230   -4.6190 ca        1 NPZ     -0.120000
     16 CAC         1.7770   -0.0630   -5.2620 ca        1 NPZ     -0.032000
     17 CAI         1.1470    0.9380   -4.4800 ca        1 NPZ     -0.044000
     18 CAD         1.5700   -0.0760   -6.6690 ca        1 NPZ     -0.119000
     19 CAE         0.7720    0.8700   -7.2640 ca        1 NPZ     -0.122000
     20 CAK         0.1450    1.8720   -6.4830 ca        1 NPZ     -0.127000
     21 CAJ         0.3280    1.9070   -5.1230 ca        1 NPZ     -0.116000
     22 H1AF       -1.8290   -0.3930   -1.0060 hn        1 NPZ      0.441300
     23 H2AF       -0.3980   -0.3200   -1.9310 hn        1 NPZ      0.441300
     24 H2         -0.4120   -0.2120    3.3800 h5        1 NPZ      0.052100
     25 H1AU        5.4520   -0.1930    1.4260 h1        1 NPZ      0.063033
     26 H2AU        4.2330   -0.2990    2.7940 h1        1 NPZ      0.063033
     27 H3AU        4.6370    1.3240    2.0450 h1        1 NPZ      0.063033
     28 HAH         0.8720    1.7480   -2.4780 ha        1 NPZ      0.147000
     29 HAA         3.4380   -1.7280   -2.7600 ha        1 NPZ      0.147000
     30 HAB         3.0990   -1.7910   -5.2340 ha        1 NPZ      0.137000
     31 HAD         2.0630   -0.8570   -7.2670 ha        1 NPZ      0.135000
     32 HAE         0.6110    0.8640   -8.3520 ha        1 NPZ      0.134000
     33 HAK        -0.4860    2.6210   -6.9840 ha        1 NPZ      0.135000
     34 HAJ        -0.1520    2.6840   -4.5080 ha        1 NPZ      0.136000
@<TRIPOS>BOND
     1    1    2 1   
     2    1    3 ar  
     3    1    4 ar  
     4    2   22 1   
     5    2   23 1   
     6    3    7 ar  
     7    3   11 1   
     8    4    5 ar  
     9    5    6 ar  
    10    5   24 1   
    11    6    7 ar  
    12    7    8 1   
    13    8    9 1   
    14    8   10 1   
    15    9   25 1   
    16    9   26 1   
    17    9   27 1   
    18   10   11 2   
    19   11   12 1   
    20   12   13 ar  
    21   12   14 ar  
    22   13   17 ar  
    23   13   28 1   
    24   14   15 ar  
    25   14   29 1   
    26   15   16 ar  
    27   15   30 1   
    28   16   17 ar  
    29   16   18 ar  
    30   17   21 ar  
    31   18   19 ar  
    32   18   31 1   
    33   19   20 ar  
    34   19   32 1   
    35   20   21 ar  
    36   20   33 1   
    37   21   34 1   
@<TRIPOS>SUBSTRUCTURE
     1 NPZ         1 TEMP              0 ****  ****    0 ROOT
