@<TRIPOS>MOLECULE
NPZ
   34    26     1     0     0
SMALL
bcc


@<TRIPOS>ATOM
      1 C6         -2.2830   -0.4300    2.0150 c1        1 NPZ      0.239000
      2 NAF        -3.4520   -0.4720    1.1720 n2        1 NPZ     -0.355000
      3 C5         -0.8900   -0.4570    2.0450 c1        1 NPZ     -0.281000
      4 N1         -2.9820   -0.3960    3.1690 n1        1 NPZ     -0.274000
      5 C2         -2.3290   -0.3880    4.3630 c1        1 NPZ      0.033000
      6 N3         -0.9570   -0.4150    4.3970 n1        1 NPZ     -0.214000
      7 C4         -0.2440   -0.4500    3.2260 c1        1 NPZ      0.079000
      8 NAT         1.1200   -0.4800    2.9670 n1        1 NPZ     -0.136000
      9 CAU         2.2090   -0.5160    3.8920 c2        1 NPZ     -0.051000
     10 NAP         1.2980   -0.5060    1.5790 n2        1 NPZ     -0.036000
     11 CAO         0.0920   -0.4920    1.0080 c1        1 NPZ     -0.031000
     12 CAG         0.3640   -0.4020   -0.3380 c1        1 NPZ     -0.025000
     13 CAH         0.5080    0.8370   -0.9210 c1        1 NPZ     -0.109500
     14 CAA         0.3790   -1.5090   -1.1030 c1        1 NPZ     -0.124000
     15 CAB         0.5410   -1.3960   -2.4830 c1        1 NPZ     -0.109500
     16 CAC         0.6860   -0.1410   -3.0660 c1        1 NPZ     -0.038000
     17 CAI         0.6710    0.9470   -2.3090 c1        1 NPZ     -0.038000
     18 CAD         0.8200   -0.0230   -4.4820 c1        1 NPZ     -0.109500
     19 CAE         0.9310    1.2200   -5.0580 c1        1 NPZ     -0.124000
     20 CAK         0.9140    2.3550   -4.2610 c1        1 NPZ     -0.124000
     21 CAJ         0.7860    2.2360   -2.9040 c1        1 NPZ     -0.109500
     22 H1AF       -4.2450   -0.3530    1.5210 hn        1 NPZ      0.237500
     23 H2AF       -3.3780   -0.7160    0.3530 hn        1 NPZ      0.237500
     24 H2         -2.8150   -0.3680    5.1570 ha        1 NPZ      0.189000
     25 H1AU        2.0370    0.1290    4.6370 ha        1 NPZ      0.102333
     26 H2AU        3.0160   -0.2770    3.4420 ha        1 NPZ      0.102333
     27 H3AU        2.2910   -1.3640    4.2350 ha        1 NPZ      0.102333
     28 HAH         0.5070    1.6260   -0.3780 ha        1 NPZ      0.138500
     29 HAA         0.2190   -2.3810   -0.7010 ha        1 NPZ      0.147000
     30 HAB         0.5530   -2.2440   -3.0770 ha        1 NPZ      0.138500
     31 HAD         0.8340   -0.7980   -5.0220 ha        1 NPZ      0.138500
     32 HAE         1.0250    1.3090   -6.0720 ha        1 NPZ      0.134500
     33 HAK         0.9950    3.2570   -4.6770 ha        1 NPZ      0.134500
     34 HAJ         0.7790    3.0610   -2.3240 ha        1 NPZ      0.138500
@<TRIPOS>BOND
     1    1    3 1   
     2    1    4 1   
     3    2   22 1   
     4    2   23 1   
     5    3    7 1   
     6    5    6 1   
     7    5   24 1   
     8    8   10 1   
     9    9   25 1   
    10    9   26 1   
    11    9   27 1   
    12   10   11 1   
    13   11   12 1   
    14   12   14 1   
    15   13   17 1   
    16   13   28 1   
    17   14   29 1   
    18   15   16 1   
    19   15   30 1   
    20   16   18 1   
    21   17   21 1   
    22   18   31 1   
    23   19   20 1   
    24   19   32 1   
    25   20   33 1   
    26   21   34 1   
@<TRIPOS>SUBSTRUCTURE
     1 NPZ         1 TEMP              0 ****  ****    0 ROOT
