@<TRIPOS>MOLECULE
NPZ
   34    37     1     0     0
SMALL
bcc


@<TRIPOS>ATOM
      1 C6         -1.8060    1.7370   -0.5540 ca        1 NPZ      0.760200
      2 NAF        -0.5970    2.3390   -0.8100 nh        1 NPZ     -0.956500
      3 C5         -1.8620    0.3710   -0.1360 ca        1 NPZ     -0.495500
      4 N1         -2.9750    2.4550   -0.6600 nb        1 NPZ     -0.800000
      5 C2         -4.1330    1.8140   -0.3410 ca        1 NPZ      0.695900
      6 N3         -4.3400    0.5400    0.0610 nb        1 NPZ     -0.740000
      7 C4         -3.1770   -0.1780    0.1540 ca        1 NPZ      0.470800
      8 NAT        -2.9620   -1.5180    0.5300 na        1 NPZ     -0.000800
      9 CAU        -4.0120   -2.4620    0.8220 c3        1 NPZ      0.048600
     10 NAP        -1.6530   -1.8350    0.4690 nc        1 NPZ     -0.501100
     11 CAO        -0.9510   -0.7350    0.0900 cd        1 NPZ      0.422500
     12 CAG         0.4980   -0.7120   -0.0600 ca        1 NPZ     -0.100900
     13 CAH         1.2680    0.1870    0.6490 ca        1 NPZ     -0.110000
     14 CAA         1.1190   -1.6410   -0.9410 ca        1 NPZ     -0.104000
     15 CAB         2.4810   -1.6350   -1.1060 ca        1 NPZ     -0.120000
     16 CAC         3.2950   -0.7080   -0.3980 ca        1 NPZ     -0.032000
     17 CAI         2.6790    0.2090    0.4910 ca        1 NPZ     -0.044000
     18 CAD         4.7080   -0.6820   -0.5530 ca        1 NPZ     -0.119000
     19 CAE         5.4690    0.2180    0.1510 ca        1 NPZ     -0.122000
     20 CAK         4.8550    1.1330    1.0420 ca        1 NPZ     -0.127000
     21 CAJ         3.4920    1.1300    1.2090 ca        1 NPZ     -0.116000
     22 H1AF        0.2000    1.7540   -0.8990 hn        1 NPZ      0.441800
     23 H2AF       -0.5740    3.2420   -1.2170 hn        1 NPZ      0.441800
     24 H2         -5.0480    2.4380   -0.4360 h5        1 NPZ      0.052100
     25 H1AU       -4.3640   -2.9460   -0.1280 h1        1 NPZ      0.063367
     26 H2AU       -3.6350   -3.2540    1.5220 h1        1 NPZ      0.063367
     27 H3AU       -4.8660   -1.9110    1.2980 h1        1 NPZ      0.063367
     28 HAH         0.8020    0.8920    1.3560 ha        1 NPZ      0.147000
     29 HAA         0.4880   -2.3640   -1.4800 ha        1 NPZ      0.147000
     30 HAB         2.9660   -2.3500   -1.7870 ha        1 NPZ      0.137000
     31 HAD         5.1750   -1.3980   -1.2460 ha        1 NPZ      0.135000
     32 HAE         6.5620    0.2400    0.0340 ha        1 NPZ      0.134000
     33 HAK         5.4870    1.8420    1.5970 ha        1 NPZ      0.135000
     34 HAJ         3.0070    1.8340    1.9020 ha        1 NPZ      0.136000
@<TRIPOS>BOND
     1    1    2 1   
     2    1    3 ar  
     3    1    4 ar  
     4    2   22 1   
     5    2   23 1   
     6    3    7 ar  
     7    3   11 1   
     8    4    5 ar  
     9    5    6 ar  
    10    5   24 1   
    11    6    7 ar  
    12    7    8 1   
    13    8    9 1   
    14    8   10 1   
    15    9   25 1   
    16    9   26 1   
    17    9   27 1   
    18   10   11 2   
    19   11   12 1   
    20   12   13 ar  
    21   12   14 ar  
    22   13   17 ar  
    23   13   28 1   
    24   14   15 ar  
    25   14   29 1   
    26   15   16 ar  
    27   15   30 1   
    28   16   17 ar  
    29   16   18 ar  
    30   17   21 ar  
    31   18   19 ar  
    32   18   31 1   
    33   19   20 ar  
    34   19   32 1   
    35   20   21 ar  
    36   20   33 1   
    37   21   34 1   
@<TRIPOS>SUBSTRUCTURE
     1 NPZ         1 TEMP              0 ****  ****    0 ROOT
