@<TRIPOS>MOLECULE
NPZ
   34    37     1     0     0
SMALL
bcc


@<TRIPOS>ATOM
      1 C6         -0.1010   -0.1870    0.0760 ca        1 NPZ      0.759200
      2 NAF        -0.8670   -0.2010   -1.0660 nv        1 NPZ     -0.956500
      3 C5          1.3210   -0.0660   -0.0060 ca        1 NPZ     -0.495500
      4 N1         -0.7000   -0.2490    1.3130 nb        1 NPZ     -0.800000
      5 C2          0.1120   -0.1820    2.4040 ca        1 NPZ      0.695900
      6 N3          1.4580   -0.0760    2.4810 nb        1 NPZ     -0.740000
      7 C4          2.0540   -0.0250    1.2490 ca        1 NPZ      0.470800
      8 NAT         3.4170    0.0380    0.8990 na        1 NPZ     -0.000800
      9 CAU         4.4900    0.2360    1.8430 c3        1 NPZ      0.047600
     10 NAP         3.5720    0.0780   -0.4400 nc        1 NPZ     -0.502100
     11 CAO         2.3490    0.0070   -1.0270 cd        1 NPZ      0.423500
     12 CAG         2.1430    0.0000   -2.4700 ca        1 NPZ     -0.100900
     13 CAH         1.3420    0.9480   -3.0730 ca        1 NPZ     -0.111000
     14 CAA         2.7900   -0.9910   -3.2580 ca        1 NPZ     -0.104000
     15 CAB         2.6070   -1.0240   -4.6170 ca        1 NPZ     -0.120000
     16 CAC         1.7750   -0.0670   -5.2610 ca        1 NPZ     -0.032000
     17 CAI         1.1400    0.9310   -4.4790 ca        1 NPZ     -0.044000
     18 CAD         1.5690   -0.0810   -6.6680 ca        1 NPZ     -0.119000
     19 CAE         0.7670    0.8620   -7.2630 ca        1 NPZ     -0.122000
     20 CAK         0.1360    1.8600   -6.4830 ca        1 NPZ     -0.127000
     21 CAJ         0.3160    1.8960   -5.1220 ca        1 NPZ     -0.116000
     22 H1AF       -1.8330   -0.4130   -1.0070 hn        1 NPZ      0.441300
     23 H2AF       -0.4010   -0.3350   -1.9320 hn        1 NPZ      0.441300
     24 H2         -0.4200   -0.2270    3.3790 h5        1 NPZ      0.052100
     25 H1AU        4.6250    1.3320    2.0460 h1        1 NPZ      0.063033
     26 H2AU        5.4460   -0.1830    1.4300 h1        1 NPZ      0.063033
     27 H3AU        4.2250   -0.2910    2.7970 h1        1 NPZ      0.063033
     28 HAH         0.8590    1.7380   -2.4770 ha        1 NPZ      0.147000
     29 HAA         3.4420   -1.7240   -2.7580 ha        1 NPZ      0.147000
     30 HAB         3.1050   -1.7890   -5.2320 ha        1 NPZ      0.137000
     31 HAD         2.0670   -0.8590   -7.2660 ha        1 NPZ      0.135000
     32 HAE         0.6070    0.8540   -8.3520 ha        1 NPZ      0.134000
     33 HAK        -0.5000    2.6060   -6.9840 ha        1 NPZ      0.135000
     34 HAJ        -0.1680    2.6700   -4.5080 ha        1 NPZ      0.136000
@<TRIPOS>BOND
     1    1    2 1   
     2    1    3 ar  
     3    1    4 ar  
     4    2   22 1   
     5    2   23 1   
     6    3    7 ar  
     7    3   11 1   
     8    4    5 ar  
     9    5    6 ar  
    10    5   24 1   
    11    6    7 ar  
    12    7    8 1   
    13    8    9 1   
    14    8   10 1   
    15    9   25 1   
    16    9   26 1   
    17    9   27 1   
    18   10   11 2   
    19   11   12 1   
    20   12   13 ar  
    21   12   14 ar  
    22   13   17 ar  
    23   13   28 1   
    24   14   15 ar  
    25   14   29 1   
    26   15   16 ar  
    27   15   30 1   
    28   16   17 ar  
    29   16   18 ar  
    30   17   21 ar  
    31   18   19 ar  
    32   18   31 1   
    33   19   20 ar  
    34   19   32 1   
    35   20   21 ar  
    36   20   33 1   
    37   21   34 1   
@<TRIPOS>SUBSTRUCTURE
     1 NPZ         1 TEMP              0 ****  ****    0 ROOT
