@<TRIPOS>MOLECULE
NPZ
   35    38     1     0     0
SMALL
bcc


@<TRIPOS>ATOM
      1 C6         -0.0390   -0.2280    0.0840 ca        1 NPZ      0.559200
      2 NAF        -0.8370   -0.3450   -1.1550 n4        1 NPZ     -0.834300
      3 C5          1.3500   -0.0630   -0.0180 ca        1 NPZ     -0.431500
      4 N1         -0.6750   -0.2920    1.2740 nb        1 NPZ     -0.696000
      5 C2          0.1140   -0.1960    2.3950 ca        1 NPZ      0.684900
      6 N3          1.4530   -0.0500    2.4730 nb        1 NPZ     -0.621000
      7 C4          2.0770    0.0150    1.2600 ca        1 NPZ      0.456800
      8 NAT         3.4330    0.1390    0.9150 na        1 NPZ      0.036200
      9 CAU         4.5070    0.3110    1.8750 c3        1 NPZ      0.031600
     10 NAP         3.5950    0.1620   -0.4190 nc        1 NPZ     -0.416100
     11 CAO         2.3870    0.0430   -1.0270 cd        1 NPZ      0.407500
     12 CAG         2.1560    0.0150   -2.4650 ca        1 NPZ     -0.137900
     13 CAH         1.4310    1.0220   -3.0750 ca        1 NPZ     -0.148000
     14 CAA         2.6870   -1.0540   -3.2340 ca        1 NPZ     -0.121000
     15 CAB         2.4590   -1.1060   -4.5880 ca        1 NPZ     -0.089000
     16 CAC         1.6970   -0.0970   -5.2370 ca        1 NPZ     -0.030000
     17 CAI         1.1830    0.9830   -4.4720 ca        1 NPZ     -0.050000
     18 CAD         1.4530   -0.1310   -6.6380 ca        1 NPZ     -0.114000
     19 CAE         0.7370    0.8720   -7.2440 ca        1 NPZ     -0.103000
     20 CAK         0.2330    1.9540   -6.4810 ca        1 NPZ     -0.099000
     21 CAJ         0.4480    2.0100   -5.1260 ca        1 NPZ     -0.134000
     22 H1AF       -1.6460    0.2870   -1.1210 hn        1 NPZ      0.478800
     23 H2AF       -0.2330   -0.1030   -1.9620 hn        1 NPZ      0.478800
     24 H2         -0.4380   -0.2500    3.3630 h5        1 NPZ      0.100100
     25 H1AU        5.4850    0.0090    1.4130 h1        1 NPZ      0.087700
     26 H2AU        4.2910   -0.3340    2.7680 h1        1 NPZ      0.087700
     27 H3AU        4.5550    1.3900    2.1860 h1        1 NPZ      0.087700
     28 HAH         1.0900    1.8990   -2.5030 ha        1 NPZ      0.139000
     29 HAA         3.2960   -1.8240   -2.7350 ha        1 NPZ      0.157000
     30 HAB         2.8770   -1.9260   -5.1940 ha        1 NPZ      0.158000
     31 HAD         1.8570   -0.9710   -7.2250 ha        1 NPZ      0.152000
     32 HAE         0.5520    0.8530   -8.3300 ha        1 NPZ      0.155000
     33 HAK        -0.3280    2.7530   -6.9930 ha        1 NPZ      0.152000
     34 HAJ         0.0750    2.8580   -4.5310 ha        1 NPZ      0.138000
     35 HAF3       -1.1740   -1.3100   -1.2540 hn        1 NPZ      0.478800
@<TRIPOS>BOND
     1    1    2 1   
     2    1    3 ar  
     3    1    4 ar  
     4    2   22 1   
     5    2   23 1   
     6    2   35 1   
     7    3    7 ar  
     8    3   11 1   
     9    4    5 ar  
    10    5    6 ar  
    11    5   24 1   
    12    6    7 ar  
    13    7    8 1   
    14    8    9 1   
    15    8   10 1   
    16    9   25 1   
    17    9   26 1   
    18    9   27 1   
    19   10   11 2   
    20   11   12 1   
    21   12   13 ar  
    22   12   14 ar  
    23   13   17 ar  
    24   13   28 1   
    25   14   15 ar  
    26   14   29 1   
    27   15   16 ar  
    28   15   30 1   
    29   16   17 ar  
    30   16   18 ar  
    31   17   21 ar  
    32   18   19 ar  
    33   18   31 1   
    34   19   20 ar  
    35   19   32 1   
    36   20   21 ar  
    37   20   33 1   
    38   21   34 1   
@<TRIPOS>SUBSTRUCTURE
     1 NPZ         1 TEMP              0 ****  ****    0 ROOT
