@<TRIPOS>MOLECULE
NQ
   19    17     1     0     0
SMALL
bcc


@<TRIPOS>ATOM
      1 OAB        -2.6040    0.0360   -1.0300 o         1 NQ      -0.282000
      2 CAK        -1.3890    0.0360   -1.0300 c1        1 NQ       0.276000
      3 CAM        -0.6130    0.0360    0.3140 c1        1 NQ      -0.120000
      4 CAG        -1.3120    0.0360    1.5220 c2        1 NQ      -0.077000
      5 CAE        -0.6160    0.0360    2.7310 c1        1 NQ      -0.122000
      6 CAD         0.7890    0.0360    2.7330 c1        1 NQ      -0.097000
      7 CAF         1.4890    0.0360    1.5270 c1        1 NQ      -0.097000
      8 CAL         0.7940    0.0360    0.3160 c1        1 NQ      -0.103000
      9 CAJ         1.5740    0.0360   -1.0260 c2        1 NQ       0.299000
     10 OAA         2.7890    0.0400   -1.0220 o         1 NQ      -0.275000
     11 CAH         0.8310    0.0360   -2.3220 c2        1 NQ      -0.234000
     12 CAI        -0.6430    0.0360   -2.3240 c2        1 NQ       0.034000
     13 OAC        -1.3450    0.1010   -3.5410 oh        1 NQ      -0.236000
     14 HAG        -2.2880    0.0360    1.5220 ha        1 NQ       0.159000
     15 HAE        -1.1050    0.0360    3.5760 ha        1 NQ       0.145000
     16 HAD         1.2750    0.0360    3.5800 ha        1 NQ       0.154000
     17 HAF         2.4650    0.0360    1.5290 ha        1 NQ       0.154000
     18 HAH         1.3210    0.0360   -3.1660 ha        1 NQ       0.176000
     19 HAC        -1.4110   -0.7130   -3.8890 ho        1 NQ       0.244000
@<TRIPOS>BOND
     1    1    2 1   
     2    2   12 1   
     3    3    4 1   
     4    3    8 1   
     5    4    5 1   
     6    4   14 1   
     7    5   15 1   
     8    6    7 1   
     9    6   16 1   
    10    7   17 1   
    11    8    9 1   
    12    9   10 1   
    13    9   11 1   
    14   11   12 1   
    15   11   18 1   
    16   12   13 1   
    17   13   19 1   
@<TRIPOS>SUBSTRUCTURE
     1 NQ          1 TEMP              0 ****  ****    0 ROOT
