@<TRIPOS>MOLECULE
NQ
   19    20     1     0     0
SMALL
bcc


@<TRIPOS>ATOM
      1 OAB         0.0150   -0.2080   -0.1230 o         1 NQ      -0.521100
      2 CAK         1.2490   -0.1410   -0.0460 c         1 NQ       0.554900
      3 CAM         1.9910   -0.0700    1.2220 ca        1 NQ      -0.140600
      4 CAG         1.2860   -0.0760    2.4290 ca        1 NQ      -0.077000
      5 CAE         1.9710   -0.0100    3.6430 ca        1 NQ      -0.122000
      6 CAD         3.3620    0.0640    3.6550 ca        1 NQ      -0.106000
      7 CAF         4.0730    0.0710    2.4530 ca        1 NQ      -0.088000
      8 CAL         3.3970    0.0050    1.2320 ca        1 NQ      -0.123600
      9 CAJ         4.1760    0.0140   -0.0310 c         1 NQ       0.577900
     10 OAA         5.4130    0.0800   -0.0290 o         1 NQ      -0.514100
     11 CAH         3.4160   -0.0580   -1.2830 cc        1 NQ      -0.253200
     12 CAI         2.0680   -0.1290   -1.2900 cd        1 NQ       0.058900
     13 OAC         1.4110   -0.1940   -2.4910 oh        1 NQ      -0.481100
     14 HAG         0.1850   -0.1350    2.4090 ha        1 NQ       0.159000
     15 HAE         1.4090   -0.0150    4.5890 ha        1 NQ       0.145000
     16 HAD         3.9050    0.1170    4.6110 ha        1 NQ       0.144000
     17 HAF         5.1750    0.1300    2.4530 ha        1 NQ       0.164000
     18 HAH         3.9980   -0.0510   -2.2180 ha        1 NQ       0.176000
     19 HAC         0.4550   -0.2400   -2.3110 ho        1 NQ       0.445000
@<TRIPOS>BOND
     1    1    2 2   
     2    2    3 1   
     3    2   12 1   
     4    3    4 ar  
     5    3    8 ar  
     6    4    5 ar  
     7    4   14 1   
     8    5    6 ar  
     9    5   15 1   
    10    6    7 ar  
    11    6   16 1   
    12    7    8 ar  
    13    7   17 1   
    14    8    9 1   
    15    9   10 2   
    16    9   11 1   
    17   11   12 2   
    18   11   18 1   
    19   12   13 1   
    20   13   19 1   
@<TRIPOS>SUBSTRUCTURE
     1 NQ          1 TEMP              0 ****  ****    0 ROOT
