@<TRIPOS>MOLECULE
NQ
   19    20     1     0     0
SMALL
bcc


@<TRIPOS>ATOM
      1 OAB         1.3250   -2.3220    0.0020 o         1 NQ      -0.474100
      2 CAK         0.9880   -1.1360    0.0010 c         1 NQ       0.578900
      3 CAM        -0.4220   -0.6990    0.0010 ca        1 NQ      -0.139600
      4 CAG        -1.4270   -1.6720    0.0010 ca        1 NQ      -0.082000
      5 CAE        -2.7720   -1.2960    0.0010 ca        1 NQ      -0.119000
      6 CAD        -3.1180    0.0530    0.0000 ca        1 NQ      -0.111000
      7 CAF        -2.1210    1.0300   -0.0000 ca        1 NQ      -0.087000
      8 CAL        -0.7720    0.6630    0.0000 ca        1 NQ      -0.127600
      9 CAJ         0.2640    1.7220   -0.0000 c         1 NQ       0.586900
     10 OAA        -0.0290    2.9260   -0.0010 o         1 NQ      -0.522100
     11 CAH         1.6590    1.2760   -0.0000 cc        1 NQ      -0.324200
     12 CAI         1.9940   -0.0320    0.0010 cd        1 NQ       0.083900
     13 OAC         3.2790   -0.4960    0.0010 oh        1 NQ      -0.462100
     14 HAG        -1.1440   -2.7380    0.0020 ha        1 NQ       0.160000
     15 HAE        -3.5550   -2.0700    0.0010 ha        1 NQ       0.144000
     16 HAD        -4.1770    0.3530   -0.0000 ha        1 NQ       0.143000
     17 HAF        -2.3850    2.1010   -0.0010 ha        1 NQ       0.163000
     18 HAH         2.4200    2.0720   -0.0010 ha        1 NQ       0.160000
     19 HAC         3.8830    0.2640    0.0010 ho        1 NQ       0.428000
@<TRIPOS>BOND
     1    1    2 2   
     2    2    3 1   
     3    2   12 1   
     4    3    4 ar  
     5    3    8 ar  
     6    4    5 ar  
     7    4   14 1   
     8    5    6 ar  
     9    5   15 1   
    10    6    7 ar  
    11    6   16 1   
    12    7    8 ar  
    13    7   17 1   
    14    8    9 1   
    15    9   10 2   
    16    9   11 1   
    17   11   12 2   
    18   11   18 1   
    19   12   13 1   
    20   13   19 1   
@<TRIPOS>SUBSTRUCTURE
     1 NQ          1 TEMP              0 ****  ****    0 ROOT
