@<TRIPOS>MOLECULE
NQB
   59    63     1     0     0
SMALL
bcc


@<TRIPOS>ATOM
      1 C1          0.1120   -0.0510    0.1540 c3        1 NQB      0.158800
      2 C2          1.6180    0.0710    0.4680 c3        1 NQB      0.159300
      3 C8          1.7460    1.1860    2.6250 c3        1 NQB      0.147100
      4 C9         -2.7660   -2.0400    1.4670 ca        1 NQB     -0.143000
      5 C10        -1.9420   -1.2660    0.6160 ca        1 NQB      0.174600
      6 C11        -2.5440   -0.7190   -0.5530 ca        1 NQB     -0.155000
      7 C12        -3.8670   -0.9570   -0.8760 ca        1 NQB     -0.063000
      8 C14        -7.1980   -4.0100    3.7660 ca        1 NQB     -0.034000
      9 C15        -7.9860   -4.8560    4.5510 ca        1 NQB     -0.205600
     10 C16        -8.7380   -5.8820    3.9590 ca        1 NQB     -0.103000
     11 C19        -8.0090   -4.6050    5.9910 c         1 NQB      0.591700
     12 C20        -9.0850   -6.0170    7.7340 cx        1 NQB     -0.003500
     13 C21        -9.2900   -7.2890    8.5330 cx        1 NQB     -0.102900
     14 C22       -10.2020   -6.9790    7.3870 cx        1 NQB     -0.102900
     15 N29        -6.2550   -3.3680    1.6170 n         1 NQB     -0.337500
     16 C30        -4.9240   -3.1100    2.0460 c         1 NQB      0.720100
     17 N3          1.9780   -0.0250    1.8700 n3        1 NQB     -0.716600
     18 C4          1.3890   -1.2130    2.4550 c3        1 NQB      0.159300
     19 C5         -0.1260   -1.3930    2.2250 c3        1 NQB      0.158800
     20 C17        -8.6670   -6.0650    2.5880 ca        1 NQB     -0.119000
     21 C18        -7.8450   -5.2640    1.7760 ca        1 NQB     -0.010300
     22 C23        -7.7900   -5.5680    0.3270 c3        1 NQB     -0.083800
     23 O24        -8.0420   -3.5500    6.6030 o         1 NQB     -0.409100
     24 C13        -7.1070   -4.2100    2.3690 ca        1 NQB      0.059600
     25 C25        -4.0990   -2.2830    1.1390 ca        1 NQB     -0.135600
     26 C26        -4.6810   -1.7520   -0.0400 ca        1 NQB      0.104400
     27 N27        -6.0240   -1.9980   -0.3650 nc        1 NQB     -0.556100
     28 C28        -6.7220   -2.7560    0.4310 cd        1 NQB      0.456800
     29 N5         -0.5720   -1.1110    0.8730 nh        1 NQB     -0.637000
     30 O29        -4.5270   -3.5750    3.1310 o         1 NQB     -0.634500
     31 N32        -7.9120   -5.8610    6.8620 n4        1 NQB     -0.648800
     32 H11C        0.0300   -0.2700   -0.9490 h1        1 NQB      0.045700
     33 H12C       -0.3840    0.9430    0.3550 h1        1 NQB      0.045700
     34 H21C        2.1680   -0.7530   -0.0680 h1        1 NQB      0.067200
     35 H22C        1.9720    1.0560    0.0550 h1        1 NQB      0.067200
     36 H81C        2.3110    2.0260    2.1430 h1        1 NQB      0.037033
     37 H82C        2.1390    1.0420    3.6660 h1        1 NQB      0.037033
     38 H83C        0.6610    1.4740    2.6890 h1        1 NQB      0.037033
     39 H9         -2.3850   -2.4760    2.4050 ha        1 NQB      0.161000
     40 H11        -1.9590   -0.0850   -1.2400 ha        1 NQB      0.150000
     41 H12        -4.2920   -0.5200   -1.7950 ha        1 NQB      0.161000
     42 H14        -6.6190   -3.1980    4.2460 ha        1 NQB      0.185000
     43 H16        -9.4040   -6.5200    4.5600 ha        1 NQB      0.134000
     44 H17        -9.2600   -6.8670    2.1150 ha        1 NQB      0.164000
     45 H32        -7.7990   -6.6840    6.2610 hn        1 NQB      0.458800
     46 H20        -9.3390   -5.0360    8.2040 hx        1 NQB      0.157700
     47 H211       -9.6560   -7.1810    9.5730 hc        1 NQB      0.109700
     48 H212       -8.5740   -8.1260    8.4390 hc        1 NQB      0.109700
     49 H221      -11.2400   -6.6440    7.5820 hc        1 NQB      0.109700
     50 H222      -10.1390   -7.5970    6.4710 hc        1 NQB      0.109700
     51 H28        -7.7880   -2.9410    0.1820 h5        1 NQB      0.059800
     52 H41C        1.9300   -2.0970    2.0120 h1        1 NQB      0.067200
     53 H42C        1.5650   -1.2140    3.5660 h1        1 NQB      0.067200
     54 H51C       -0.3610   -2.4730    2.4490 h1        1 NQB      0.045700
     55 H52C       -0.6870   -0.7500    2.9650 h1        1 NQB      0.045700
     56 H231       -6.7860   -5.3400   -0.1110 hc        1 NQB      0.073367
     57 H232       -8.5600   -4.9680   -0.2220 hc        1 NQB      0.073367
     58 H233       -8.0060   -6.6510    0.1430 hc        1 NQB      0.073367
     59 H322       -7.0800   -5.7730    7.4600 hn        1 NQB      0.458800
@<TRIPOS>BOND
     1    1    2 1   
     2    1   29 1   
     3    1   32 1   
     4    1   33 1   
     5    2   17 1   
     6    2   34 1   
     7    2   35 1   
     8    3   17 1   
     9    3   36 1   
    10    3   37 1   
    11    3   38 1   
    12    4    5 ar  
    13    4   25 ar  
    14    4   39 1   
    15    5    6 ar  
    16    5   29 1   
    17    6    7 ar  
    18    6   40 1   
    19    7   26 ar  
    20    7   41 1   
    21    8    9 ar  
    22    8   24 ar  
    23    8   42 1   
    24    9   10 ar  
    25    9   11 1   
    26   10   20 ar  
    27   10   43 1   
    28   11   23 2   
    29   11   31 1   
    30   12   13 1   
    31   12   14 1   
    32   12   31 1   
    33   12   46 1   
    34   13   14 1   
    35   13   47 1   
    36   13   48 1   
    37   14   49 1   
    38   14   50 1   
    39   15   16 1   
    40   15   24 1   
    41   15   28 1   
    42   16   25 1   
    43   16   30 2   
    44   17   18 1   
    45   18   19 1   
    46   18   52 1   
    47   18   53 1   
    48   19   29 1   
    49   19   54 1   
    50   19   55 1   
    51   20   21 ar  
    52   20   44 1   
    53   21   22 1   
    54   21   24 ar  
    55   22   56 1   
    56   22   57 1   
    57   22   58 1   
    58   25   26 ar  
    59   26   27 1   
    60   27   28 2   
    61   28   51 1   
    62   31   45 1   
    63   31   59 1   
@<TRIPOS>SUBSTRUCTURE
     1 NQB         1 TEMP              0 ****  ****    0 ROOT
