@<TRIPOS>MOLECULE
NQB
   59    63     1     0     0
SMALL
bcc


@<TRIPOS>ATOM
      1 C1          0.1190   -0.0380    0.1800 c3        1 NQB      0.158800
      2 C2          1.6190    0.1040    0.5150 c3        1 NQB      0.159300
      3 C8          1.7040    1.2460    2.6590 c3        1 NQB      0.147100
      4 C9         -2.7580   -2.0400    1.4780 ca        1 NQB     -0.143000
      5 C10        -1.9300   -1.2690    0.6280 ca        1 NQB      0.174600
      6 C11        -2.5200   -0.7430   -0.5570 ca        1 NQB     -0.155000
      7 C12        -3.8350   -1.0000   -0.8950 ca        1 NQB     -0.063000
      8 C14        -7.2030   -4.0240    3.7390 ca        1 NQB     -0.034000
      9 C15        -7.9940   -4.8670    4.5240 ca        1 NQB     -0.205600
     10 C16        -8.7260   -5.9090    3.9360 ca        1 NQB     -0.103000
     11 C19        -8.0400   -4.5970    5.9600 c         1 NQB      0.591700
     12 C20        -9.1260   -5.9970    7.7070 cx        1 NQB     -0.003500
     13 C21        -9.3300   -7.2600    8.5200 cx        1 NQB     -0.102900
     14 C22       -10.2290   -6.9740    7.3570 cx        1 NQB     -0.102900
     15 N29        -6.2350   -3.4010    1.5950 n         1 NQB     -0.337500
     16 C30        -4.9130   -3.1240    2.0400 c         1 NQB      0.720100
     17 N3          1.9590    0.0290    1.9220 n3        1 NQB     -0.716600
     18 C4          1.3740   -1.1580    2.5140 c3        1 NQB      0.159300
     19 C5         -0.1360   -1.3570    2.2650 c3        1 NQB      0.158800
     20 C17        -8.6340   -6.1090    2.5680 ca        1 NQB     -0.119000
     21 C18        -7.8090   -5.3110    1.7570 ca        1 NQB     -0.010300
     22 C23        -7.7290   -5.6340    0.3130 c3        1 NQB     -0.083800
     23 O24        -8.0930   -3.5350    6.5570 o         1 NQB     -0.409100
     24 C13        -7.0900   -4.2420    2.3470 ca        1 NQB      0.059600
     25 C25        -4.0840   -2.3010    1.1340 ca        1 NQB     -0.135600
     26 C26        -4.6530   -1.7920   -0.0600 ca        1 NQB      0.104400
     27 N27        -5.9890   -2.0550   -0.4010 nc        1 NQB     -0.556100
     28 C28        -6.6910   -2.8100    0.3940 cd        1 NQB      0.456800
     29 N5         -0.5650   -1.0960    0.9030 nh        1 NQB     -0.637000
     30 O29        -4.5270   -3.5700    3.1360 o         1 NQB     -0.634500
     31 N32        -7.9420   -5.8400    6.8490 ny        1 NQB     -0.648800
     32 H11C        0.0540   -0.2730   -0.9210 h1        1 NQB      0.045700
     33 H12C       -0.3910    0.9530    0.3610 h1        1 NQB      0.045700
     34 H21C        2.1850   -0.7220   -0.0030 h1        1 NQB      0.067200
     35 H22C        1.9680    1.0870    0.0940 h1        1 NQB      0.067200
     36 H81C        0.6150    1.5230    2.7040 h1        1 NQB      0.037033
     37 H82C        2.0840    1.1190    3.7070 h1        1 NQB      0.037033
     38 H83C        2.2670    2.0860    2.1740 h1        1 NQB      0.037033
     39 H9         -2.3870   -2.4600    2.4270 ha        1 NQB      0.161000
     40 H11        -1.9320   -0.1130   -1.2430 ha        1 NQB      0.150000
     41 H12        -4.2520   -0.5790   -1.8260 ha        1 NQB      0.161000
     42 H14        -6.6390   -3.2000    4.2160 ha        1 NQB      0.185000
     43 H16        -9.3950   -6.5460    4.5350 ha        1 NQB      0.134000
     44 H17        -9.2120   -6.9230    2.0980 ha        1 NQB      0.164000
     45 H32        -7.1200   -5.7370    7.4580 hn        1 NQB      0.458800
     46 H20        -9.3960   -5.0120    8.1600 hx        1 NQB      0.157700
     47 H211       -8.6040   -8.0910    8.4480 hc        1 NQB      0.109700
     48 H212       -9.7120   -7.1420    9.5540 hc        1 NQB      0.109700
     49 H221      -10.1470   -7.6040    6.4500 hc        1 NQB      0.109700
     50 H222      -11.2730   -6.6480    7.5330 hc        1 NQB      0.109700
     51 H28        -7.7520   -3.0090    0.1330 h5        1 NQB      0.059800
     52 H41C        1.9300   -2.0420    2.0900 h1        1 NQB      0.067200
     53 H42C        1.5340   -1.1430    3.6270 h1        1 NQB      0.067200
     54 H51C       -0.3630   -2.4360    2.4990 h1        1 NQB      0.045700
     55 H52C       -0.7140   -0.7100    2.9880 h1        1 NQB      0.045700
     56 H231       -8.4980   -5.0490   -0.2550 hc        1 NQB      0.073367
     57 H232       -7.9320   -6.7220    0.1410 hc        1 NQB      0.073367
     58 H233       -6.7210   -5.4020   -0.1130 hc        1 NQB      0.073367
     59 H322       -7.8140   -6.6700    6.2610 hn        1 NQB      0.458800
@<TRIPOS>BOND
     1    1    2 1   
     2    1   29 1   
     3    1   32 1   
     4    1   33 1   
     5    2   17 1   
     6    2   34 1   
     7    2   35 1   
     8    3   17 1   
     9    3   36 1   
    10    3   37 1   
    11    3   38 1   
    12    4    5 ar  
    13    4   25 ar  
    14    4   39 1   
    15    5    6 ar  
    16    5   29 1   
    17    6    7 ar  
    18    6   40 1   
    19    7   26 ar  
    20    7   41 1   
    21    8    9 ar  
    22    8   24 ar  
    23    8   42 1   
    24    9   10 ar  
    25    9   11 1   
    26   10   20 ar  
    27   10   43 1   
    28   11   23 2   
    29   11   31 1   
    30   12   13 1   
    31   12   14 1   
    32   12   31 1   
    33   12   46 1   
    34   13   14 1   
    35   13   47 1   
    36   13   48 1   
    37   14   49 1   
    38   14   50 1   
    39   15   16 1   
    40   15   24 1   
    41   15   28 1   
    42   16   25 1   
    43   16   30 2   
    44   17   18 1   
    45   18   19 1   
    46   18   52 1   
    47   18   53 1   
    48   19   29 1   
    49   19   54 1   
    50   19   55 1   
    51   20   21 ar  
    52   20   44 1   
    53   21   22 1   
    54   21   24 ar  
    55   22   56 1   
    56   22   57 1   
    57   22   58 1   
    58   25   26 ar  
    59   26   27 1   
    60   27   28 2   
    61   28   51 1   
    62   31   45 1   
    63   31   59 1   
@<TRIPOS>SUBSTRUCTURE
     1 NQB         1 TEMP              0 ****  ****    0 ROOT
