@<TRIPOS>MOLECULE
NQB
   58    57     1     0     0
SMALL
bcc


@<TRIPOS>ATOM
      1 C1          4.2420    1.6580   -3.2260 c3        1 NQB     -0.099000
      2 C2          5.7620    1.6160   -3.3170 c3        1 NQB     -0.075000
      3 C8          6.1420    3.9250   -3.1750 c3        1 NQB     -0.127000
      4 C9          1.6030    0.9100   -1.1850 c1        1 NQB     -0.040000
      5 C10         2.3420    1.8780   -1.8610 c1        1 NQB     -0.014000
      6 C11         1.6900    2.8590   -2.6070 c1        1 NQB     -0.120000
      7 C12         0.2990    2.8710   -2.6770 c1        1 NQB     -0.115000
      8 C14        -3.4860   -0.9830    1.2040 c1        1 NQB     -0.078000
      9 C15        -3.5980   -2.0230    2.1220 c1        1 NQB     -0.123000
     10 C16        -3.0030   -3.2540    1.8550 c1        1 NQB     -0.093000
     11 C19        -4.4950   -1.8610    3.3530 c2        1 NQB      0.352000
     12 C20        -5.6060   -2.8460    5.3520 cx        1 NQB     -0.025000
     13 C21        -4.9770   -2.8190    6.7350 cx        1 NQB     -0.231500
     14 C22        -5.7100   -4.0620    6.2580 cx        1 NQB     -0.231500
     15 N29        -2.0170   -0.1150   -0.5930 n         1 NQB     -0.257000
     16 C30        -0.6110   -0.1300   -0.5220 c2        1 NQB      0.350000
     17 N3          6.3830    2.6480   -2.5490 n3        1 NQB     -0.246000
     18 C4          5.9190    2.6830   -1.1970 c3        1 NQB     -0.075000
     19 C5          4.3990    2.7270   -1.1070 c3        1 NQB     -0.099000
     20 C17        -2.2980   -3.4430    0.6720 c1        1 NQB     -0.137000
     21 C18        -2.1850   -2.4020   -0.2480 c1        1 NQB     -0.014000
     22 C23        -1.5440   -2.6580   -1.6130 c2        1 NQB     -0.197000
     23 O24        -5.1090   -0.8230    3.5250 o         1 NQB     -0.360000
     24 C13        -2.7790   -1.1720    0.0190 c2        1 NQB      0.025000
     25 C25         0.1930    0.9220   -1.2540 c2        1 NQB     -0.169000
     26 C26        -0.4510    1.8900   -1.9910 c2        1 NQB      0.033000
     27 N27        -1.9130    1.9030   -2.0630 n2        1 NQB     -0.184000
     28 C28        -2.6850    0.8960   -1.3610 c2        1 NQB      0.074000
     29 N5          3.7780    1.6940   -1.8750 n3        1 NQB     -0.218000
     30 O29        -0.0470   -0.9360    0.1960 o         1 NQB     -0.332000
     31 N32        -4.6880   -2.9650    4.2490 n         1 NQB     -0.348000
     32 H11C        3.9190    2.4580   -3.6940 h1        1 NQB      0.078500
     33 H12C        3.8740    0.8590   -3.6690 h1        1 NQB      0.078500
     34 H21C        6.0760    0.7420   -2.9890 h1        1 NQB      0.100000
     35 H22C        6.0280    1.7160   -4.2600 h1        1 NQB      0.100000
     36 H81C        5.2140    3.9650   -3.4890 h1        1 NQB      0.071000
     37 H82C        6.2990    4.6450   -2.5230 h1        1 NQB      0.071000
     38 H83C        6.7530    4.0360   -3.9390 h1        1 NQB      0.071000
     39 H9          2.0630    0.2190   -0.6590 ha        1 NQB      0.173000
     40 H11         2.2100    3.5410   -3.0840 ha        1 NQB      0.138000
     41 H12        -0.1600    3.5620   -3.2020 ha        1 NQB      0.155000
     42 H14        -3.9050   -0.1150    1.3920 ha        1 NQB      0.163000
     43 H16        -3.0820   -3.9870    2.5020 ha        1 NQB      0.142000
     44 H17        -1.8790   -4.3110    0.4840 ha        1 NQB      0.143000
     45 H32        -4.2180   -3.7420    4.1260 hn        1 NQB      0.226000
     46 H20        -6.4290   -2.3200    5.2480 h1        1 NQB      0.162000
     47 H211       -3.9970   -2.8860    6.7600 hc        1 NQB      0.114000
     48 H212       -5.4460   -2.2790    7.4070 hc        1 NQB      0.114000
     49 H221       -6.5910   -4.2180    6.6630 hc        1 NQB      0.114000
     50 H222       -5.1410   -4.8250    6.0150 hc        1 NQB      0.114000
     51 H28        -3.6640    0.9070   -1.4100 h5        1 NQB      0.195000
     52 H41C        6.2430    1.8810   -0.7280 h1        1 NQB      0.100000
     53 H42C        6.2870    3.4820   -0.7550 h1        1 NQB      0.100000
     54 H51C        4.1340    2.6260   -0.1640 h1        1 NQB      0.078500
     55 H52C        4.0860    3.5980   -1.4340 h1        1 NQB      0.078500
     56 H231       -2.1020   -2.2590   -2.3170 ha        1 NQB      0.099000
     57 H232       -0.6510   -2.2550   -1.6360 ha        1 NQB      0.099000
     58 H233       -1.4700   -3.6270   -1.7640 ha        1 NQB      0.099000
@<TRIPOS>BOND
     1    1    2 1   
     2    1   29 1   
     3    1   32 1   
     4    1   33 1   
     5    2   17 1   
     6    2   34 1   
     7    2   35 1   
     8    3   17 1   
     9    3   36 1   
    10    3   37 1   
    11    3   38 1   
    12    4   25 1   
    13    4   39 1   
    14    5    6 1   
    15    5   29 1   
    16    6   40 1   
    17    7   26 1   
    18    7   41 1   
    19    8   24 1   
    20    8   42 1   
    21    9   10 1   
    22    9   11 1   
    23   10   43 1   
    24   11   23 1   
    25   11   31 1   
    26   12   13 1   
    27   12   14 1   
    28   12   31 1   
    29   12   46 1   
    30   13   14 1   
    31   13   47 1   
    32   13   48 1   
    33   14   49 1   
    34   14   50 1   
    35   15   16 1   
    36   15   24 1   
    37   15   28 1   
    38   16   25 1   
    39   16   30 1   
    40   17   18 1   
    41   18   19 1   
    42   18   52 1   
    43   18   53 1   
    44   19   29 1   
    45   19   54 1   
    46   19   55 1   
    47   20   21 1   
    48   20   44 1   
    49   21   24 1   
    50   22   56 1   
    51   22   57 1   
    52   22   58 1   
    53   25   26 1   
    54   26   27 1   
    55   27   28 1   
    56   28   51 1   
    57   31   45 1   
@<TRIPOS>SUBSTRUCTURE
     1 NQB         1 TEMP              0 ****  ****    0 ROOT
