@<TRIPOS>MOLECULE
NQB
   59    63     1     0     0
SMALL
bcc


@<TRIPOS>ATOM
      1 C1          0.1180   -0.0470    0.1680 c3        1 NQB      0.158800
      2 C2          1.6210    0.0830    0.4920 c3        1 NQB      0.159300
      3 C8          1.7290    1.2070    2.6440 c3        1 NQB      0.147100
      4 C9         -2.7610   -2.0420    1.4700 ca        1 NQB     -0.143000
      5 C10        -1.9350   -1.2690    0.6210 ca        1 NQB      0.174600
      6 C11        -2.5310   -0.7300   -0.5550 ca        1 NQB     -0.155000
      7 C12        -3.8500   -0.9760   -0.8850 ca        1 NQB     -0.063000
      8 C14        -7.2010   -4.0160    3.7500 ca        1 NQB     -0.034000
      9 C15        -7.9910   -4.8620    4.5340 ca        1 NQB     -0.205600
     10 C16        -8.7350   -5.8940    3.9430 ca        1 NQB     -0.103000
     11 C19        -8.0240   -4.6030    5.9720 c         1 NQB      0.591700
     12 C20        -9.1060   -6.0100    7.7160 cx        1 NQB     -0.003500
     13 C21        -9.3120   -7.2780    8.5210 cx        1 NQB     -0.102900
     14 C22       -10.2180   -6.9770    7.3670 cx        1 NQB     -0.102900
     15 N29        -6.2460   -3.3830    1.6040 n         1 NQB     -0.337500
     16 C30        -4.9190   -3.1170    2.0410 c         1 NQB      0.720100
     17 N3          1.9720   -0.0050    1.8960 n3        1 NQB     -0.716600
     18 C4          1.3840   -1.1940    2.4820 c3        1 NQB      0.159300
     19 C5         -0.1290   -1.3810    2.2430 c3        1 NQB      0.158800
     20 C17        -8.6540   -6.0840    2.5730 ca        1 NQB     -0.119000
     21 C18        -7.8300   -5.2840    1.7620 ca        1 NQB     -0.010300
     22 C23        -7.7640   -5.5960    0.3150 c3        1 NQB     -0.083800
     23 O24        -8.0660   -3.5450    6.5780 o         1 NQB     -0.409100
     24 C13        -7.1000   -4.2230    2.3550 ca        1 NQB      0.059600
     25 C25        -4.0910   -2.2920    1.1350 ca        1 NQB     -0.135600
     26 C26        -4.6670   -1.7690   -0.0510 ca        1 NQB      0.104400
     27 N27        -6.0070   -2.0220   -0.3840 nc        1 NQB     -0.556100
     28 C28        -6.7070   -2.7790    0.4110 cd        1 NQB      0.456800
     29 N5         -0.5670   -1.1060    0.8860 nh        1 NQB     -0.637000
     30 O29        -4.5270   -3.5750    3.1300 o         1 NQB     -0.634500
     31 N32        -7.9280   -5.8540    6.8510 n4        1 NQB     -0.648800
     32 H11C       -0.3840    0.9460    0.3600 h1        1 NQB      0.045700
     33 H12C        0.0440   -0.2720   -0.9350 h1        1 NQB      0.045700
     34 H21C        1.9730    1.0670    0.0760 h1        1 NQB      0.067200
     35 H22C        2.1780   -0.7420   -0.0370 h1        1 NQB      0.067200
     36 H81C        0.6430    1.4910    2.6990 h1        1 NQB      0.037033
     37 H82C        2.2940    2.0480    2.1620 h1        1 NQB      0.037033
     38 H83C        2.1160    1.0690    3.6880 h1        1 NQB      0.037033
     39 H9         -2.3850   -2.4710    2.4130 ha        1 NQB      0.161000
     40 H11        -1.9440   -0.0970   -1.2410 ha        1 NQB      0.150000
     41 H12        -4.2710   -0.5450   -1.8090 ha        1 NQB      0.161000
     42 H14        -6.6280   -3.2000    4.2290 ha        1 NQB      0.185000
     43 H16        -9.4030   -6.5310    4.5420 ha        1 NQB      0.134000
     44 H17        -9.2410   -6.8900    2.1010 ha        1 NQB      0.164000
     45 H32        -7.1000   -5.7600    7.4540 hn        1 NQB      0.458800
     46 H20        -9.3670   -5.0270    8.1800 hx        1 NQB      0.157700
     47 H211       -9.6850   -7.1660    9.5580 hc        1 NQB      0.109700
     48 H212       -8.5920   -8.1130    8.4360 hc        1 NQB      0.109700
     49 H221      -10.1470   -7.6000    6.4550 hc        1 NQB      0.109700
     50 H222      -11.2580   -6.6460    7.5540 hc        1 NQB      0.109700
     51 H28        -7.7710   -2.9690    0.1560 h5        1 NQB      0.059800
     52 H41C        1.5530   -1.1890    3.5940 h1        1 NQB      0.067200
     53 H42C        1.9310   -2.0780    2.0460 h1        1 NQB      0.067200
     54 H51C       -0.3610   -2.4610    2.4700 h1        1 NQB      0.045700
     55 H52C       -0.6970   -0.7370    2.9760 h1        1 NQB      0.045700
     56 H231       -8.5330   -5.0010   -0.2420 hc        1 NQB      0.073367
     57 H232       -7.9750   -6.6810    0.1360 hc        1 NQB      0.073367
     58 H233       -6.7580   -5.3660   -0.1170 hc        1 NQB      0.073367
     59 H322       -7.8090   -6.6800    6.2550 hn        1 NQB      0.458800
@<TRIPOS>BOND
     1    1    2 1   
     2    1   29 1   
     3    1   32 1   
     4    1   33 1   
     5    2   17 1   
     6    2   34 1   
     7    2   35 1   
     8    3   17 1   
     9    3   36 1   
    10    3   37 1   
    11    3   38 1   
    12    4    5 ar  
    13    4   25 ar  
    14    4   39 1   
    15    5    6 ar  
    16    5   29 1   
    17    6    7 ar  
    18    6   40 1   
    19    7   26 ar  
    20    7   41 1   
    21    8    9 ar  
    22    8   24 ar  
    23    8   42 1   
    24    9   10 ar  
    25    9   11 1   
    26   10   20 ar  
    27   10   43 1   
    28   11   23 2   
    29   11   31 1   
    30   12   13 1   
    31   12   14 1   
    32   12   31 1   
    33   12   46 1   
    34   13   14 1   
    35   13   47 1   
    36   13   48 1   
    37   14   49 1   
    38   14   50 1   
    39   15   16 1   
    40   15   24 1   
    41   15   28 1   
    42   16   25 1   
    43   16   30 2   
    44   17   18 1   
    45   18   19 1   
    46   18   52 1   
    47   18   53 1   
    48   19   29 1   
    49   19   54 1   
    50   19   55 1   
    51   20   21 ar  
    52   20   44 1   
    53   21   22 1   
    54   21   24 ar  
    55   22   56 1   
    56   22   57 1   
    57   22   58 1   
    58   25   26 ar  
    59   26   27 1   
    60   27   28 2   
    61   28   51 1   
    62   31   45 1   
    63   31   59 1   
@<TRIPOS>SUBSTRUCTURE
     1 NQB         1 TEMP              0 ****  ****    0 ROOT
