@<TRIPOS>MOLECULE
NQB
   58    62     1     0     0
SMALL
bcc


@<TRIPOS>ATOM
      1 C1         -6.3190   -0.0280   -0.4470 c3        1 NQB      0.151800
      2 C2         -7.5120   -0.5020    0.4130 c3        1 NQB      0.160300
      3 C8         -7.7930   -2.8620   -0.0830 c3        1 NQB      0.147100
      4 C9         -2.6440    0.1820    0.1930 ca        1 NQB     -0.102000
      5 C10        -3.8940    0.2330   -0.4560 ca        1 NQB      0.126600
      6 C11        -3.9640    0.9020   -1.7060 ca        1 NQB     -0.149000
      7 C12        -2.8530    1.4970   -2.2760 ca        1 NQB     -0.091000
      8 C14         3.1940    0.6260   -0.4870 ca        1 NQB     -0.079000
      9 C15         4.4990    0.5860    0.0050 ca        1 NQB     -0.143600
     10 C16         4.8190    1.2330    1.2010 ca        1 NQB     -0.094000
     11 C19         5.5270   -0.1370   -0.8020 c         1 NQB      0.678700
     12 C20         7.4420   -1.6700   -0.7530 cx        1 NQB      0.052700
     13 C21         7.7820   -3.0770   -0.2980 cx        1 NQB     -0.153400
     14 C22         8.7700   -1.9680   -0.0840 cx        1 NQB     -0.153400
     15 N29         0.8670    1.3430   -0.3120 n         1 NQB     -0.324500
     16 C30        -0.2180    0.6920    0.3230 c         1 NQB      0.712100
     17 N3         -7.4230   -1.8680    0.9000 n3        1 NQB     -0.719600
     18 C4         -6.1270   -2.1070    1.5150 c3        1 NQB      0.160300
     19 C5         -4.9070   -1.6610    0.6800 c3        1 NQB      0.151800
     20 C17         3.8290    1.9150    1.9000 ca        1 NQB     -0.137000
     21 C18         2.5090    1.9680    1.4340 ca        1 NQB     -0.021300
     22 C23         1.4880    2.7010    2.2170 c3        1 NQB     -0.071800
     23 O24         5.5510   -0.0580   -2.0460 o         1 NQB     -0.599100
     24 C13         2.1870    1.3110    0.2220 ca        1 NQB      0.020600
     25 C25        -1.5190    0.7730   -0.3840 ca        1 NQB     -0.158600
     26 C26        -1.5980    1.4460   -1.6310 ca        1 NQB      0.139400
     27 N27        -0.4660    2.0390   -2.2100 nc        1 NQB     -0.602100
     28 C28         0.6640    1.9580   -1.5590 cd        1 NQB      0.486800
     29 N5         -5.0390   -0.2970    0.1860 nh        1 NQB     -0.632000
     30 O29        -0.0620    0.1000    1.4050 o         1 NQB     -0.613500
     31 N32         6.4470   -0.8950   -0.1030 n         1 NQB     -0.538900
     32 H11C       -6.3900   -0.5180   -1.4620 h1        1 NQB      0.042700
     33 H12C       -6.4130    1.0860   -0.5860 h1        1 NQB      0.042700
     34 H21C       -7.5950    0.1630    1.3190 h1        1 NQB      0.061950
     35 H22C       -8.4460   -0.3800   -0.2010 h1        1 NQB      0.061950
     36 H81C       -7.1110   -2.8880   -0.9760 h1        1 NQB      0.033033
     37 H82C       -7.7810   -3.8720    0.4040 h1        1 NQB      0.033033
     38 H83C       -8.8350   -2.6480   -0.4370 h1        1 NQB      0.033033
     39 H9         -2.5230   -0.3100    1.1730 ha        1 NQB      0.163000
     40 H11        -4.9180    0.9610   -2.2540 ha        1 NQB      0.139000
     41 H12        -2.9440    2.0120   -3.2460 ha        1 NQB      0.153000
     42 H14         2.9690    0.1210   -1.4430 ha        1 NQB      0.162000
     43 H16         5.8490    1.2250    1.5870 ha        1 NQB      0.141000
     44 H17         4.0840    2.4260    2.8420 ha        1 NQB      0.143000
     45 H32         6.3430   -1.0030    0.8780 hn        1 NQB      0.312500
     46 H20         7.4490   -1.4680   -1.8510 h1        1 NQB      0.122700
     47 H211        7.2720   -3.5100    0.5800 hc        1 NQB      0.074700
     48 H212        7.9790   -3.8380   -1.0730 hc        1 NQB      0.074700
     49 H221        9.6820   -1.9250   -0.7050 hc        1 NQB      0.074700
     50 H222        8.9590   -1.6180    0.9460 hc        1 NQB      0.074700
     51 H28         1.5670    2.4210   -2.0160 h5        1 NQB      0.063800
     52 H41C       -6.1230   -1.5500    2.4940 h1        1 NQB      0.061950
     53 H42C       -6.0100   -3.2040    1.7330 h1        1 NQB      0.061950
     54 H51C       -3.9990   -1.7210    1.3410 h1        1 NQB      0.042700
     55 H52C       -4.7640   -2.3860   -0.1730 h1        1 NQB      0.042700
     56 H231        0.9950    3.4830    1.5870 hc        1 NQB      0.059700
     57 H232        0.7000    1.9870    2.5750 hc        1 NQB      0.059700
     58 H233        1.9420    3.2020    3.1070 hc        1 NQB      0.059700
@<TRIPOS>BOND
     1    1    2 1   
     2    1   29 1   
     3    1   32 1   
     4    1   33 1   
     5    2   17 1   
     6    2   34 1   
     7    2   35 1   
     8    3   17 1   
     9    3   36 1   
    10    3   37 1   
    11    3   38 1   
    12    4    5 ar  
    13    4   25 ar  
    14    4   39 1   
    15    5    6 ar  
    16    5   29 1   
    17    6    7 ar  
    18    6   40 1   
    19    7   26 ar  
    20    7   41 1   
    21    8    9 ar  
    22    8   24 ar  
    23    8   42 1   
    24    9   10 ar  
    25    9   11 1   
    26   10   20 ar  
    27   10   43 1   
    28   11   23 2   
    29   11   31 1   
    30   12   13 1   
    31   12   14 1   
    32   12   31 1   
    33   12   46 1   
    34   13   14 1   
    35   13   47 1   
    36   13   48 1   
    37   14   49 1   
    38   14   50 1   
    39   15   16 1   
    40   15   24 1   
    41   15   28 1   
    42   16   25 1   
    43   16   30 2   
    44   17   18 1   
    45   18   19 1   
    46   18   52 1   
    47   18   53 1   
    48   19   29 1   
    49   19   54 1   
    50   19   55 1   
    51   20   21 ar  
    52   20   44 1   
    53   21   22 1   
    54   21   24 ar  
    55   22   56 1   
    56   22   57 1   
    57   22   58 1   
    58   25   26 ar  
    59   26   27 1   
    60   27   28 2   
    61   28   51 1   
    62   31   45 1   
@<TRIPOS>SUBSTRUCTURE
     1 NQB         1 TEMP              0 ****  ****    0 ROOT
