@<TRIPOS>MOLECULE
NQG
   89    90     1     0     0
SMALL
bcc


@<TRIPOS>ATOM
      1 CAA         2.5860   -6.2670   -0.0380 c3        1 NQG     -0.256000
      2 CAS         2.8290   -4.8250   -0.3530 c3        1 NQG      0.022000
      3 OBE         3.1440   -4.2140    0.9940 os        1 NQG     -0.135000
      4 CBL         3.4740   -2.9660    1.1070 c2        1 NQG      0.359000
      5 OAK         3.4610   -2.3150   -0.0450 oh        1 NQG     -0.193000
      6 CBT         3.8470   -2.4440    2.4570 c3        1 NQG     -0.225000
      7 CBS         3.7130   -0.9270    2.5820 c3        1 NQG      0.017000
      8 OAL         4.5150   -0.2510    1.6420 oh        1 NQG     -0.317000
      9 CBK         3.9910   -0.4800    4.0290 c2        1 NQG      0.291000
     10 OAJ         3.7900   -1.2050    5.0120 o         1 NQG     -0.304000
     11 N           4.4470    0.8360    4.2230 n         1 NQG     -0.379000
     12 CA          4.9770    1.2830    5.4600 c3        1 NQG      0.081000
     13 CB          6.2820    2.0900    5.3290 c3        1 NQG     -0.193000
     14 CAT         6.1930    3.3980    4.5630 c3        1 NQG     -0.119000
     15 CAM         5.3240    4.3160    5.2640 c1        1 NQG     -0.025000
     16 NAC         4.6100    4.9880    5.8900 n1        1 NQG     -0.212000
     17 C           3.8940    2.1190    6.2550 c2        1 NQG      0.218000
     18 O           2.7950    2.4950    5.9150 o         1 NQG     -0.144000
     19 NBA         4.2550    2.4540    7.7470 n4        1 NQG     -0.147000
     20 CBQ         3.2990    3.3340    8.5120 c3        1 NQG     -0.064000
     21 CAX         3.1530    2.9360   10.0030 c3        1 NQG     -0.211000
     22 CAU         2.2080    1.7760   10.2960 c3        1 NQG     -0.180000
     23 CAV         2.0670    1.6320   11.8250 c3        1 NQG     -0.134000
     24 NAZ         1.1230    0.5340   12.2500 n4        1 NQG     -0.072000
     25 CBG         1.0100    0.3920   13.7710 c2        1 NQG      0.034000
     26 NAE         0.0540   -0.6820   14.2170 n4        1 NQG     -0.054000
     27 NAD         1.6060    1.0480   14.6740 n2        1 NQG     -0.036000
     28 CBJ         3.8340    4.7970    8.5260 c2        1 NQG      0.252000
     29 OAI         4.9850    5.0530    8.8450 o         1 NQG     -0.133000
     30 NBB         2.9130    5.9140    8.1530 n4        1 NQG     -0.079000
     31 CBR         3.2040    7.2260    8.8860 c3        1 NQG     -0.088000
     32 CBH         2.9630    6.9860   10.4040 c2        1 NQG      0.302000
     33 OAG         2.3370    5.9430   10.7330 o         1 NQG     -0.461000
     34 NAF         3.4700    7.8520   11.2970 n         1 NQG     -0.338000
     35 CAY         2.3160    8.3390    8.3000 c3        1 NQG     -0.170000
     36 CBM         2.5820    9.7340    8.8380 c3        1 NQG     -0.074000
     37 CBO         3.8960   10.3930    8.4930 ca        1 NQG     -0.147000
     38 CAQ         5.2090   10.0710    8.7640 ca        1 NQG     -0.107000
     39 CAO         6.2250   10.9700    8.3860 ca        1 NQG     -0.057000
     40 CAN         5.9320   12.1750    7.7530 ca        1 NQG     -0.065000
     41 CAP         4.6050   12.5430    7.4710 ca        1 NQG     -0.013000
     42 CBN         3.6090   11.6470    7.8460 ca        1 NQG     -0.082000
     43 NBD         2.1880   11.7840    7.7200 nh        1 NQG      0.004000
     44 CAR         1.5740   10.7370    8.2350 c2        1 NQG      0.065000
     45 HAA1        3.4880   -6.7530    0.4080 hc        1 NQG      0.140667
     46 HAA2        1.7210   -6.4000    0.6560 hc        1 NQG      0.140667
     47 HAA3        2.3480   -6.7870   -1.0080 hc        1 NQG      0.140667
     48 HAS1        3.7290   -4.6420   -0.9940 h1        1 NQG      0.144500
     49 HAS2        1.9290   -4.2780   -0.7310 h1        1 NQG      0.144500
     50 HBT1        4.9090   -2.7760    2.6580 hc        1 NQG      0.195500
     51 HBT2        3.2030   -2.9500    3.2370 hc        1 NQG      0.195500
     52 HBS         2.6550   -0.5970    2.3360 h1        1 NQG      0.183000
     53 HOAL        5.4350   -0.5480    1.7260 ho        1 NQG      0.244000
     54 HN          3.7260   -1.3690    0.0250 ho        1 NQG      0.320000
     55 HA          5.1710    0.3770    6.1240 h1        1 NQG      0.173000
     56 HB1         6.7050    2.2680    6.3530 hc        1 NQG      0.148500
     57 HB2         7.0320    1.4320    4.7940 hc        1 NQG      0.148500
     58 HAT1        7.2310    3.8490    4.4740 hc        1 NQG      0.189500
     59 HAT2        5.8290    3.2530    3.5060 hc        1 NQG      0.189500
     60 HNBA        4.3220    1.5540    8.2380 hn        1 NQG      0.265000
     61 HBQ         2.2940    3.2690    7.9920 hx        1 NQG      0.193000
     62 HAX1        2.7650    3.8520   10.5440 hc        1 NQG      0.163500
     63 HAX2        4.1700    2.7170   10.4340 hc        1 NQG      0.163500
     64 HAU1        1.2040    1.9780    9.8330 hc        1 NQG      0.126500
     65 HAU2        2.6080    0.8240    9.8580 hc        1 NQG      0.126500
     66 HAV1        3.0820    1.4040   12.2660 hx        1 NQG      0.172000
     67 HAV2        1.6760    2.6040   12.2510 hx        1 NQG      0.172000
     68 HNAZ        0.1900    0.7370   11.8580 hn        1 NQG      0.278500
     69 HAE1       -0.9100   -0.4840   13.8990 hn        1 NQG      0.323333
     70 HAE2        0.3570   -1.6150   13.8890 hn        1 NQG      0.323333
     71 HNAD        2.2710    1.7890   14.5740 hn        1 NQG      0.306000
     72 HNBB        2.9910    6.0940    7.1340 hn        1 NQG      0.293000
     73 HBR         4.2970    7.4680    8.6990 hx        1 NQG      0.197000
     74 HAF1        4.0040    8.6490   11.0270 hn        1 NQG      0.281500
     75 HAF2        2.4120    9.7830    9.9550 hc        1 NQG      0.174000
     76 HAY1        1.2350    8.0930    8.5040 hc        1 NQG      0.136500
     77 HAY2        2.4660    8.3690    7.1830 hc        1 NQG      0.136500
     78 HAQ         5.4850    9.1440    9.2860 ha        1 NQG      0.124000
     79 HAO         7.2790   10.7190    8.6110 ha        1 NQG      0.194000
     80 HAN         6.7500   12.8710    7.4760 ha        1 NQG      0.217000
     81 HAP         4.3830   13.5120    6.9840 ha        1 NQG      0.210000
     82 HNBD        1.7570   12.6030    7.3100 hn        1 NQG      0.338000
     83 HAR         0.4750   10.6130    8.2700 h4        1 NQG      0.244000
     84 H2          4.5360    1.4270    3.4220 hn        1 NQG      0.275000
     85 HBA2        5.1940    2.8770    7.7510 hn        1 NQG      0.265000
     86 HAZ2        1.4580   -0.3580   11.8530 hn        1 NQG      0.278500
     87 HAE3        0.0360   -0.7110   15.2700 hn        1 NQG      0.323333
     88 HBB2        1.9450    5.6420    8.3830 hn        1 NQG      0.293000
     89 HAF3        3.2970    7.7150   12.2740 hn        1 NQG      0.281500
@<TRIPOS>BOND
     1    1    2 1   
     2    1   45 1   
     3    1   46 1   
     4    1   47 1   
     5    2    3 1   
     6    2   48 1   
     7    2   49 1   
     8    3    4 1   
     9    4    5 1   
    10    4    6 1   
    11    5   54 1   
    12    6    7 1   
    13    6   50 1   
    14    6   51 1   
    15    7    8 1   
    16    7    9 1   
    17    7   52 1   
    18    8   53 1   
    19    9   10 1   
    20    9   11 1   
    21   11   12 1   
    22   11   84 1   
    23   12   13 1   
    24   12   17 1   
    25   12   55 1   
    26   13   14 1   
    27   13   56 1   
    28   13   57 1   
    29   14   15 1   
    30   14   58 1   
    31   14   59 1   
    32   15   16 1   
    33   17   18 1   
    34   17   19 1   
    35   19   20 1   
    36   19   60 1   
    37   19   85 1   
    38   20   21 1   
    39   20   28 1   
    40   20   61 1   
    41   21   22 1   
    42   21   62 1   
    43   21   63 1   
    44   22   23 1   
    45   22   64 1   
    46   22   65 1   
    47   23   24 1   
    48   23   66 1   
    49   23   67 1   
    50   24   25 1   
    51   24   68 1   
    52   24   86 1   
    53   25   26 1   
    54   25   27 1   
    55   26   69 1   
    56   26   70 1   
    57   26   87 1   
    58   27   71 1   
    59   28   29 1   
    60   28   30 1   
    61   30   31 1   
    62   30   72 1   
    63   30   88 1   
    64   31   32 1   
    65   31   35 1   
    66   31   73 1   
    67   32   33 1   
    68   32   34 1   
    69   34   74 1   
    70   34   89 1   
    71   35   36 1   
    72   35   76 1   
    73   35   77 1   
    74   36   37 1   
    75   36   44 1   
    76   36   75 1   
    77   37   38 1   
    78   37   42 1   
    79   38   39 1   
    80   38   78 1   
    81   39   40 1   
    82   39   79 1   
    83   40   41 1   
    84   40   80 1   
    85   41   42 1   
    86   41   81 1   
    87   42   43 1   
    88   43   44 1   
    89   43   82 1   
    90   44   83 1   
@<TRIPOS>SUBSTRUCTURE
     1 NQG         1 TEMP              0 ****  ****    0 ROOT
