@<TRIPOS>MOLECULE
NQG
   83    77     1     0     0
SMALL
bcc


@<TRIPOS>ATOM
      1 CAA         5.9290   -7.0700   -4.2540 c3        1 NQG     -0.221000
      2 CAS         4.6310   -7.8670   -4.2850 c3        1 NQG     -0.011000
      3 OBE         3.8140   -7.5000   -3.1550 os        1 NQG     -0.264000
      4 CBL         2.4400   -7.8500   -3.2960 c2        1 NQG      0.309000
      5 OAK         2.1020   -8.6100   -4.1610 o         1 NQG     -0.396000
      6 CBT         1.4020   -7.3500   -2.2570 c3        1 NQG     -0.202000
      7 CBS         0.7160   -6.1080   -2.7910 c3        1 NQG      0.031000
      8 OAL         1.4570   -5.5910   -3.8520 oh        1 NQG     -0.312000
      9 CBK         0.6130   -5.0590   -1.6790 c2        1 NQG      0.271000
     10 OAJ         0.9580   -5.3410   -0.5380 o         1 NQG     -0.384000
     11 N           0.0610   -3.7420   -1.9680 n         1 NQG     -0.367000
     12 CA          0.4480   -2.6310   -1.1850 c3        1 NQG      0.018000
     13 CB          1.7800   -2.1010   -1.6830 c3        1 NQG     -0.162000
     14 CAT         2.8830   -2.5290   -0.7330 c3        1 NQG     -0.080000
     15 CAM         4.2130   -1.9170   -1.1850 c1        1 NQG     -0.146000
     16 NAC         5.2070   -1.4560   -1.5220 n1        1 NQG     -0.037000
     17 C          -0.6180   -1.5230   -1.2940 c2        1 NQG      0.288000
     18 O          -1.4670   -1.5680   -2.1940 o         1 NQG     -0.382000
     19 NBA        -0.5690   -0.3760   -0.3890 n         1 NQG     -0.368000
     20 CBQ        -1.6660    0.4920   -0.2880 c3        1 NQG      0.012000
     21 CAX        -2.0520    0.6610    1.1970 c3        1 NQG     -0.159000
     22 CAU        -3.4760    0.0570    1.4380 c3        1 NQG     -0.171000
     23 CAV        -4.0030    0.5250    2.7890 c3        1 NQG     -0.038000
     24 NAZ        -5.0890   -0.3260    3.2070 n3        1 NQG     -0.350000
     25 CBG        -5.5960   -0.2350    4.5580 c2        1 NQG      0.173000
     26 NAE        -6.4780    0.8530    4.9290 n3        1 NQG     -0.322000
     27 NAD        -5.2540   -1.1440    5.4540 n1        1 NQG     -0.359000
     28 CBJ        -1.2930    1.8620   -0.8800 c2        1 NQG      0.286000
     29 OAI        -0.3380    1.9570   -1.6500 o         1 NQG     -0.401000
     30 NBB        -1.9820    3.0860   -0.3990 n         1 NQG     -0.357000
     31 CBR        -1.3100    4.3480   -0.4270 c3        1 NQG      0.018000
     32 CBH         0.1530    4.1330   -0.4340 c2        1 NQG      0.282000
     33 OAG         0.6510    3.2770    0.2940 o         1 NQG     -0.387000
     34 NAF         0.9920    4.8820   -1.3520 n         1 NQG     -0.425000
     35 CAY        -1.7090    5.1740    0.8280 c3        1 NQG     -0.108000
     36 CBM        -0.5710    6.1690    1.1720 c2        1 NQG     -0.156000
     37 CBO         0.5400    6.3810    1.9560 c1        1 NQG     -0.079000
     38 CAQ         1.6950    5.6090    2.1820 c1        1 NQG     -0.124500
     39 CAO         2.6840    6.0750    3.0330 c1        1 NQG     -0.124500
     40 CAN         2.5380    7.3010    3.6620 c1        1 NQG     -0.124500
     41 CAP         1.3990    8.0640    3.4400 c1        1 NQG     -0.124500
     42 CBN         0.3940    7.5920    2.5760 c1        1 NQG     -0.001000
     43 NBD        -0.8110    8.1330    2.1760 n1        1 NQG     -0.216000
     44 CAR        -1.4030    7.2520    1.3110 c1        1 NQG     -0.069000
     45 HAA1        5.7250   -6.1180   -4.2880 hc        1 NQG      0.093333
     46 HAA2        6.4100   -7.2680   -3.4350 hc        1 NQG      0.093333
     47 HAA3        6.4840   -7.3150   -5.0290 hc        1 NQG      0.093333
     48 HAS1        4.1510   -7.6730   -5.1090 h1        1 NQG      0.095500
     49 HAS2        4.8370   -8.8290   -4.2440 h1        1 NQG      0.095500
     50 HBT1        1.8590   -7.1370   -1.4130 hc        1 NQG      0.148000
     51 HBT2        0.7360   -8.0480   -2.1010 hc        1 NQG      0.148000
     52 HBS        -0.1940   -6.3440   -3.1080 h1        1 NQG      0.157000
     53 HOAL        0.9590   -5.5990   -4.5940 ho        1 NQG      0.226000
     54 HN         -0.5880   -3.6530   -2.5860 hn        1 NQG      0.254000
     55 HA          0.5370   -2.9090   -0.2420 h1        1 NQG      0.131000
     56 HB1         1.9630   -2.4640   -2.5880 hc        1 NQG      0.123500
     57 HB2         1.7480   -1.1140   -1.7230 hc        1 NQG      0.123500
     58 HAT1        2.9550   -3.5010   -0.7340 hc        1 NQG      0.117000
     59 HAT2        2.6740   -2.2210    0.1660 hc        1 NQG      0.117000
     60 HNBA        0.1750   -0.2180    0.0940 hn        1 NQG      0.260000
     61 HBQ        -2.4260    0.1190   -0.7820 h1        1 NQG      0.131000
     62 HAX1       -2.0590    1.6250    1.4290 hc        1 NQG      0.108500
     63 HAX2       -1.3940    0.1910    1.7640 hc        1 NQG      0.108500
     64 HAU1       -3.4210   -0.9400    1.4290 hc        1 NQG      0.092000
     65 HAU2       -4.0860    0.3590    0.7250 hc        1 NQG      0.092000
     66 HAV1       -3.2690    0.4820    3.4650 h1        1 NQG      0.078500
     67 HAV2       -4.3270    1.4600    2.7110 h1        1 NQG      0.078500
     68 HNAZ       -5.4160   -0.9840    2.6290 hn        1 NQG      0.201000
     69 HAE1       -6.5240    1.6080    4.4010 hn        1 NQG      0.188500
     70 HAE2       -6.9480    0.8150    5.7190 hn        1 NQG      0.188500
     71 HNAD       -4.6920   -1.8370    5.2170 DU        1 NQG      0.188333
     72 HNBB       -2.8550    3.0420   -0.1330 hn        1 NQG      0.260000
     73 HBR        -1.5700    4.8390   -1.2370 h1        1 NQG      0.137000
     74 HAF1        0.6050    5.4790   -1.9550 hn        1 NQG      0.236500
     75 HAF2        1.9070    4.7410   -1.3620 hn        1 NQG      0.236500
     76 HAY1       -1.8560    4.5610    1.5940 hc        1 NQG      0.111000
     77 HAY2       -2.5430    5.6760    0.6420 hc        1 NQG      0.111000
     78 HAQ         1.7980    4.7560    1.7450 ha        1 NQG      0.133000
     79 HAO         3.4880    5.5370    3.1900 ha        1 NQG      0.133000
     80 HAN         3.2340    7.6270    4.2590 ha        1 NQG      0.133000
     81 HAP         1.2970    8.9230    3.8820 ha        1 NQG      0.133000
     82 HNBD       -1.1530    8.9360    2.4420 DU        1 NQG      0.188333
     83 HAR        -2.2310    7.4070    0.8100 DU        1 NQG      0.188333
@<TRIPOS>BOND
     1    1    2 1   
     2    1   45 1   
     3    1   46 1   
     4    1   47 1   
     5    2    3 1   
     6    2   48 1   
     7    2   49 1   
     8    3    4 1   
     9    4    5 1   
    10    4    6 1   
    11    6    7 1   
    12    6   50 1   
    13    6   51 1   
    14    7    8 1   
    15    7    9 1   
    16    7   52 1   
    17    8   53 1   
    18    9   10 1   
    19    9   11 1   
    20   11   12 1   
    21   11   54 1   
    22   12   13 1   
    23   12   17 1   
    24   12   55 1   
    25   13   14 1   
    26   13   56 1   
    27   13   57 1   
    28   14   15 1   
    29   14   58 1   
    30   14   59 1   
    31   15   16 1   
    32   17   18 1   
    33   17   19 1   
    34   19   20 1   
    35   19   60 1   
    36   20   21 1   
    37   20   28 1   
    38   20   61 1   
    39   21   22 1   
    40   21   62 1   
    41   21   63 1   
    42   22   23 1   
    43   22   64 1   
    44   22   65 1   
    45   23   24 1   
    46   23   66 1   
    47   23   67 1   
    48   24   25 1   
    49   24   68 1   
    50   25   26 1   
    51   25   27 1   
    52   26   69 1   
    53   26   70 1   
    54   28   29 1   
    55   28   30 1   
    56   30   31 1   
    57   30   72 1   
    58   31   32 1   
    59   31   35 1   
    60   31   73 1   
    61   32   33 1   
    62   32   34 1   
    63   34   74 1   
    64   34   75 1   
    65   35   36 1   
    66   35   76 1   
    67   35   77 1   
    68   36   37 1   
    69   36   44 1   
    70   37   42 1   
    71   38   39 1   
    72   38   78 1   
    73   39   79 1   
    74   40   41 1   
    75   40   80 1   
    76   41   81 1   
    77   43   44 1   
@<TRIPOS>SUBSTRUCTURE
     1 NQG         1 TEMP              0 ****  ****    0 ROOT
