@<TRIPOS>MOLECULE
NQG
   89    90     1     0     0
SMALL
bcc


@<TRIPOS>ATOM
      1 CAA         2.9220   -0.1150   -0.9270 c3        1 NQG     -0.135100
      2 CAS         4.0240   -1.0400   -0.4940 c3        1 NQG      0.141400
      3 OBE         3.5720   -1.8690    0.6210 os        1 NQG     -0.355900
      4 CBL         3.7030   -1.4390    1.8690 c         1 NQG      0.676100
      5 OAK         4.2220   -0.3330    2.1390 o         1 NQG     -0.697000
      6 CBT         3.1710   -2.4040    2.8960 c3        1 NQG     -0.216400
      7 CBS         3.9930   -2.4180    4.1730 c3        1 NQG      0.152100
      8 OAL         3.8070   -3.5430    4.9710 oh        1 NQG     -0.526800
      9 CBK         3.6840   -1.2170    5.1190 c         1 NQG      0.534100
     10 OAJ         3.1370   -1.2190    6.2080 o         1 NQG     -0.472100
     11 N           4.2370    0.1530    4.7090 n4        1 NQG     -0.711800
     12 CA          4.8500    0.9340    5.8250 c3        1 NQG      0.084500
     13 CB          5.8730    1.9700    5.3210 c3        1 NQG     -0.113400
     14 CAT         5.3260    3.0900    4.4590 c3        1 NQG     -0.067300
     15 CAM         4.5340    4.0120    5.2420 c1        1 NQG      0.248700
     16 NAC         3.9120    4.7470    5.8950 n1        1 NQG     -0.435800
     17 C           3.7680    1.5970    6.7010 c         1 NQG      0.530100
     18 O           2.6270    1.8640    6.3720 o         1 NQG     -0.366100
     19 NBA         4.1740    1.9160    8.1330 n4        1 NQG     -0.681800
     20 CBQ         3.2320    2.8110    8.9170 c3        1 NQG      0.070500
     21 CAX         3.2020    2.4660   10.4220 c3        1 NQG     -0.113400
     22 CAU         2.3620    1.2540   10.8140 c3        1 NQG     -0.108400
     23 CAV         2.3750    1.0970   12.3490 c3        1 NQG      0.105800
     24 NAZ         1.5190   -0.0390   12.8520 n4        1 NQG     -0.794000
     25 CBG         1.5540   -0.1980   14.3770 c2        1 NQG      0.628100
     26 NAE         0.6550   -1.2870   14.9000 n4        1 NQG     -0.820600
     27 NAD         2.2290    0.4540   15.2250 n2        1 NQG     -0.568100
     28 CBJ         3.7480    4.2920    8.7950 c         1 NQG      0.658100
     29 OAI         4.9810    4.4680    8.7610 o         1 NQG     -0.567100
     30 NBB         2.8490    5.3300    8.7590 n         1 NQG     -0.524900
     31 CBR         3.2850    6.7120    8.6580 c3        1 NQG      0.078700
     32 CBH         3.7370    7.2270   10.0530 c         1 NQG      0.507100
     33 OAG         3.5150    6.6900   11.1270 o         1 NQG     -0.389100
     34 NAF         4.5270    8.4990   10.0960 n4        1 NQG     -0.754400
     35 CAY         2.1880    7.6750    8.1390 c3        1 NQG     -0.089400
     36 CBM         2.5120    8.3090    6.7960 c3        1 NQG     -0.115700
     37 CBO         3.5340    9.4230    6.7790 ca        1 NQG     -0.159300
     38 CAQ         4.8910    9.4510    7.0330 ca        1 NQG     -0.160000
     39 CAO         5.6040   10.6440    6.8040 ca        1 NQG     -0.065000
     40 CAN         4.9710   11.7890    6.3240 ca        1 NQG     -0.060000
     41 CAP         3.5980   11.7890    6.0270 ca        1 NQG     -0.008000
     42 CBN         2.9040   10.6030    6.2520 ca        1 NQG     -0.123200
     43 NBD         1.5320   10.3000    5.9610 nh        1 NQG     -0.062200
     44 CAR         1.2670    9.0400    6.2500 c2        1 NQG      0.335200
     45 HAA1        3.2350    0.4020   -1.8700 hc        1 NQG      0.069700
     46 HAA2        1.9810   -0.6820   -1.1360 hc        1 NQG      0.069700
     47 HAA3        2.7160    0.6540   -0.1450 hc        1 NQG      0.069700
     48 HAS1        4.2470   -1.8280   -1.2700 h1        1 NQG      0.101200
     49 HAS2        4.9540   -0.4950   -0.1950 h1        1 NQG      0.101200
     50 HBT1        2.0890   -2.1720    3.0860 hc        1 NQG      0.148700
     51 HBT2        3.2050   -3.4500    2.4530 hc        1 NQG      0.148700
     52 HBS         5.1070   -2.3790    3.9510 h1        1 NQG      0.144700
     53 HOAL        2.9460   -3.9580    4.7840 ho        1 NQG      0.470000
     54 HN          4.9500   -0.0010    3.9490 hn        1 NQG      0.509300
     55 HA          5.4150    0.1790    6.4640 hx        1 NQG      0.144700
     56 HB1         6.6630    1.4230    4.7210 hc        1 NQG      0.123700
     57 HB2         6.4070    2.3940    6.2160 hc        1 NQG      0.123700
     58 HAT1        6.2020    3.6540    4.0030 hc        1 NQG      0.149200
     59 HAT2        4.7260    2.7060    3.5840 hc        1 NQG      0.149200
     60 HNBA        5.1090    2.3740    8.1130 hn        1 NQG      0.485800
     61 HBQ         2.2000    2.7010    8.4640 hx        1 NQG      0.151700
     62 HAX1        4.2540    2.3420   10.8040 hc        1 NQG      0.109700
     63 HAX2        2.7770    3.3740   10.9400 hc        1 NQG      0.109700
     64 HAU1        2.7720    0.3240   10.3380 hc        1 NQG      0.086700
     65 HAU2        1.3080    1.3930   10.4490 hc        1 NQG      0.086700
     66 HAV1        1.9910    2.0490   12.8220 hx        1 NQG      0.130200
     67 HAV2        3.4360    0.9060   12.6880 hx        1 NQG      0.130200
     68 HNAZ        0.5460    0.1280   12.5500 hn        1 NQG      0.483300
     69 HAE1       -0.3370   -1.0950   14.6810 hn        1 NQG      0.528800
     70 HAE2        0.7410   -1.3290   15.9500 hn        1 NQG      0.528800
     71 HNAD        2.8770    1.2030   15.0740 hn        1 NQG      0.550400
     72 HNBB        1.8680    5.1530    8.7610 hn        1 NQG      0.355500
     73 HBR         4.1920    6.7450    7.9730 h1        1 NQG      0.139700
     74 HAF1        4.3280    9.0130   10.9750 hn        1 NQG      0.495800
     75 HAF2        4.3100    9.1060    9.2900 hn        1 NQG      0.495800
     76 HAY1        1.2080    7.1270    8.0300 hc        1 NQG      0.096200
     77 HAY2        2.0000    8.4830    8.8970 hc        1 NQG      0.096200
     78 HAQ         5.4410    8.5440    7.3240 ha        1 NQG      0.128000
     79 HAO         6.6970   10.6680    6.9830 ha        1 NQG      0.197000
     80 HAN         5.5590   12.7150    6.1440 ha        1 NQG      0.225000
     81 HAP         3.1130   12.6960    5.6150 ha        1 NQG      0.218000
     82 HNBD        0.9000   10.9820    5.5610 hn        1 NQG      0.391700
     83 HAR         0.2790    8.5640    6.0990 h4        1 NQG      0.114800
     84 H2          3.4780    0.6830    4.2490 hn        1 NQG      0.509300
     85 HBA2        4.2680    1.0220    8.6330 hn        1 NQG      0.485800
     86 HAZ2        1.8490   -0.9170   12.4190 hn        1 NQG      0.483300
     87 HAE3        0.9330   -2.2130   14.5330 hn        1 NQG      0.528800
     88 HBB2        2.8020    7.5180    6.0430 hc        1 NQG      0.151700
     89 HAF3        5.5370    8.2850   10.0870 hn        1 NQG      0.495800
@<TRIPOS>BOND
     1    1    2 1   
     2    1   45 1   
     3    1   46 1   
     4    1   47 1   
     5    2    3 1   
     6    2   48 1   
     7    2   49 1   
     8    3    4 1   
     9    4    5 2   
    10    4    6 1   
    11    6    7 1   
    12    6   50 1   
    13    6   51 1   
    14    7    8 1   
    15    7    9 1   
    16    7   52 1   
    17    8   53 1   
    18    9   10 2   
    19    9   11 1   
    20   11   12 1   
    21   11   54 1   
    22   11   84 1   
    23   12   13 1   
    24   12   17 1   
    25   12   55 1   
    26   13   14 1   
    27   13   56 1   
    28   13   57 1   
    29   14   15 1   
    30   14   58 1   
    31   14   59 1   
    32   15   16 3   
    33   17   18 2   
    34   17   19 1   
    35   19   20 1   
    36   19   60 1   
    37   19   85 1   
    38   20   21 1   
    39   20   28 1   
    40   20   61 1   
    41   21   22 1   
    42   21   62 1   
    43   21   63 1   
    44   22   23 1   
    45   22   64 1   
    46   22   65 1   
    47   23   24 1   
    48   23   66 1   
    49   23   67 1   
    50   24   25 1   
    51   24   68 1   
    52   24   86 1   
    53   25   26 1   
    54   25   27 2   
    55   26   69 1   
    56   26   70 1   
    57   26   87 1   
    58   27   71 1   
    59   28   29 2   
    60   28   30 1   
    61   30   31 1   
    62   30   72 1   
    63   31   32 1   
    64   31   35 1   
    65   31   73 1   
    66   32   33 2   
    67   32   34 1   
    68   34   74 1   
    69   34   75 1   
    70   34   89 1   
    71   35   36 1   
    72   35   76 1   
    73   35   77 1   
    74   36   37 1   
    75   36   44 1   
    76   36   88 1   
    77   37   38 ar  
    78   37   42 ar  
    79   38   39 ar  
    80   38   78 1   
    81   39   40 ar  
    82   39   79 1   
    83   40   41 ar  
    84   40   80 1   
    85   41   42 ar  
    86   41   81 1   
    87   42   43 1   
    88   43   44 2   
    89   43   82 1   
    90   44   83 1   
@<TRIPOS>SUBSTRUCTURE
     1 NQG         1 TEMP              0 ****  ****    0 ROOT
