@<TRIPOS>MOLECULE
NQG
   89    90     1     0     0
SMALL
bcc


@<TRIPOS>ATOM
      1 CAA         0.0000    0.0000    0.0000 c3        1 NQG     -0.001100
      2 CAS         1.5140    0.0000    0.0000 c3        1 NQG      0.216400
      3 OBE         1.9800    0.0000    1.3530 os        1 NQG     -0.421900
      4 CBL         3.3380   -0.0000    1.5070 c         1 NQG      0.700100
      5 OAK         4.1610   -0.0010    0.6020 o         1 NQG     -0.483000
      6 CBT         3.6620   -0.0080    2.9870 c3        1 NQG     -0.104400
      7 CBS         5.1690   -0.0550    3.2480 c3        1 NQG      0.149100
      8 OAL         5.7230   -1.2290    2.6730 oh        1 NQG     -0.472800
      9 CBK         5.4740   -0.0510    4.7400 c         1 NQG      0.278100
     10 OAJ         6.0450   -0.9850    5.3000 o         1 NQG     -0.316100
     11 N           5.0550    1.1110    5.3460 ny        1 NQG      0.061200
     12 CA          5.2570    1.3540    6.7750 c3        1 NQG     -0.114500
     13 CB          6.6030    2.0550    7.0080 c3        1 NQG     -0.057400
     14 CAT         6.6790    3.4070    6.2910 c3        1 NQG      0.166700
     15 CAM         7.9440    4.0920    6.5900 c1        1 NQG      0.031700
     16 NAC         8.9470    4.6340    6.8070 n1        1 NQG     -0.121800
     17 C           4.0720    2.2050    7.2190 c         1 NQG      0.347100
     18 O           3.2080    2.5990    6.4390 o         1 NQG     -0.394100
     19 NBA         4.0870    2.4360    8.5760 ny        1 NQG      0.100200
     20 CBQ         3.0280    3.2070    9.2310 c3        1 NQG     -0.084500
     21 CAX         2.8450    2.7250   10.6770 c3        1 NQG     -0.022400
     22 CAU         2.3400    1.2760   10.7400 c3        1 NQG     -0.018400
     23 CAV         2.0850    0.8050   12.1700 c3        1 NQG     -0.029200
     24 NAZ         1.5700   -0.5430   12.1800 ny        1 NQG      0.075000
     25 CBG         1.1790   -1.2750   13.2820 c2        1 NQG     -0.066900
     26 NAE         1.2870   -0.6630   14.5070 nz        1 NQG      0.188400
     27 NAD         0.7280   -2.4950   13.1610 n2        1 NQG     -0.109100
     28 CBJ         3.4690    4.6640    9.1510 c         1 NQG      0.136100
     29 OAI         4.6500    5.0020    9.1890 o         1 NQG     -0.454100
     30 NBB         2.3960    5.5400    9.0660 ny        1 NQG      0.220200
     31 CBR         2.5550    6.9740    9.0100 c3        1 NQG     -0.157500
     32 CBH         1.8990    7.5460   10.2590 c         1 NQG      0.322100
     33 OAG         0.8890    7.0750   10.7770 o         1 NQG     -0.338100
     34 NAF         2.5870    8.6220   10.7790 nz        1 NQG      0.208600
     35 CAY         1.9240    7.5800    7.7510 c3        1 NQG      0.076800
     36 CBM         2.7950    7.4200    6.5280 cc        1 NQG     -0.152400
     37 CBO         3.7690    8.3340    6.0950 ca        1 NQG     -0.084800
     38 CAQ         4.2510    9.5750    6.5570 ca        1 NQG     -0.044000
     39 CAO         5.2660   10.2220    5.8430 ca        1 NQG     -0.029000
     40 CAN         5.7990    9.6520    4.6880 ca        1 NQG     -0.017000
     41 CAP         5.3380    8.4220    4.2120 ca        1 NQG      0.043000
     42 CBN         4.3210    7.7870    4.9360 ca        1 NQG     -0.283200
     43 NBD         3.6830    6.5890    4.7080 na        1 NQG      0.549600
     44 CAR         2.7470    6.3610    5.6810 cd        1 NQG     -0.337100
     45 HAA1       -0.3610   -0.2120   -0.9990 hc        1 NQG      0.023033
     46 HAA2       -0.3610   -0.7590    0.6830 hc        1 NQG      0.023033
     47 HAA3       -0.3610    0.9710    0.3160 hc        1 NQG      0.023033
     48 HAS1        1.8770   -0.8850   -0.5090 h1        1 NQG      0.029200
     49 HAS2        1.8770    0.8850   -0.5090 h1        1 NQG      0.029200
     50 HBT1        3.2550    0.8880    3.4400 hc        1 NQG      0.025200
     51 HBT2        3.2000   -0.8750    3.4430 hc        1 NQG      0.025200
     52 HBS         5.6320    0.8120    2.7920 h1        1 NQG      0.045700
     53 HOAL        6.5540   -1.0230    2.2770 ho        1 NQG      0.447000
     54 HN          4.0700    1.1750    5.1840 hn        1 NQG      0.294800
     55 HA          5.2440    0.4100    7.3070 hx        1 NQG      0.123700
     56 HB1         7.3990    1.4180    6.6430 hc        1 NQG      0.086700
     57 HB2         6.7370    2.2130    8.0710 hc        1 NQG      0.086700
     58 HAT1        6.6060    3.2480    5.2220 hc        1 NQG      0.002200
     59 HAT2        5.8530    4.0290    6.6150 hc        1 NQG      0.002200
     60 HNBA        4.1010    1.5380    9.0180 hn        1 NQG      0.297800
     61 HBQ         2.0990    3.0800    8.6870 hx        1 NQG      0.102700
     62 HAX1        3.7950    2.7890   11.1930 hc        1 NQG      0.070700
     63 HAX2        2.1300    3.3690   11.1750 hc        1 NQG      0.070700
     64 HAU1        3.0800    0.6280   10.2860 hc        1 NQG      0.037700
     65 HAU2        1.4170    1.2030   10.1780 hc        1 NQG      0.037700
     66 HAV1        1.3650    1.4650   12.6400 hx        1 NQG      0.097200
     67 HAV2        3.0130    0.8360   12.7270 hx        1 NQG      0.097200
     68 HNAZ        2.2780   -1.0950   11.7380 hn        1 NQG      0.260800
     69 HAE1        0.6320    0.0910   14.5610 hn        1 NQG      0.255800
     70 HAE2        1.0910   -1.3280   15.2290 hn        1 NQG      0.255800
     71 HNAD        0.6600   -2.9160   12.2550 hn        1 NQG      0.388400
     72 HNBB        1.8930    5.2830    8.2390 hn        1 NQG      0.244300
     73 HBR         3.6110    7.2130    9.0250 hx        1 NQG      0.125700
     74 HAF1        2.3470    9.4500   10.2700 hn        1 NQG      0.276467
     75 HAF2        2.3430    8.7400   11.7430 hn        1 NQG      0.276467
     76 HAY1        1.7510    8.6350    7.9200 hc        1 NQG      0.070700
     77 HAY2        0.9730    7.0940    7.5680 hc        1 NQG      0.070700
     78 HAQ         3.9670   10.3520    7.2560 ha        1 NQG      0.140000
     79 HAO         5.6700   11.1800    6.1450 ha        1 NQG      0.161000
     80 HAN         6.5620   10.1940    4.1420 ha        1 NQG      0.167000
     81 HAP         5.7870    8.1150    3.2750 ha        1 NQG      0.157000
     82 HNBD        3.8750    5.9740    3.9420 hn        1 NQG      0.132700
     83 HAR         1.9780    5.5980    5.6570 h4        1 NQG      0.157000
     84 H2          5.5120    1.8610    4.8660 hn        1 NQG      0.294800
     85 HBA2        4.9480    2.9050    8.7760 hn        1 NQG      0.297800
     86 HAZ2        0.7640   -0.5170   11.5860 hn        1 NQG      0.260800
     87 HAE3        2.2160   -0.3110   14.6240 hn        1 NQG      0.255800
     88 HBB2        1.8200    5.3530    9.8630 hn        1 NQG      0.244300
     89 HAF3        3.5720    8.4590   10.6990 hn        1 NQG      0.276467
@<TRIPOS>BOND
     1    1    2 1   
     2    1   45 1   
     3    1   46 1   
     4    1   47 1   
     5    2    3 1   
     6    2   48 1   
     7    2   49 1   
     8    3    4 1   
     9    4    5 2   
    10    4    6 1   
    11    6    7 1   
    12    6   50 1   
    13    6   51 1   
    14    7    8 1   
    15    7    9 1   
    16    7   52 1   
    17    8   53 1   
    18    9   10 2   
    19    9   11 1   
    20   11   12 1   
    21   11   54 1   
    22   11   84 1   
    23   12   13 1   
    24   12   17 1   
    25   12   55 1   
    26   13   14 1   
    27   13   56 1   
    28   13   57 1   
    29   14   15 1   
    30   14   58 1   
    31   14   59 1   
    32   15   16 3   
    33   17   18 2   
    34   17   19 1   
    35   19   20 1   
    36   19   60 1   
    37   19   85 1   
    38   20   21 1   
    39   20   28 1   
    40   20   61 1   
    41   21   22 1   
    42   21   62 1   
    43   21   63 1   
    44   22   23 1   
    45   22   64 1   
    46   22   65 1   
    47   23   24 1   
    48   23   66 1   
    49   23   67 1   
    50   24   25 1   
    51   24   68 1   
    52   24   86 1   
    53   25   26 1   
    54   25   27 2   
    55   26   69 1   
    56   26   70 1   
    57   26   87 1   
    58   27   71 1   
    59   28   29 2   
    60   28   30 1   
    61   30   31 1   
    62   30   72 1   
    63   30   88 1   
    64   31   32 1   
    65   31   35 1   
    66   31   73 1   
    67   32   33 2   
    68   32   34 1   
    69   34   74 1   
    70   34   75 1   
    71   34   89 1   
    72   35   36 1   
    73   35   76 1   
    74   35   77 1   
    75   36   37 1   
    76   36   44 2   
    77   37   38 ar  
    78   37   42 ar  
    79   38   39 ar  
    80   38   78 1   
    81   39   40 ar  
    82   39   79 1   
    83   40   41 ar  
    84   40   80 1   
    85   41   42 ar  
    86   41   81 1   
    87   42   43 1   
    88   43   44 1   
    89   43   82 1   
    90   44   83 1   
@<TRIPOS>SUBSTRUCTURE
     1 NQG         1 TEMP              0 ****  ****    0 ROOT
