@<TRIPOS>MOLECULE
NQG
   83    84     1     0     0
SMALL
bcc


@<TRIPOS>ATOM
      1 CAA        -1.3270   -8.1860    3.2750 c3        1 NQG     -0.102100
      2 CAS         0.0660   -7.6070    3.2910 c3        1 NQG      0.136400
      3 OBE         0.6020   -7.8910    4.6000 os        1 NQG     -0.427900
      4 CBL         1.9010   -7.5540    4.8200 c         1 NQG      0.659100
      5 OAK         2.5580   -7.0760    3.8860 o         1 NQG     -0.596000
      6 CBT         2.3410   -7.8410    6.2200 c3        1 NQG     -0.172400
      7 CBS         3.8240   -7.5400    6.4320 c3        1 NQG      0.089100
      8 OAL         4.3190   -8.3000    7.5120 oh        1 NQG     -0.578800
      9 CBK         4.0190   -6.0420    6.7120 c         1 NQG      0.627100
     10 OAJ         4.1040   -5.6440    7.8910 o         1 NQG     -0.609100
     11 N           4.1450   -5.2030    5.6250 n         1 NQG     -0.534900
     12 CA          4.1580   -3.7680    5.7790 c3        1 NQG      0.031700
     13 CB          5.3530   -3.1180    5.0610 c3        1 NQG     -0.085400
     14 CAT         5.2140   -3.1030    3.5500 c3        1 NQG     -0.037300
     15 CAM         6.4280   -2.6280    2.9240 c1        1 NQG      0.214700
     16 NAC         7.3990   -2.2470    2.4100 n1        1 NQG     -0.369800
     17 C           2.8280   -3.1270    5.3080 c         1 NQG      0.630100
     18 O           1.8890   -3.8120    4.8530 o         1 NQG     -0.617100
     19 NBA         2.6870   -1.7590    5.4920 n         1 NQG     -0.527900
     20 CBQ         1.5760   -1.0630    4.8830 c3        1 NQG      0.030700
     21 CAX         1.3630    0.3480    5.4470 c3        1 NQG     -0.084400
     22 CAU         0.9960    0.3190    6.9140 c3        1 NQG     -0.090400
     23 CAV         0.6460    1.7340    7.3820 c3        1 NQG      0.185800
     24 NAZ         0.3810    1.8040    8.8010 nh        1 NQG     -0.847200
     25 CBG        -0.2470    2.9830    9.3390 c2        1 NQG      0.750100
     26 NAE        -0.1540    4.1770    8.5510 nh        1 NQG     -0.879800
     27 NAD        -0.8670    3.0330   10.4940 n2        1 NQG     -0.879100
     28 CBJ         1.7840   -0.9060    3.3510 c         1 NQG      0.633100
     29 OAI         2.9110   -0.6320    2.8880 o         1 NQG     -0.623100
     30 NBB         0.6900   -1.1200    2.5510 n         1 NQG     -0.539900
     31 CBR         0.7380   -1.0200    1.1140 c3        1 NQG      0.036700
     32 CBH        -0.0570    0.2190    0.6280 c         1 NQG      0.634100
     33 OAG        -1.1380    0.5480    1.1590 o         1 NQG     -0.622100
     34 NAF         0.4460    0.9250   -0.4300 n         1 NQG     -0.665000
     35 CAY         0.1170   -2.2410    0.4020 c3        1 NQG     -0.004200
     36 CBM         0.9310   -3.4530    0.5340 cc        1 NQG     -0.171400
     37 CBO         1.6200   -4.1280   -0.5480 ca        1 NQG     -0.085800
     38 CAQ         1.7570   -3.8900   -1.9170 ca        1 NQG     -0.092000
     39 CAO         2.5110   -4.7670   -2.6800 ca        1 NQG     -0.154000
     40 CAN         3.1370   -5.8870   -2.1030 ca        1 NQG     -0.117000
     41 CAP         3.0260   -6.1640   -0.7500 ca        1 NQG     -0.140000
     42 CBN         2.2640   -5.2850    0.0360 ca        1 NQG     -0.053200
     43 NBD         1.9700   -5.3010    1.4020 na        1 NQG     -0.189400
     44 CAR         1.1700   -4.1980    1.6930 cd        1 NQG     -0.084100
     45 HAA1       -1.7940   -7.9740    2.2840 hc        1 NQG      0.053033
     46 HAA2       -1.2960   -9.2890    3.4380 hc        1 NQG      0.053033
     47 HAA3       -1.9510   -7.7290    4.0800 hc        1 NQG      0.053033
     48 HAS1        0.0620   -6.4940    3.1500 h1        1 NQG      0.055200
     49 HAS2        0.7270   -8.0780    2.5180 h1        1 NQG      0.055200
     50 HBT1        1.7060   -7.2450    6.9280 hc        1 NQG      0.105200
     51 HBT2        2.1580   -8.9300    6.4380 hc        1 NQG      0.105200
     52 HBS         4.4290   -7.8760    5.5410 h1        1 NQG      0.110700
     53 HOAL        4.0730   -7.8520    8.3370 ho        1 NQG      0.431000
     54 HN          3.8780   -5.5510    4.7270 hn        1 NQG      0.340500
     55 HA          4.2610   -3.5400    6.8880 h1        1 NQG      0.116700
     56 HB1         6.2880   -3.6710    5.3480 hc        1 NQG      0.068200
     57 HB2         5.4690   -2.0690    5.4400 hc        1 NQG      0.068200
     58 HAT1        4.9920   -4.1370    3.1640 hc        1 NQG      0.091200
     59 HAT2        4.3610   -2.4300    3.2390 hc        1 NQG      0.091200
     60 HNBA        3.5160   -1.2180    5.6070 hn        1 NQG      0.315500
     61 HBQ         0.6520   -1.6870    5.0840 h1        1 NQG      0.094700
     62 HAX1        2.2860    0.9670    5.2910 hc        1 NQG      0.065700
     63 HAX2        0.5340    0.8250    4.8580 hc        1 NQG      0.065700
     64 HAU1        0.1220   -0.3660    7.0730 hc        1 NQG      0.055200
     65 HAU2        1.8520   -0.0840    7.5170 hc        1 NQG      0.055200
     66 HAV1        1.5220    2.4100    7.1630 h1        1 NQG      0.044700
     67 HAV2       -0.2290    2.1040    6.7700 h1        1 NQG      0.044700
     68 HNAZ       -0.0250    0.9620    9.1570 hn        1 NQG      0.394800
     69 HAE1        0.7620    4.3230    8.1810 hn        1 NQG      0.394800
     70 HAE2       -0.4860    4.9840    9.0400 hn        1 NQG      0.394800
     71 HNAD       -1.0000    2.1610   10.9570 hn        1 NQG      0.391400
     72 HNBB       -0.2130   -1.2080    2.9570 hn        1 NQG      0.328500
     73 HBR         1.8250   -0.9360    0.8100 h1        1 NQG      0.105700
     74 HAF1       -0.0360    1.7260   -0.7580 hn        1 NQG      0.316000
     75 HAF2        1.3310    0.7120   -0.8130 hn        1 NQG      0.316000
     76 HAY1        0.0130   -1.9790   -0.6860 hc        1 NQG      0.061200
     77 HAY2       -0.9180   -2.4210    0.8030 hc        1 NQG      0.061200
     78 HAQ         1.2690   -3.0190   -2.3770 ha        1 NQG      0.128000
     79 HAO         2.6280   -4.5900   -3.7600 ha        1 NQG      0.129000
     80 HAN         3.7290   -6.5570   -2.7450 ha        1 NQG      0.130000
     81 HAP         3.5170   -7.0400   -0.3050 ha        1 NQG      0.134000
     82 HNBD        2.2830   -5.9750    2.0540 hn        1 NQG      0.321700
     83 HAR         0.8420   -4.0150    2.7220 h4        1 NQG      0.184000
@<TRIPOS>BOND
     1    1    2 1   
     2    1   45 1   
     3    1   46 1   
     4    1   47 1   
     5    2    3 1   
     6    2   48 1   
     7    2   49 1   
     8    3    4 1   
     9    4    5 2   
    10    4    6 1   
    11    6    7 1   
    12    6   50 1   
    13    6   51 1   
    14    7    8 1   
    15    7    9 1   
    16    7   52 1   
    17    8   53 1   
    18    9   10 2   
    19    9   11 1   
    20   11   12 1   
    21   11   54 1   
    22   12   13 1   
    23   12   17 1   
    24   12   55 1   
    25   13   14 1   
    26   13   56 1   
    27   13   57 1   
    28   14   15 1   
    29   14   58 1   
    30   14   59 1   
    31   15   16 3   
    32   17   18 2   
    33   17   19 1   
    34   19   20 1   
    35   19   60 1   
    36   20   21 1   
    37   20   28 1   
    38   20   61 1   
    39   21   22 1   
    40   21   62 1   
    41   21   63 1   
    42   22   23 1   
    43   22   64 1   
    44   22   65 1   
    45   23   24 1   
    46   23   66 1   
    47   23   67 1   
    48   24   25 1   
    49   24   68 1   
    50   25   26 1   
    51   25   27 2   
    52   26   69 1   
    53   26   70 1   
    54   27   71 1   
    55   28   29 2   
    56   28   30 1   
    57   30   31 1   
    58   30   72 1   
    59   31   32 1   
    60   31   35 1   
    61   31   73 1   
    62   32   33 2   
    63   32   34 1   
    64   34   74 1   
    65   34   75 1   
    66   35   36 1   
    67   35   76 1   
    68   35   77 1   
    69   36   37 1   
    70   36   44 2   
    71   37   38 ar  
    72   37   42 ar  
    73   38   39 ar  
    74   38   78 1   
    75   39   40 ar  
    76   39   79 1   
    77   40   41 ar  
    78   40   80 1   
    79   41   42 ar  
    80   41   81 1   
    81   42   43 1   
    82   43   44 1   
    83   43   82 1   
    84   44   83 1   
@<TRIPOS>SUBSTRUCTURE
     1 NQG         1 TEMP              0 ****  ****    0 ROOT
