@<TRIPOS>MOLECULE
NQI
   89    90     1     0     0
SMALL
bcc


@<TRIPOS>ATOM
      1 CAB         1.1310   -1.8390   -0.7070 c3        1 NQI     -0.135100
      2 CAS         2.5580   -2.0620   -1.1240 c3        1 NQI      0.141400
      3 OBD         3.4100   -2.1960    0.0560 os        1 NQI     -0.355900
      4 CBK         3.9230   -1.1180    0.6340 c         1 NQI      0.659100
      5 OAK         3.7370    0.0310    0.1700 o         1 NQI     -0.682000
      6 CBS         4.7700   -1.4170    1.8410 c3        1 NQI     -0.212400
      7 CBR         5.6470   -0.2490    2.2670 c3        1 NQI      0.132100
      8 OAL         6.3540    0.3890    1.2300 oh        1 NQI     -0.631800
      9 CBJ         4.8320    0.8290    3.0050 c         1 NQI      0.517100
     10 OAJ         4.5780    0.8990    4.1900 o         1 NQI     -0.377100
     11 N           4.2460    1.9620    2.1530 ny        1 NQI     -0.708800
     12 CA          5.2050    3.0530    1.8000 c3        1 NQI      0.093500
     13 CB          4.7650    3.7720    0.5090 c3        1 NQI     -0.073200
     14 CAM         3.5090    4.5350    0.6830 c2        1 NQI     -0.348200
     15 CAA         2.5510    4.5810   -0.2480 c2        1 NQI     -0.037000
     16 C           5.3820    4.0510    2.9580 c         1 NQI      0.533100
     17 O           5.0320    3.9230    4.1170 o         1 NQI     -0.383100
     18 NAZ         6.0850    5.3620    2.6100 ny        1 NQI     -0.688800
     19 CBP         6.4840    6.2340    3.7810 c3        1 NQI      0.074500
     20 CAW         7.5650    7.2700    3.4020 c3        1 NQI     -0.113400
     21 CAT         8.9910    6.7340    3.2910 c3        1 NQI     -0.108400
     22 CAU         9.9550    7.8940    2.9670 c3        1 NQI      0.105800
     23 NAY        11.4040    7.4780    2.8960 ny        1 NQI     -0.795000
     24 CBF        12.3540    8.6320    2.5510 c2        1 NQI      0.628100
     25 NAE        12.0720    9.8350    2.2840 n2        1 NQI     -0.568100
     26 NAD        13.8080    8.2430    2.5330 nz        1 NQI     -0.820600
     27 CBI         5.2180    7.0270    4.2680 c         1 NQI      0.652100
     28 OAI         4.3720    7.3560    3.4180 o         1 NQI     -0.554100
     29 NBB         5.0700    7.3220    5.6050 ns        1 NQI     -0.537900
     30 CBQ         3.9500    8.1050    6.1000 c3        1 NQI      0.073700
     31 CBG         4.1860    9.6160    5.8290 c         1 NQI      0.505100
     32 OAG         5.2470   10.1280    5.5060 o         1 NQI     -0.392100
     33 NAF         3.0150   10.5380    5.9680 nz        1 NQI     -0.753400
     34 CAX         3.7020    7.9360    7.6210 c3        1 NQI     -0.092400
     35 CBL         2.3690    7.2920    7.9660 c3        1 NQI     -0.113700
     36 CBN         1.1240    8.1370    7.8210 ca        1 NQI     -0.163300
     37 CAQ         0.4860    8.6830    6.7250 ca        1 NQI     -0.160000
     38 CAO        -0.7570    9.3200    6.9060 ca        1 NQI     -0.065000
     39 CAN        -1.3570    9.4050    8.1610 ca        1 NQI     -0.059000
     40 CAP        -0.7500    8.8350    9.2950 ca        1 NQI     -0.007000
     41 CBM         0.4760    8.2040    9.1030 ca        1 NQI     -0.122200
     42 NBC         1.2640    7.4730   10.0550 nu        1 NQI     -0.060200
     43 CAR         2.3260    6.9530    9.4720 c2        1 NQI      0.335200
     44 HAB1        0.4790   -1.8880   -1.6160 hc        1 NQI      0.070700
     45 HAB2        0.7940   -2.6300    0.0070 hc        1 NQI      0.070700
     46 HAB3        1.0080   -0.8400   -0.2270 hc        1 NQI      0.070700
     47 HAS1        2.7070   -3.0690   -1.6100 h1        1 NQI      0.100700
     48 HAS2        2.9530   -1.2400   -1.7720 h1        1 NQI      0.100700
     49 HBS1        4.1070   -1.7560    2.6860 hc        1 NQI      0.160200
     50 HBS2        5.4400   -2.2990    1.6010 hc        1 NQI      0.160200
     51 HBR         6.4130   -0.6070    3.0290 h1        1 NQI      0.156700
     52 HOAL        6.1690   -0.0580    0.3850 ho        1 NQI      0.481000
     53 HN          3.9420    1.5080    1.2420 hn        1 NQI      0.501300
     54 HA          6.2160    2.5520    1.6170 hx        1 NQI      0.176700
     55 HB1         4.6460    3.0000   -0.3120 hc        1 NQI      0.105700
     56 HB2         5.6040    4.4360    0.1650 hc        1 NQI      0.105700
     57 HAM         3.4060    5.1030    1.6220 ha        1 NQI      0.092000
     58 HAA1        2.6070    4.0330   -1.2050 ha        1 NQI      0.170500
     59 HAA2        1.6340    5.1810   -0.1170 ha        1 NQI      0.170500
     60 HNAZ        5.4150    5.9000    2.0130 hn        1 NQI      0.487800
     61 HBP         6.8570    5.5460    4.5970 hx        1 NQI      0.141700
     62 HAW1        7.5430    8.0560    4.2110 hc        1 NQI      0.108700
     63 HAW2        7.2760    7.7850    2.4440 hc        1 NQI      0.108700
     64 HAT1        9.2850    6.2480    4.2610 hc        1 NQI      0.084200
     65 HAT2        9.0530    5.9600    2.4820 hc        1 NQI      0.084200
     66 HAU1        9.8660    8.6850    3.7690 hx        1 NQI      0.130200
     67 HAU2        9.6730    8.3360    1.9650 hx        1 NQI      0.130200
     68 HNAY       11.6730    7.0790    3.8090 hn        1 NQI      0.483300
     69 HNAE       11.1750   10.2790    2.2430 hn        1 NQI      0.550400
     70 HAD1       14.3870    9.0880    2.2880 hn        1 NQI      0.529467
     71 HAD2       14.1230    7.9150    3.4620 hn        1 NQI      0.529467
     72 HNBB        5.7900    7.0910    6.2550 hn        1 NQI      0.353500
     73 HBQ         3.0260    7.7970    5.5140 h1        1 NQI      0.135700
     74 HAF1        3.3300   11.4680    6.3020 hn        1 NQI      0.497133
     75 HAF2        2.3120   10.1610    6.6240 hn        1 NQI      0.497133
     76 HAX1        4.5150    7.3020    8.0780 hc        1 NQI      0.098200
     77 HAX2        3.7750    8.9350    8.1310 hc        1 NQI      0.098200
     78 HAQ         0.8800    8.5550    5.7060 ha        1 NQI      0.128000
     79 HAO        -1.2860    9.7390    6.0270 ha        1 NQI      0.198000
     80 HAN        -2.3420    9.9050    8.2740 ha        1 NQI      0.226000
     81 HAP        -1.2520    8.8810   10.2810 ha        1 NQI      0.219000
     82 HNBC        0.9840    7.3700   11.0230 hn        1 NQI      0.392700
     83 HAR         3.0790    6.3320    9.9940 h4        1 NQI      0.116800
     84 H2          3.4130    2.3530    2.6080 hn        1 NQI      0.501300
     85 HAZ2        6.9160    5.1520    2.0490 hn        1 NQI      0.487800
     86 HAY2       11.5000    6.7430    2.1770 hn        1 NQI      0.483300
     87 HAD3       13.9970    7.5240    1.8140 hn        1 NQI      0.529467
     88 HBB2        2.2350    6.3240    7.3990 hc        1 NQI      0.143700
     89 HAF3        2.5680   10.6780    5.0480 hn        1 NQI      0.497133
@<TRIPOS>BOND
     1    1    2 1   
     2    1   44 1   
     3    1   45 1   
     4    1   46 1   
     5    2    3 1   
     6    2   47 1   
     7    2   48 1   
     8    3    4 1   
     9    4    5 2   
    10    4    6 1   
    11    6    7 1   
    12    6   49 1   
    13    6   50 1   
    14    7    8 1   
    15    7    9 1   
    16    7   51 1   
    17    8   52 1   
    18    9   10 2   
    19    9   11 1   
    20   11   12 1   
    21   11   53 1   
    22   11   84 1   
    23   12   13 1   
    24   12   16 1   
    25   12   54 1   
    26   13   14 1   
    27   13   55 1   
    28   13   56 1   
    29   14   15 2   
    30   14   57 1   
    31   15   58 1   
    32   15   59 1   
    33   16   17 2   
    34   16   18 1   
    35   18   19 1   
    36   18   60 1   
    37   18   85 1   
    38   19   20 1   
    39   19   27 1   
    40   19   61 1   
    41   20   21 1   
    42   20   62 1   
    43   20   63 1   
    44   21   22 1   
    45   21   64 1   
    46   21   65 1   
    47   22   23 1   
    48   22   66 1   
    49   22   67 1   
    50   23   24 1   
    51   23   68 1   
    52   23   86 1   
    53   24   25 2   
    54   24   26 1   
    55   25   69 1   
    56   26   70 1   
    57   26   71 1   
    58   26   87 1   
    59   27   28 2   
    60   27   29 1   
    61   29   30 1   
    62   29   72 1   
    63   30   31 1   
    64   30   34 1   
    65   30   73 1   
    66   31   32 2   
    67   31   33 1   
    68   33   74 1   
    69   33   75 1   
    70   33   89 1   
    71   34   35 1   
    72   34   76 1   
    73   34   77 1   
    74   35   36 1   
    75   35   43 1   
    76   35   88 1   
    77   36   37 ar  
    78   36   41 ar  
    79   37   38 ar  
    80   37   78 1   
    81   38   39 ar  
    82   38   79 1   
    83   39   40 ar  
    84   39   80 1   
    85   40   41 ar  
    86   40   81 1   
    87   41   42 1   
    88   42   43 2   
    89   42   82 1   
    90   43   83 1   
@<TRIPOS>SUBSTRUCTURE
     1 NQI         1 TEMP              0 ****  ****    0 ROOT
