@<TRIPOS>MOLECULE
NQI
   89    90     1     0     0
SMALL
bcc


@<TRIPOS>ATOM
      1 CAB         6.3780   -2.3980    3.7420 c3        1 NQI     -0.134100
      2 CAS         4.9000   -2.1150    3.7270 c3        1 NQI      0.141400
      3 OBD         4.4140   -2.0740    2.3600 os        1 NQI     -0.361900
      4 CBK         4.4710   -0.9420    1.6600 c         1 NQI      0.681100
      5 OAK         4.8700    0.1270    2.1760 o         1 NQI     -0.707000
      6 CBS         4.0260   -1.1010    0.2350 c3        1 NQI     -0.197400
      7 CBR         3.6310    0.2090   -0.4370 c3        1 NQI      0.128100
      8 OAL         2.3920    0.7110    0.0220 oh        1 NQI     -0.643800
      9 CBJ         4.6940    1.2770   -0.1640 c         1 NQI      0.590100
     10 OAJ         5.8240    1.3450   -0.6000 o         1 NQI     -0.403100
     11 N           4.2720    2.4200    0.7960 n4        1 NQI     -0.695800
     12 CA          5.2500    3.5430    0.8610 c3        1 NQI      0.084500
     13 CB          5.0540    4.5300   -0.3050 c3        1 NQI     -0.068200
     14 CAM         3.7640    5.2500   -0.2220 c2        1 NQI     -0.346200
     15 CAA         3.0230    5.5490   -1.2930 c2        1 NQI     -0.042000
     16 C           5.1940    4.2610    2.2200 c         1 NQI      0.536100
     17 O           4.6060    3.9170    3.2280 o         1 NQI     -0.381100
     18 NAZ         5.9960    5.5590    2.3070 n4        1 NQI     -0.689800
     19 CBP         6.2030    6.1340    3.6910 c3        1 NQI      0.074500
     20 CAW         7.4850    6.9920    3.7870 c3        1 NQI     -0.113400
     21 CAT         8.8000    6.2200    3.8630 c3        1 NQI     -0.108400
     22 CAU         9.9740    7.2110    4.0050 c3        1 NQI      0.105800
     23 NAY        11.3200    6.5430    4.1430 n4        1 NQI     -0.795000
     24 CBF        12.4840    7.5350    4.2580 c2        1 NQI      0.628100
     25 NAE        12.4530    8.7990    4.2180 n2        1 NQI     -0.568100
     26 NAD        13.8290    6.8830    4.4390 n4        1 NQI     -0.820600
     27 CBI         4.9870    7.0670    4.0330 c         1 NQI      0.650100
     28 OAI         4.4330    7.6730    3.0980 o         1 NQI     -0.555100
     29 NBB         4.5540    7.1840    5.3360 n         1 NQI     -0.537900
     30 CBQ         3.4760    8.0840    5.7050 c3        1 NQI      0.073700
     31 CBG         3.9930    9.5480    5.7700 c         1 NQI      0.505100
     32 OAG         5.1640    9.8920    5.7940 o         1 NQI     -0.392100
     33 NAF         2.9740   10.6440    5.8030 n4        1 NQI     -0.753400
     34 CAX         2.8340    7.7550    7.0770 c3        1 NQI     -0.092400
     35 CBL         1.3760    7.3370    6.9960 c3        1 NQI     -0.114700
     36 CBN         0.3490    8.4130    6.7240 ca        1 NQI     -0.163300
     37 CAQ         0.0960    9.2080    5.6230 ca        1 NQI     -0.160000
     38 CAO        -1.0420   10.0370    5.6270 ca        1 NQI     -0.065000
     39 CAN        -1.9180   10.0670    6.7110 ca        1 NQI     -0.059000
     40 CAP        -1.7080    9.2500    7.8360 ca        1 NQI     -0.007000
     41 CBM        -0.5830    8.4310    7.8190 ca        1 NQI     -0.122200
     42 NBC        -0.1800    7.4460    8.7820 nh        1 NQI     -0.060200
     43 CAR         0.9040    6.8160    8.3720 c2        1 NQI      0.334200
     44 HAB1        6.7040   -2.5870    4.7950 hc        1 NQI      0.066367
     45 HAB2        6.6130   -3.3090    3.1350 hc        1 NQI      0.066367
     46 HAB3        6.9520   -1.5350    3.3300 hc        1 NQI      0.066367
     47 HAS1        4.3040   -2.9730    4.1510 h1        1 NQI      0.086200
     48 HAS2        4.6430   -1.1560    4.2420 h1        1 NQI      0.086200
     49 HBS1        3.1490   -1.8130    0.1940 hc        1 NQI      0.156200
     50 HBS2        4.8650   -1.5930   -0.3380 hc        1 NQI      0.156200
     51 HBR         3.6130    0.0680   -1.5650 h1        1 NQI      0.151700
     52 HOAL        1.6890    0.1130   -0.2890 ho        1 NQI      0.498000
     53 HN          4.1540    1.9530    1.7220 hn        1 NQI      0.503800
     54 HA          6.2900    3.0770    0.7850 hx        1 NQI      0.164700
     55 HB1         5.1260    3.9510   -1.2750 hc        1 NQI      0.101700
     56 HB2         5.9200    5.2450   -0.3270 hc        1 NQI      0.101700
     57 HAM         3.4530    5.5720    0.7860 ha        1 NQI      0.095000
     58 HAA1        3.2960    5.2590   -2.3220 ha        1 NQI      0.170500
     59 HAA2        2.0790    6.1180   -1.2130 ha        1 NQI      0.170500
     60 HNAZ        6.9090    5.4070    1.8660 hn        1 NQI      0.487800
     61 HBP         6.2500    5.2640    4.4130 hx        1 NQI      0.144700
     62 HAW1        7.5180    7.7170    2.9260 hc        1 NQI      0.108200
     63 HAW2        7.3800    7.6080    4.7260 hc        1 NQI      0.108200
     64 HAT1        8.9440    5.6030    2.9370 hc        1 NQI      0.084700
     65 HAT2        8.7750    5.5220    4.7440 hc        1 NQI      0.084700
     66 HAU1        9.8120    7.8470    4.9250 hx        1 NQI      0.130200
     67 HAU2       10.0090    7.8720    3.0890 hx        1 NQI      0.130200
     68 HNAY       11.3020    5.9450    4.9850 hn        1 NQI      0.483300
     69 HNAE       11.6660    9.4070    4.1020 hn        1 NQI      0.550400
     70 HAD1       14.0720    6.2890    3.6270 hn        1 NQI      0.529467
     71 HAD2       14.5680    7.6310    4.5100 hn        1 NQI      0.529467
     72 HNBB        5.0490    6.7320    6.0750 hn        1 NQI      0.353500
     73 HBQ         2.6910    8.0390    4.8830 h1        1 NQI      0.135700
     74 HAF1        3.3300   11.4470    6.3550 hn        1 NQI      0.497133
     75 HAF2        2.7950   10.9860    4.8450 hn        1 NQI      0.497133
     76 HAX1        3.4010    6.9180    7.5790 hc        1 NQI      0.098200
     77 HAX2        2.9290    8.6400    7.7630 hc        1 NQI      0.098200
     78 HAQ         0.7100    9.1430    4.7130 ha        1 NQI      0.128000
     79 HAO        -1.2640   10.6590    4.7380 ha        1 NQI      0.199000
     80 HAN        -2.8140   10.7240    6.6840 ha        1 NQI      0.226000
     81 HAP        -2.4290    9.2590    8.6770 ha        1 NQI      0.219000
     82 HNBC       -0.7060    7.2710    9.6300 hn        1 NQI      0.392700
     83 HAR         1.3980    6.0010    8.9340 h4        1 NQI      0.115800
     84 H2          3.3500    2.7640    0.4810 hn        1 NQI      0.503800
     85 HAZ2        5.4750    6.2610    1.7320 hn        1 NQI      0.487800
     86 HAY2       11.4750    5.9420    3.3180 hn        1 NQI      0.483300
     87 HAD3       13.8670    6.3320    5.3130 hn        1 NQI      0.529467
     88 HBB2        1.2420    6.4950    6.2540 hc        1 NQI      0.143700
     89 HAF3        2.0830   10.3190    6.2100 hn        1 NQI      0.497133
@<TRIPOS>BOND
     1    1    2 1   
     2    1   44 1   
     3    1   45 1   
     4    1   46 1   
     5    2    3 1   
     6    2   47 1   
     7    2   48 1   
     8    3    4 1   
     9    4    5 2   
    10    4    6 1   
    11    6    7 1   
    12    6   49 1   
    13    6   50 1   
    14    7    8 1   
    15    7    9 1   
    16    7   51 1   
    17    8   52 1   
    18    9   10 2   
    19    9   11 1   
    20   11   12 1   
    21   11   53 1   
    22   11   84 1   
    23   12   13 1   
    24   12   16 1   
    25   12   54 1   
    26   13   14 1   
    27   13   55 1   
    28   13   56 1   
    29   14   15 2   
    30   14   57 1   
    31   15   58 1   
    32   15   59 1   
    33   16   17 2   
    34   16   18 1   
    35   18   19 1   
    36   18   60 1   
    37   18   85 1   
    38   19   20 1   
    39   19   27 1   
    40   19   61 1   
    41   20   21 1   
    42   20   62 1   
    43   20   63 1   
    44   21   22 1   
    45   21   64 1   
    46   21   65 1   
    47   22   23 1   
    48   22   66 1   
    49   22   67 1   
    50   23   24 1   
    51   23   68 1   
    52   23   86 1   
    53   24   25 2   
    54   24   26 1   
    55   25   69 1   
    56   26   70 1   
    57   26   71 1   
    58   26   87 1   
    59   27   28 2   
    60   27   29 1   
    61   29   30 1   
    62   29   72 1   
    63   30   31 1   
    64   30   34 1   
    65   30   73 1   
    66   31   32 2   
    67   31   33 1   
    68   33   74 1   
    69   33   75 1   
    70   33   89 1   
    71   34   35 1   
    72   34   76 1   
    73   34   77 1   
    74   35   36 1   
    75   35   43 1   
    76   35   88 1   
    77   36   37 ar  
    78   36   41 ar  
    79   37   38 ar  
    80   37   78 1   
    81   38   39 ar  
    82   38   79 1   
    83   39   40 ar  
    84   39   80 1   
    85   40   41 ar  
    86   40   81 1   
    87   41   42 1   
    88   42   43 2   
    89   42   82 1   
    90   43   83 1   
@<TRIPOS>SUBSTRUCTURE
     1 NQI         1 TEMP              0 ****  ****    0 ROOT
