@<TRIPOS>MOLECULE
NQI
   83    76     1     0     0
SMALL
bcc


@<TRIPOS>ATOM
      1 CAB         5.7770    1.1600   -0.1140 c3        1 NQI     -0.220000
      2 CAS         4.7930    1.2250   -1.2650 c3        1 NQI     -0.012000
      3 OBD         4.9170    0.0270   -2.0800 os        1 NQI     -0.263000
      4 CBK         3.6800   -0.4030   -2.6720 c2        1 NQI      0.305000
      5 OAK         2.8110    0.4150   -2.9240 o         1 NQI     -0.388000
      6 CBS         3.3840   -1.9190   -2.8330 c3        1 NQI     -0.198000
      7 CBR         2.0610   -2.2520   -2.1630 c3        1 NQI      0.032000
      8 OAL         1.0420   -1.5370   -2.7700 oh        1 NQI     -0.346000
      9 CBJ         1.7770   -3.7630   -2.3010 c2        1 NQI      0.310000
     10 OAJ         2.2310   -4.4020   -3.2880 o         1 NQI     -0.372000
     11 N           1.0570   -4.4630   -1.2520 n         1 NQI     -0.355000
     12 CA         -0.3660   -4.3270   -1.1430 c3        1 NQI      0.026000
     13 CB         -1.0000   -5.6830   -1.2420 c3        1 NQI     -0.145000
     14 CAM        -1.3410   -5.9740   -2.6670 c2        1 NQI     -0.174000
     15 CAA        -1.9040   -7.2010   -3.0090 c1        1 NQI     -0.209000
     16 C          -0.7120   -3.7070    0.2020 c2        1 NQI      0.284000
     17 O          -0.4900   -4.3280    1.2410 o         1 NQI     -0.350000
     18 NAZ        -1.3410   -2.4350    0.2560 n         1 NQI     -0.388000
     19 CBP        -1.3330   -1.6890    1.4650 c3        1 NQI      0.010000
     20 CAW        -0.0180   -0.9200    1.5810 c3        1 NQI     -0.169000
     21 CAT         0.6450   -1.2210    2.9570 c3        1 NQI     -0.176000
     22 CAU         1.3470    0.0280    3.4660 c3        1 NQI     -0.048000
     23 NAY         2.7340   -0.3040    3.8590 n3        1 NQI     -0.333000
     24 CBF         3.5560    0.6970    4.5240 c2        1 NQI      0.158000
     25 NAE         4.3150    0.3560    5.5220 n1        1 NQI     -0.351000
     26 NAD         3.5250    2.0410    4.0840 n3        1 NQI     -0.318000
     27 CBI        -2.5080   -0.6970    1.4650 c2        1 NQI      0.289000
     28 OAI        -3.6190   -1.0510    1.0430 o         1 NQI     -0.377000
     29 NBB        -2.3230    0.6460    1.9740 n         1 NQI     -0.360000
     30 CBQ        -3.1370    1.6920    1.5030 c3        1 NQI      0.004000
     31 CBG        -3.7010    1.3220    0.1770 c2        1 NQI      0.289000
     32 OAG        -2.9590    0.8890   -0.7120 o         1 NQI     -0.396000
     33 NAF        -5.0780    1.5160   -0.0840 n         1 NQI     -0.421000
     34 CAX        -2.2980    2.9690    1.3620 c3        1 NQI     -0.095000
     35 CBL        -2.9680    3.9130    0.3690 c2        1 NQI     -0.186000
     36 CBN        -2.7590    4.4070   -0.8980 c1        1 NQI     -0.085000
     37 CAQ        -2.4640    3.7660   -2.1250 c1        1 NQI     -0.126250
     38 CAO        -2.2940    4.5230   -3.2900 c1        1 NQI     -0.126250
     39 CAN        -2.4150    5.9140   -3.2420 c1        1 NQI     -0.126250
     40 CAP        -2.7080    6.5530   -2.0220 c1        1 NQI     -0.126250
     41 CBM        -2.8800    5.7850   -0.8460 c1        1 NQI     -0.006000
     42 NBC        -3.1660    6.1380    0.4670 n1        1 NQI     -0.209000
     43 CAR        -3.2200    4.9870    1.2140 c1        1 NQI     -0.051000
     44 HAB1        5.9310    2.0770    0.2440 hc        1 NQI      0.091000
     45 HAB2        5.4140    0.5910    0.5930 hc        1 NQI      0.091000
     46 HAB3        6.6300    0.7850   -0.4320 hc        1 NQI      0.091000
     47 HAS1        4.9810    2.0080   -1.8080 h1        1 NQI      0.093500
     48 HAS2        3.8880    1.2850   -0.9150 h1        1 NQI      0.093500
     49 HBS1        3.3320   -2.1450   -3.7930 hc        1 NQI      0.155500
     50 HBS2        4.0930   -2.4340   -2.4180 hc        1 NQI      0.155500
     51 HBR         2.1050   -2.0130   -1.2170 h1        1 NQI      0.106000
     52 HOAL        1.2030   -1.4690   -3.6280 ho        1 NQI      0.241000
     53 HN          1.4940   -5.0250   -0.7050 hn        1 NQI      0.247000
     54 HA         -0.7020   -3.7480   -1.8730 h1        1 NQI      0.136000
     55 HB1        -0.3560   -6.3780   -0.9050 hc        1 NQI      0.115000
     56 HB2        -1.8230   -5.7040   -0.6940 hc        1 NQI      0.115000
     57 HAM        -1.1710   -5.3090   -3.3550 ha        1 NQI      0.127000
     58 HAA1       -2.0780   -7.8800   -2.3060 DU        1 NQI      0.176750
     59 HAA2       -2.1330   -7.3970   -3.9590 ha        1 NQI      0.117000
     60 HNAZ       -1.7670   -2.1100   -0.4730 hn        1 NQI      0.239000
     61 HBP        -1.4200   -2.2860    2.2090 h1        1 NQI      0.163000
     62 HAW1        0.5870   -1.1970    0.8580 hc        1 NQI      0.094000
     63 HAW2       -0.1950    0.0360    1.5080 hc        1 NQI      0.094000
     64 HAT1        1.2970   -1.9420    2.8550 hc        1 NQI      0.102500
     65 HAT2       -0.0440   -1.4920    3.6010 hc        1 NQI      0.102500
     66 HAU1        1.3630    0.7020    2.7600 h1        1 NQI      0.081000
     67 HAU2        0.8580    0.3840    4.2510 h1        1 NQI      0.081000
     68 HNAY        3.0780   -1.1590    3.6920 hn        1 NQI      0.193000
     69 HNAE        4.3330   -0.5000    5.8020 DU        1 NQI      0.176750
     70 HAD1        2.7620    2.5250    4.1620 hn        1 NQI      0.189000
     71 HAD2        4.2800    2.4320    3.7630 hn        1 NQI      0.189000
     72 HNBB       -1.7770    0.7870    2.6880 hn        1 NQI      0.243000
     73 HBQ        -3.8630    1.8480    2.1330 h1        1 NQI      0.136000
     74 HAF1       -5.6640    1.7020    0.6180 hn        1 NQI      0.236500
     75 HAF2       -5.4000    1.4250   -0.9410 hn        1 NQI      0.236500
     76 HAX1       -2.2260    3.4110    2.2330 hc        1 NQI      0.102500
     77 HAX2       -1.4220    2.7420    1.0440 hc        1 NQI      0.102500
     78 HAQ        -2.3820    2.8010   -2.1580 ha        1 NQI      0.133000
     79 HAO        -2.0910    4.0870   -4.1210 ha        1 NQI      0.133000
     80 HAN        -2.2930    6.4510   -4.0660 ha        1 NQI      0.133000
     81 HAP        -2.7900    7.4890   -1.9900 ha        1 NQI      0.133000
     82 HNBC       -3.2950    6.9920    0.7820 DU        1 NQI      0.176750
     83 HAR        -3.3860    4.9350    2.1690 DU        1 NQI      0.176750
@<TRIPOS>BOND
     1    1    2 1   
     2    1   44 1   
     3    1   45 1   
     4    1   46 1   
     5    2    3 1   
     6    2   47 1   
     7    2   48 1   
     8    3    4 1   
     9    4    5 1   
    10    4    6 1   
    11    6    7 1   
    12    6   49 1   
    13    6   50 1   
    14    7    8 1   
    15    7    9 1   
    16    7   51 1   
    17    8   52 1   
    18    9   10 1   
    19    9   11 1   
    20   11   12 1   
    21   11   53 1   
    22   12   13 1   
    23   12   16 1   
    24   12   54 1   
    25   13   14 1   
    26   13   55 1   
    27   13   56 1   
    28   14   15 1   
    29   14   57 1   
    30   15   59 1   
    31   16   17 1   
    32   16   18 1   
    33   18   19 1   
    34   18   60 1   
    35   19   20 1   
    36   19   27 1   
    37   19   61 1   
    38   20   21 1   
    39   20   62 1   
    40   20   63 1   
    41   21   22 1   
    42   21   64 1   
    43   21   65 1   
    44   22   23 1   
    45   22   66 1   
    46   22   67 1   
    47   23   24 1   
    48   23   68 1   
    49   24   25 1   
    50   24   26 1   
    51   26   70 1   
    52   26   71 1   
    53   27   28 1   
    54   27   29 1   
    55   29   30 1   
    56   29   72 1   
    57   30   31 1   
    58   30   34 1   
    59   30   73 1   
    60   31   32 1   
    61   31   33 1   
    62   33   74 1   
    63   33   75 1   
    64   34   35 1   
    65   34   76 1   
    66   34   77 1   
    67   35   36 1   
    68   35   43 1   
    69   36   41 1   
    70   37   38 1   
    71   37   78 1   
    72   38   79 1   
    73   39   40 1   
    74   39   80 1   
    75   40   81 1   
    76   42   43 1   
@<TRIPOS>SUBSTRUCTURE
     1 NQI         1 TEMP              0 ****  ****    0 ROOT
