@<TRIPOS>MOLECULE
NQI
   83    84     1     0     0
SMALL
bcc


@<TRIPOS>ATOM
      1 CAB         0.8880   -1.5700    6.6310 c3        1 NQI     -0.101100
      2 CAS         0.9670   -2.9300    5.9840 c3        1 NQI      0.137400
      3 OBD         1.6330   -3.7880    6.9310 os        1 NQI     -0.440900
      4 CBK         1.8100   -5.0880    6.5540 c         1 NQI      0.633100
      5 OAK         1.4020   -5.4450    5.4470 o         1 NQI     -0.537000
      6 CBS         2.4740   -5.9100    7.6140 c3        1 NQI     -0.165400
      7 CBR         3.3570   -7.0200    7.0490 c3        1 NQI      0.096100
      8 OAL         2.6490   -7.8830    6.1950 oh        1 NQI     -0.576800
      9 CBJ         4.5790   -6.4460    6.3170 c         1 NQI      0.618100
     10 OAJ         4.6500   -6.4910    5.0750 o         1 NQI     -0.580100
     11 N           5.5600   -5.8450    7.0880 n         1 NQI     -0.544900
     12 CA          6.8240   -5.4470    6.5240 c3        1 NQI      0.036700
     13 CB          7.1890   -3.9880    6.8500 c3        1 NQI     -0.056200
     14 CAM         7.3040   -3.7320    8.3050 c2        1 NQI     -0.182200
     15 CAA         6.8130   -2.6510    8.9060 c2        1 NQI     -0.210000
     16 C           7.9760   -6.3680    7.0060 c         1 NQI      0.645100
     17 O           7.8870   -7.0500    8.0520 o         1 NQI     -0.647100
     18 NAZ         9.1110   -6.3990    6.2310 n         1 NQI     -0.552900
     19 CBP        10.1690   -7.3520    6.4460 c3        1 NQI      0.047700
     20 CAW        11.0390   -7.5780    5.2010 c3        1 NQI     -0.092400
     21 CAT        10.2440   -8.1300    4.0410 c3        1 NQI     -0.121400
     22 CAU        11.1490   -8.6560    2.9260 c3        1 NQI      0.188800
     23 NAY        12.0770   -7.7290    2.3240 nh        1 NQI     -0.794200
     24 CBF        11.5730   -6.7450    1.3960 c2        1 NQI      0.742100
     25 NAE        10.2960   -6.6730    1.1130 n2        1 NQI     -0.876100
     26 NAD        12.5790   -5.8750    0.8550 nh        1 NQI     -0.933800
     27 CBI        11.1200   -6.9100    7.5940 c         1 NQI      0.645100
     28 OAI        12.1620   -6.2680    7.3450 o         1 NQI     -0.633100
     29 NBB        10.7760   -7.3020    8.8620 n         1 NQI     -0.549900
     30 CBQ        11.6270   -7.0880   10.0080 c3        1 NQI      0.043700
     31 CBG        12.8030   -8.1040   10.0270 c         1 NQI      0.635100
     32 OAG        12.8370   -9.0480   10.8420 o         1 NQI     -0.621100
     33 NAF        13.8120   -7.9150    9.1260 n         1 NQI     -0.669000
     34 CAX        10.8830   -7.2270   11.3490 c3        1 NQI     -0.008200
     35 CBL         9.9610   -6.1200   11.6190 cc        1 NQI     -0.151400
     36 CBN        10.1700   -5.0660   12.5940 ca        1 NQI     -0.084800
     37 CAQ        11.2040   -4.7470   13.4750 ca        1 NQI     -0.083000
     38 CAO        11.0700   -3.6340   14.2920 ca        1 NQI     -0.155000
     39 CAN         9.9160   -2.8310   14.2510 ca        1 NQI     -0.113000
     40 CAP         8.8630   -3.1160   13.3960 ca        1 NQI     -0.146000
     41 CBM         8.9850   -4.2380   12.5620 ca        1 NQI     -0.049200
     42 NBC         8.1000   -4.7860   11.6280 na        1 NQI     -0.195400
     43 CAR         8.7050   -5.9050   11.0500 cd        1 NQI     -0.102100
     44 HAB1        0.3750   -0.8660    5.9330 hc        1 NQI      0.049033
     45 HAB2        0.3130   -1.6220    7.5870 hc        1 NQI      0.049033
     46 HAB3        1.9100   -1.1820    6.8570 hc        1 NQI      0.049033
     47 HAS1        1.5650   -2.9130    5.0350 h1        1 NQI      0.055200
     48 HAS2       -0.0490   -3.3550    5.7700 h1        1 NQI      0.055200
     49 HBS1        3.0720   -5.2460    8.2920 hc        1 NQI      0.094200
     50 HBS2        1.6530   -6.3830    8.2200 hc        1 NQI      0.094200
     51 HBR         3.6970   -7.6840    7.8970 h1        1 NQI      0.096700
     52 HOAL        2.4490   -7.4010    5.3730 ho        1 NQI      0.447000
     53 HN          5.5550   -5.9970    8.0710 hn        1 NQI      0.319500
     54 HA          6.7390   -5.5380    5.3950 h1        1 NQI      0.110700
     55 HB1         8.1740   -3.7570    6.3590 hc        1 NQI      0.067200
     56 HB2         6.4180   -3.3150    6.3870 hc        1 NQI      0.067200
     57 HAM         7.8600   -4.5040    8.8670 ha        1 NQI      0.131000
     58 HAA1        6.9430   -2.4690    9.9810 ha        1 NQI      0.114500
     59 HAA2        6.2570   -1.8700    8.3700 ha        1 NQI      0.114500
     60 HNAZ        9.1810   -5.8140    5.4310 hn        1 NQI      0.329500
     61 HBP         9.6920   -8.3400    6.7350 h1        1 NQI      0.081700
     62 HAW1       11.5400   -6.6140    4.9200 hc        1 NQI      0.065700
     63 HAW2       11.8490   -8.2980    5.4910 hc        1 NQI      0.065700
     64 HAT1        9.6060   -8.9850    4.3890 hc        1 NQI      0.061700
     65 HAT2        9.5550   -7.3470    3.6300 hc        1 NQI      0.061700
     66 HAU1       11.7890   -9.4860    3.3470 h1        1 NQI      0.065200
     67 HAU2       10.4960   -9.0970    2.1210 h1        1 NQI      0.065200
     68 HNAY       12.6690   -7.3020    3.0130 hn        1 NQI      0.391800
     69 HNAE       10.0480   -6.0330    0.3910 hn        1 NQI      0.392400
     70 HAD1       13.5170   -6.1950    0.9540 hn        1 NQI      0.391800
     71 HAD2       12.3840   -5.5760   -0.0760 hn        1 NQI      0.391800
     72 HNBB        9.8740   -7.6970    9.0220 hn        1 NQI      0.342500
     73 HBQ        12.0660   -6.0460    9.9390 h1        1 NQI      0.086700
     74 HAF1       14.5800   -8.5390    9.1120 hn        1 NQI      0.322000
     75 HAF2       13.7730   -7.1800    8.4620 hn        1 NQI      0.322000
     76 HAX1       11.6660   -7.2690   12.1570 hc        1 NQI      0.075200
     77 HAX2       10.3390   -8.2110   11.3770 hc        1 NQI      0.075200
     78 HAQ        12.1070   -5.3730   13.5160 ha        1 NQI      0.136000
     79 HAO        11.8780   -3.3690   14.9900 ha        1 NQI      0.130000
     80 HAN         9.8510   -1.9570   14.9160 ha        1 NQI      0.129000
     81 HAP         7.9630   -2.4870   13.3730 ha        1 NQI      0.130000
     82 HNBC        7.2660   -4.3630   11.3200 hn        1 NQI      0.294700
     83 HAR         8.1900   -6.4790   10.2720 h4        1 NQI      0.184000
@<TRIPOS>BOND
     1    1    2 1   
     2    1   44 1   
     3    1   45 1   
     4    1   46 1   
     5    2    3 1   
     6    2   47 1   
     7    2   48 1   
     8    3    4 1   
     9    4    5 2   
    10    4    6 1   
    11    6    7 1   
    12    6   49 1   
    13    6   50 1   
    14    7    8 1   
    15    7    9 1   
    16    7   51 1   
    17    8   52 1   
    18    9   10 2   
    19    9   11 1   
    20   11   12 1   
    21   11   53 1   
    22   12   13 1   
    23   12   16 1   
    24   12   54 1   
    25   13   14 1   
    26   13   55 1   
    27   13   56 1   
    28   14   15 2   
    29   14   57 1   
    30   15   58 1   
    31   15   59 1   
    32   16   17 2   
    33   16   18 1   
    34   18   19 1   
    35   18   60 1   
    36   19   20 1   
    37   19   27 1   
    38   19   61 1   
    39   20   21 1   
    40   20   62 1   
    41   20   63 1   
    42   21   22 1   
    43   21   64 1   
    44   21   65 1   
    45   22   23 1   
    46   22   66 1   
    47   22   67 1   
    48   23   24 1   
    49   23   68 1   
    50   24   25 2   
    51   24   26 1   
    52   25   69 1   
    53   26   70 1   
    54   26   71 1   
    55   27   28 2   
    56   27   29 1   
    57   29   30 1   
    58   29   72 1   
    59   30   31 1   
    60   30   34 1   
    61   30   73 1   
    62   31   32 2   
    63   31   33 1   
    64   33   74 1   
    65   33   75 1   
    66   34   35 1   
    67   34   76 1   
    68   34   77 1   
    69   35   36 1   
    70   35   43 2   
    71   36   37 ar  
    72   36   41 ar  
    73   37   38 ar  
    74   37   78 1   
    75   38   39 ar  
    76   38   79 1   
    77   39   40 ar  
    78   39   80 1   
    79   40   41 ar  
    80   40   81 1   
    81   41   42 1   
    82   42   43 1   
    83   42   82 1   
    84   43   83 1   
@<TRIPOS>SUBSTRUCTURE
     1 NQI         1 TEMP              0 ****  ****    0 ROOT
