@<TRIPOS>MOLECULE
NQI
   89    90     1     0     0
SMALL
bcc


@<TRIPOS>ATOM
      1 CAB         6.4010   -2.3980    3.5210 c3        1 NQI     -0.134100
      2 CAS         4.9230   -2.1170    3.5390 c3        1 NQI      0.141400
      3 OBD         4.4130   -2.0430    2.1830 os        1 NQI     -0.361900
      4 CBK         4.4560   -0.8940    1.5100 c         1 NQI      0.682100
      5 OAK         4.8610    0.1630    2.0450 o         1 NQI     -0.707000
      6 CBS         3.9860   -1.0190    0.0900 c3        1 NQI     -0.197400
      7 CBR         3.5780    0.3070   -0.5430 c3        1 NQI      0.128100
      8 OAL         2.3450    0.7950   -0.0510 oh        1 NQI     -0.643800
      9 CBJ         4.6430    1.3700   -0.2620 c         1 NQI      0.590100
     10 OAJ         5.7660    1.4520   -0.7150 o         1 NQI     -0.403100
     11 N           4.2360    2.4880    0.7340 n4        1 NQI     -0.695800
     12 CA          5.2130    3.6110    0.8110 c3        1 NQI      0.084500
     13 CB          4.9990    4.6250   -0.3280 c3        1 NQI     -0.068200
     14 CAM         3.7100    5.3420   -0.2080 c2        1 NQI     -0.346200
     15 CAA         2.9530    5.6660   -1.2610 c2        1 NQI     -0.042000
     16 C           5.1770    4.2950    2.1880 c         1 NQI      0.536100
     17 O           4.6040    3.9260    3.1960 o         1 NQI     -0.381100
     18 NAZ         5.9790    5.5920    2.2940 n4        1 NQI     -0.689800
     19 CBP         6.2050    6.1340    3.6880 c3        1 NQI      0.074500
     20 CAW         7.4890    6.9900    3.7870 c3        1 NQI     -0.113400
     21 CAT         8.8040    6.2160    3.8270 c3        1 NQI     -0.108400
     22 CAU         9.9800    7.2040    3.9770 c3        1 NQI      0.105800
     23 NAY        11.3270    6.5340    4.0820 n4        1 NQI     -0.795000
     24 CBF        12.4930    7.5230    4.2040 c2        1 NQI      0.628100
     25 NAE        12.4620    8.7870    4.1920 n2        1 NQI     -0.568100
     26 NAD        13.8400    6.8660    4.3520 n4        1 NQI     -0.820600
     27 CBI         4.9930    7.0580    4.0690 c         1 NQI      0.650100
     28 OAI         4.4270    7.6860    3.1560 o         1 NQI     -0.555100
     29 NBB         4.5800    7.1450    5.3800 n         1 NQI     -0.537900
     30 CBQ         3.5060    8.0370    5.7840 c3        1 NQI      0.073700
     31 CBG         4.0240    9.4990    5.8750 c         1 NQI      0.505100
     32 OAG         5.1950    9.8430    5.8900 o         1 NQI     -0.392100
     33 NAF         3.0050   10.5940    5.9470 n4        1 NQI     -0.753400
     34 CAX         2.8840    7.6760    7.1570 c3        1 NQI     -0.092400
     35 CBL         1.4250    7.2600    7.0880 c3        1 NQI     -0.114700
     36 CBN         0.3940    8.3410    6.8550 ca        1 NQI     -0.163300
     37 CAQ         0.1260    9.1610    5.7760 ca        1 NQI     -0.160000
     38 CAO        -1.0120    9.9890    5.8150 ca        1 NQI     -0.065000
     39 CAN        -1.8730    9.9950    6.9110 ca        1 NQI     -0.059000
     40 CAP        -1.6470    9.1530    8.0140 ca        1 NQI     -0.007000
     41 CBM        -0.5220    8.3340    7.9630 ca        1 NQI     -0.122200
     42 NBC        -0.1050    7.3280    8.8980 nh        1 NQI     -0.060200
     43 CAR         0.9720    6.7080    8.4580 c2        1 NQI      0.334200
     44 HAB1        6.9670   -1.5240    3.1200 hc        1 NQI      0.066367
     45 HAB2        6.7450   -2.6130    4.5630 hc        1 NQI      0.066367
     46 HAB3        6.6270   -3.2930    2.8880 hc        1 NQI      0.066367
     47 HAS1        4.6730   -1.1710    4.0820 h1        1 NQI      0.086200
     48 HAS2        4.3350   -2.9860    3.9520 h1        1 NQI      0.086200
     49 HBS1        4.8160   -1.4950   -0.5100 hc        1 NQI      0.156200
     50 HBS2        3.1100   -1.7310    0.0460 hc        1 NQI      0.156200
     51 HBR         3.5400    0.1940   -1.6740 h1        1 NQI      0.151700
     52 HOAL        1.6380    0.2030   -0.3650 ho        1 NQI      0.498000
     53 HN          4.1330    1.9980    1.6490 hn        1 NQI      0.503800
     54 HA          6.2530    3.1480    0.7080 hx        1 NQI      0.164700
     55 HB1         5.0580    4.0700   -1.3120 hc        1 NQI      0.101700
     56 HB2         5.8640    5.3420   -0.3450 hc        1 NQI      0.101700
     57 HAM         3.4140    5.6380    0.8110 ha        1 NQI      0.095000
     58 HAA1        3.2120    5.4000   -2.3010 ha        1 NQI      0.170500
     59 HAA2        2.0110    6.2310   -1.1540 ha        1 NQI      0.170500
     60 HNAZ        5.4500    6.3070    1.7430 hn        1 NQI      0.487800
     61 HBP         6.2610    5.2480    4.3890 hx        1 NQI      0.144700
     62 HAW1        7.3960    7.5840    4.7410 hc        1 NQI      0.108200
     63 HAW2        7.5100    7.7350    2.9430 hc        1 NQI      0.108200
     64 HAT1        8.9350    5.6210    2.8850 hc        1 NQI      0.084700
     65 HAT2        8.7910    5.4980    4.6920 hc        1 NQI      0.084700
     66 HAU1        9.8300    7.8180    4.9140 hx        1 NQI      0.130200
     67 HAU2       10.0030    7.8860    3.0750 hx        1 NQI      0.130200
     68 HNAY       11.4720    5.9520    3.2410 hn        1 NQI      0.483300
     69 HNAE       11.6740    9.3980    4.1010 hn        1 NQI      0.550400
     70 HAD1       14.5800    7.6130    4.4290 hn        1 NQI      0.529467
     71 HAD2       13.8890    6.2960    5.2130 hn        1 NQI      0.529467
     72 HNBB        1.2800    6.4350    6.3290 hc        1 NQI      0.143700
     73 HBQ         2.7090    8.0100    4.9730 h1        1 NQI      0.135700
     74 HAF1        3.3690   11.3840    6.5110 hn        1 NQI      0.497133
     75 HAF2        2.8120   10.9560    4.9990 hn        1 NQI      0.497133
     76 HAX1        3.4580    6.8290    7.6320 hc        1 NQI      0.098200
     77 HAX2        2.9890    8.5460    7.8620 hc        1 NQI      0.098200
     78 HAQ         0.7270    9.1170    4.8560 ha        1 NQI      0.128000
     79 HAO        -1.2480   10.6310    4.9430 ha        1 NQI      0.199000
     80 HAN        -2.7690   10.6520    6.9120 ha        1 NQI      0.226000
     81 HAP        -2.3560    9.1430    8.8660 ha        1 NQI      0.219000
     82 HNBC       -0.6190    7.1340    9.7490 hn        1 NQI      0.392700
     83 HAR         1.4750    5.8810    8.9950 h4        1 NQI      0.115800
     84 H2          3.3090    2.8380    0.4420 hn        1 NQI      0.503800
     85 HAZ2        6.8860    5.4510    1.8370 hn        1 NQI      0.487800
     86 HAY2       11.3210    5.9150    4.9090 hn        1 NQI      0.483300
     87 HAD3       14.0720    6.2910    3.5240 hn        1 NQI      0.529467
     88 HBB2        5.0840    6.6770    6.1010 hn        1 NQI      0.353500
     89 HAF3        2.1200   10.2590    6.3600 hn        1 NQI      0.497133
@<TRIPOS>BOND
     1    1    2 1   
     2    1   44 1   
     3    1   45 1   
     4    1   46 1   
     5    2    3 1   
     6    2   47 1   
     7    2   48 1   
     8    3    4 1   
     9    4    5 2   
    10    4    6 1   
    11    6    7 1   
    12    6   49 1   
    13    6   50 1   
    14    7    8 1   
    15    7    9 1   
    16    7   51 1   
    17    8   52 1   
    18    9   10 2   
    19    9   11 1   
    20   11   12 1   
    21   11   53 1   
    22   11   84 1   
    23   12   13 1   
    24   12   16 1   
    25   12   54 1   
    26   13   14 1   
    27   13   55 1   
    28   13   56 1   
    29   14   15 2   
    30   14   57 1   
    31   15   58 1   
    32   15   59 1   
    33   16   17 2   
    34   16   18 1   
    35   18   19 1   
    36   18   60 1   
    37   18   85 1   
    38   19   20 1   
    39   19   27 1   
    40   19   61 1   
    41   20   21 1   
    42   20   62 1   
    43   20   63 1   
    44   21   22 1   
    45   21   64 1   
    46   21   65 1   
    47   22   23 1   
    48   22   66 1   
    49   22   67 1   
    50   23   24 1   
    51   23   68 1   
    52   23   86 1   
    53   24   25 2   
    54   24   26 1   
    55   25   69 1   
    56   26   70 1   
    57   26   71 1   
    58   26   87 1   
    59   27   28 2   
    60   27   29 1   
    61   29   30 1   
    62   29   88 1   
    63   30   31 1   
    64   30   34 1   
    65   30   73 1   
    66   31   32 2   
    67   31   33 1   
    68   33   74 1   
    69   33   75 1   
    70   33   89 1   
    71   34   35 1   
    72   34   76 1   
    73   34   77 1   
    74   35   36 1   
    75   35   43 1   
    76   35   72 1   
    77   36   37 ar  
    78   36   41 ar  
    79   37   38 ar  
    80   37   78 1   
    81   38   39 ar  
    82   38   79 1   
    83   39   40 ar  
    84   39   80 1   
    85   40   41 ar  
    86   40   81 1   
    87   41   42 1   
    88   42   43 2   
    89   42   82 1   
    90   43   83 1   
@<TRIPOS>SUBSTRUCTURE
     1 NQI         1 TEMP              0 ****  ****    0 ROOT
