@<TRIPOS>MOLECULE
NR2
   41    42     1     0     0
SMALL
bcc


@<TRIPOS>ATOM
      1 S1          0.1630    1.0740    0.8920 sy        1 NR2      1.487200
      2 N24        -0.5670   -0.5310    0.1520 n4        1 NR2     -0.792500
      3 O23         1.4940    0.7250    0.9250 o         1 NR2     -0.552300
      4 O22        -0.6200    1.1900    2.0190 o         1 NR2     -0.552300
      5 C2         -0.2260    2.0970   -0.2880 ca        1 NR2     -0.560500
      6 C7          0.6420    2.3170   -1.3820 ca        1 NR2      0.045000
      7 C6          0.3990    3.3030   -2.3180 ca        1 NR2     -0.183000
      8 C5         -0.7430    4.1440   -2.1960 ca        1 NR2      0.148800
      9 N8         -0.8680    5.2000   -3.1070 nh        1 NR2     -0.347200
     10 C9         -1.9740    6.0270   -3.2870 c2        1 NR2      0.738100
     11 O13        -3.1410    5.6090   -2.8640 os        1 NR2     -0.570300
     12 N10        -1.8790    7.2150   -3.9340 nh        1 NR2     -0.477200
     13 S11        -4.7240    6.3370   -2.2240 sy        1 NR2      1.745800
     14 O15        -4.4990    5.8280   -0.9790 o         1 NR2     -0.610300
     15 O14        -4.3560    7.6030   -2.5920 o         1 NR2     -0.610300
     16 C12        -5.8580    5.6670   -3.0780 ca        1 NR2     -0.587500
     17 C20        -6.3490    6.2750   -4.2630 ca        1 NR2      0.033000
     18 C19        -7.3930    5.7240   -4.9810 ca        1 NR2     -0.164000
     19 C18        -8.0050    4.5310   -4.5510 ca        1 NR2      0.098700
     20 C21        -9.1380    3.9590   -5.3030 c3        1 NR2     -0.102800
     21 C17        -7.5280    3.9080   -3.3830 ca        1 NR2     -0.164000
     22 C16        -6.4840    4.4620   -2.6680 ca        1 NR2      0.033000
     23 C4         -1.6400    3.9110   -1.1270 ca        1 NR2     -0.183000
     24 C3         -1.3750    2.9130   -0.2040 ca        1 NR2      0.045000
     25 H241       -1.0000   -0.3960   -0.7560 hn        1 NR2      0.460800
     26 H242        0.1660   -1.2340    0.0450 hn        1 NR2      0.460800
     27 H7          1.5610    1.7040   -1.4780 ha        1 NR2      0.183000
     28 H6          1.1160    3.4370   -3.1480 ha        1 NR2      0.189000
     29 HN8        -0.0580    5.3810   -3.6750 hn        1 NR2      0.330700
     30 H10        -2.6840    7.8150   -3.9750 hn        1 NR2      0.342700
     31 H20        -5.8940    7.2230   -4.6050 ha        1 NR2      0.160500
     32 H19        -7.7600    6.2240   -5.8940 ha        1 NR2      0.177500
     33 H211      -10.0940    4.4390   -4.9570 hc        1 NR2      0.087367
     34 H212       -9.0350    4.1510   -6.4010 hc        1 NR2      0.087367
     35 H213       -9.2260    2.8560   -5.1370 hc        1 NR2      0.087367
     36 H17        -8.0030    2.9750   -3.0340 ha        1 NR2      0.177500
     37 H16        -6.1310    3.9690   -1.7430 ha        1 NR2      0.160500
     38 H4         -2.5470    4.5300   -0.9940 ha        1 NR2      0.189000
     39 H3         -2.0740    2.7790    0.6470 ha        1 NR2      0.183000
     40 H243       -1.2720   -0.9200    0.7790 hn        1 NR2      0.460800
     41 H102       -1.0120    7.5740   -4.2690 hn        1 NR2      0.342700
@<TRIPOS>BOND
     1    1    2 1   
     2    1    3 2   
     3    1    4 2   
     4    1    5 1   
     5    2   25 1   
     6    2   26 1   
     7    2   40 1   
     8    5    6 ar  
     9    5   24 ar  
    10    6    7 ar  
    11    6   27 1   
    12    7    8 ar  
    13    7   28 1   
    14    8    9 1   
    15    8   23 ar  
    16    9   10 2   
    17    9   29 1   
    18   10   11 1   
    19   10   12 1   
    20   11   13 1   
    21   12   30 1   
    22   12   41 1   
    23   13   14 2   
    24   13   15 2   
    25   13   16 1   
    26   16   17 ar  
    27   16   22 ar  
    28   17   18 ar  
    29   17   31 1   
    30   18   19 ar  
    31   18   32 1   
    32   19   20 1   
    33   19   21 ar  
    34   20   33 1   
    35   20   34 1   
    36   20   35 1   
    37   21   22 ar  
    38   21   36 1   
    39   22   37 1   
    40   23   24 ar  
    41   23   38 1   
    42   24   39 1   
@<TRIPOS>SUBSTRUCTURE
     1 NR2         1 TEMP              0 ****  ****    0 ROOT
