@<TRIPOS>MOLECULE
NR2
   41    42     1     0     0
SMALL
bcc


@<TRIPOS>ATOM
      1 S1         -0.8540    0.9920    0.7960 sy        1 NR2      1.486200
      2 N24         0.0200   -0.4300   -0.1270 nz        1 NR2     -0.793500
      3 O23         0.0310    1.1740    1.8340 o         1 NR2     -0.552800
      4 O22        -2.1070    0.4410    0.9520 o         1 NR2     -0.552800
      5 C2         -0.7770    2.1230   -0.3490 ca        1 NR2     -0.550500
      6 C7          0.3220    3.0050   -0.4360 ca        1 NR2      0.040500
      7 C6          0.3430    4.0590   -1.3300 ca        1 NR2     -0.172000
      8 C5         -0.7700    4.2950   -2.1830 ca        1 NR2      0.144800
      9 N8         -0.6950    5.3700   -3.0800 nu        1 NR2     -0.347200
     10 C9         -1.7680    6.0880   -3.5980 c2        1 NR2      0.730100
     11 O13        -2.9850    5.7640   -3.2200 os        1 NR2     -0.572300
     12 N10        -1.5910    7.0800   -4.5040 nv        1 NR2     -0.474200
     13 S11        -4.5080    6.7280   -2.7600 sy        1 NR2      1.738800
     14 O15        -4.2080    6.7380   -1.4330 o         1 NR2     -0.607800
     15 O14        -4.1720    7.7590   -3.5950 o         1 NR2     -0.607800
     16 C12        -5.6920    5.8040   -3.2240 ca        1 NR2     -0.580500
     17 C20        -6.2150    5.8720   -4.5410 ca        1 NR2      0.030500
     18 C19        -7.3110    5.1230   -4.9250 ca        1 NR2     -0.165000
     19 C18        -7.9460    4.2640   -4.0080 ca        1 NR2      0.093700
     20 C21        -9.1370    3.4900   -4.4060 c3        1 NR2     -0.101800
     21 C17        -7.4350    4.1740   -2.6980 ca        1 NR2     -0.165000
     22 C16        -6.3390    4.9230   -2.3190 ca        1 NR2      0.030500
     23 C4         -1.8720    3.4120   -2.1180 ca        1 NR2     -0.172000
     24 C3         -1.8630    2.3560   -1.2210 ca        1 NR2      0.040500
     25 H241        0.3210   -0.1790   -1.0650 hn        1 NR2      0.463133
     26 H242       -0.6010   -1.2370   -0.2060 hn        1 NR2      0.463133
     27 H7          1.1820    2.8710    0.2520 ha        1 NR2      0.181000
     28 H6          1.2260    4.7230   -1.3540 ha        1 NR2      0.184000
     29 HN8         0.2310    5.7010   -3.2830 hn        1 NR2      0.329700
     30 H10        -0.6900    7.3520   -4.8320 hn        1 NR2      0.344200
     31 H20        -5.7420    6.5580   -5.2690 ha        1 NR2      0.163000
     32 H19        -7.7020    5.2030   -5.9540 ha        1 NR2      0.177000
     33 H211       -9.2480    2.5630   -3.7910 hc        1 NR2      0.086700
     34 H212      -10.0550    4.1190   -4.2550 hc        1 NR2      0.086700
     35 H213       -9.0910    3.2030   -5.4870 hc        1 NR2      0.086700
     36 H17        -7.9280    3.5080   -1.9690 ha        1 NR2      0.177000
     37 H16        -5.9620    4.8570   -1.2810 ha        1 NR2      0.163000
     38 H4         -2.7480    3.5590   -2.7750 ha        1 NR2      0.184000
     39 H3         -2.7440    1.6860   -1.1770 ha        1 NR2      0.181000
     40 H243        0.8460   -0.7330    0.3920 hn        1 NR2      0.463133
     41 H102       -2.3830    7.6310   -4.7880 hn        1 NR2      0.344200
@<TRIPOS>BOND
     1    1    2 1   
     2    1    3 2   
     3    1    4 2   
     4    1    5 1   
     5    2   25 1   
     6    2   26 1   
     7    2   40 1   
     8    5    6 ar  
     9    5   24 ar  
    10    6    7 ar  
    11    6   27 1   
    12    7    8 ar  
    13    7   28 1   
    14    8    9 1   
    15    8   23 ar  
    16    9   10 2   
    17    9   29 1   
    18   10   11 1   
    19   10   12 1   
    20   11   13 1   
    21   12   30 1   
    22   12   41 1   
    23   13   14 2   
    24   13   15 2   
    25   13   16 1   
    26   16   17 ar  
    27   16   22 ar  
    28   17   18 ar  
    29   17   31 1   
    30   18   19 ar  
    31   18   32 1   
    32   19   20 1   
    33   19   21 ar  
    34   20   33 1   
    35   20   34 1   
    36   20   35 1   
    37   21   22 ar  
    38   21   36 1   
    39   22   37 1   
    40   23   24 ar  
    41   23   38 1   
    42   24   39 1   
@<TRIPOS>SUBSTRUCTURE
     1 NR2         1 TEMP              0 ****  ****    0 ROOT
