@<TRIPOS>MOLECULE
NR2
   39    40     1     0     0
SMALL
bcc


@<TRIPOS>ATOM
      1 S1         -5.8880    0.4890    0.1740 sy        1 NR2      1.533200
      2 N24        -6.4370   -0.5530   -0.9120 n3        1 NR2     -1.026700
      3 O23        -6.6090    0.3240    1.3770 o         1 NR2     -0.660300
      4 O22        -5.8570    1.7780   -0.4010 o         1 NR2     -0.660300
      5 C2         -4.3030   -0.0170    0.4340 ca        1 NR2     -0.420500
      6 C7         -3.9910   -0.9000    1.4760 ca        1 NR2      0.012000
      7 C6         -2.6890   -1.3100    1.7130 ca        1 NR2     -0.201000
      8 C5         -1.6290   -0.8340    0.8960 ca        1 NR2      0.143600
      9 N8         -0.3320   -1.2680    1.1940 n         1 NR2     -0.470100
     10 C9          0.8100   -1.0610    0.4020 c         1 NR2      0.814100
     11 O13         0.7790   -0.4450   -0.6850 o         1 NR2     -0.611100
     12 N10         2.0390   -1.5670    0.8640 n         1 NR2     -0.666300
     13 S11         3.4880   -1.5950    0.0350 sy        1 NR2      1.529900
     14 O15         4.3630   -2.2970    0.8930 o         1 NR2     -0.638300
     15 O14         3.3080   -2.1260   -1.2460 o         1 NR2     -0.638300
     16 C12         3.9410    0.0040   -0.0400 ca        1 NR2     -0.424500
     17 C20         3.4420    0.8530   -1.0380 ca        1 NR2      0.004000
     18 C19         3.8630    2.1750   -1.1300 ca        1 NR2     -0.166000
     19 C18         4.7960    2.6840   -0.2190 ca        1 NR2      0.004700
     20 C21         5.2580    4.0870   -0.3220 c3        1 NR2     -0.071800
     21 C17         5.2990    1.8440    0.7850 ca        1 NR2     -0.166000
     22 C16         4.8750    0.5240    0.8690 ca        1 NR2      0.004000
     23 C4         -1.9370    0.0650   -0.1490 ca        1 NR2     -0.201000
     24 C3         -3.2530    0.4560   -0.3600 ca        1 NR2      0.012000
     25 H241       -6.8920   -1.3990   -0.6780 hn        1 NR2      0.447300
     26 H242       -6.3770   -0.4090   -1.8880 hn        1 NR2      0.447300
     27 H7         -4.8020   -1.2640    2.1330 ha        1 NR2      0.155500
     28 H6         -2.4890   -2.0030    2.5450 ha        1 NR2      0.159500
     29 HN8        -0.2490   -1.8420    2.0040 hn        1 NR2      0.324500
     30 H10         2.0400   -1.9660    1.7780 hn        1 NR2      0.331500
     31 H20         2.6970    0.4580   -1.7560 ha        1 NR2      0.164000
     32 H19         3.4580    2.8240   -1.9220 ha        1 NR2      0.144500
     33 H211        6.1660    4.1360   -0.9760 hc        1 NR2      0.055700
     34 H212        4.4680    4.7380   -0.7700 hc        1 NR2      0.055700
     35 H213        5.5290    4.4950    0.6830 hc        1 NR2      0.055700
     36 H17         6.0340    2.2330    1.5050 ha        1 NR2      0.144500
     37 H16         5.2880   -0.1360    1.6540 ha        1 NR2      0.164000
     38 H4         -1.1470    0.4650   -0.8050 ha        1 NR2      0.159500
     39 H3         -3.4730    1.1780   -1.1680 ha        1 NR2      0.155500
@<TRIPOS>BOND
     1    1    2 1   
     2    1    3 2   
     3    1    4 2   
     4    1    5 1   
     5    2   25 1   
     6    2   26 1   
     7    5    6 ar  
     8    5   24 ar  
     9    6    7 ar  
    10    6   27 1   
    11    7    8 ar  
    12    7   28 1   
    13    8    9 1   
    14    8   23 ar  
    15    9   10 1   
    16    9   29 1   
    17   10   11 2   
    18   10   12 1   
    19   12   13 1   
    20   12   30 1   
    21   13   14 2   
    22   13   15 2   
    23   13   16 1   
    24   16   17 ar  
    25   16   22 ar  
    26   17   18 ar  
    27   17   31 1   
    28   18   19 ar  
    29   18   32 1   
    30   19   20 1   
    31   19   21 ar  
    32   20   33 1   
    33   20   34 1   
    34   20   35 1   
    35   21   22 ar  
    36   21   36 1   
    37   22   37 1   
    38   23   24 ar  
    39   23   38 1   
    40   24   39 1   
@<TRIPOS>SUBSTRUCTURE
     1 NR2         1 TEMP              0 ****  ****    0 ROOT
