@<TRIPOS>MOLECULE
NR2
   39    33     1     0     0
SMALL
bcc


@<TRIPOS>ATOM
      1 S1          1.3990   -6.3890    3.0400 ss        1 NR2      2.872000
      2 N24         2.8620   -6.0890    3.7260 n2        1 NR2     -0.953000
      3 O23         0.4420   -6.8220    4.0190 o         1 NR2     -0.940000
      4 O22         1.4540   -7.5370    2.1770 o         1 NR2     -0.940000
      5 C2          0.8250   -4.9570    2.1680 c1        1 NR2     -0.864000
      6 C7         -0.2090   -4.1960    2.6910 c2        1 NR2      0.000500
      7 C6         -0.6510   -3.0710    2.0150 c1        1 NR2     -0.190000
      8 C5         -0.0610   -2.7060    0.8150 c1        1 NR2      0.150000
      9 N8         -0.5690   -1.6010    0.0820 n         1 NR2     -0.325000
     10 C9          0.2030   -0.4170   -0.0420 c2        1 NR2      0.430000
     11 O13         1.2980   -0.3480    0.4800 o         1 NR2     -0.352000
     12 N10        -0.3330    0.7110   -0.7190 n         1 NR2     -0.851000
     13 S11         0.6720    1.8720   -1.3010 s4        1 NR2      2.094800
     14 O15         1.7710    2.1060   -0.4060 o         1 NR2     -0.517400
     15 O14         1.3610    1.4220   -2.4780 o         1 NR2     -0.517400
     16 C12        -0.2330    3.3660   -1.6150 c1        1 NR2     -0.864000
     17 C20         0.2570    4.5800   -1.1580 c2        1 NR2      0.000500
     18 C19        -0.3960    5.7580   -1.4840 c1        1 NR2     -0.190000
     19 C18        -1.5390    5.7220   -2.2680 c1        1 NR2      0.008000
     20 C21        -2.2440    7.0090   -2.6340 c3        1 NR2     -0.197000
     21 C17        -2.0280    4.5100   -2.7250 c1        1 NR2     -0.162000
     22 C16        -1.3750    3.3310   -2.3980 c1        1 NR2      0.002000
     23 C4          0.9730   -3.4670    0.2930 c1        1 NR2     -0.182000
     24 C3          1.4150   -4.5920    0.9690 c1        1 NR2      0.002000
     25 H241        2.9290   -5.4910    4.4150 hn        1 NR2      0.242000
     26 H242        3.6030   -6.5390    3.4380 hn        1 NR2      0.242000
     27 H7         -0.6250   -4.4530    3.5360 ha        1 NR2      0.157000
     28 H6         -1.3800   -2.5340    2.3840 ha        1 NR2      0.140500
     29 HN8        -1.3920   -1.6520   -0.3070 hn        1 NR2      0.236000
     30 H10        -1.2310    0.7730   -0.8600 hn        1 NR2      0.240000
     31 H20         1.0620    4.6040   -0.6060 ha        1 NR2      0.157000
     32 H19        -0.0510    6.6120   -1.1630 ha        1 NR2      0.140500
     33 H211       -2.8310    6.8520   -3.4030 hc        1 NR2      0.095667
     34 H212       -2.7790    7.3170   -1.8730 hc        1 NR2      0.095667
     35 H213       -1.5800    7.6920   -2.8640 hc        1 NR2      0.095667
     36 H17        -2.8340    4.4850   -3.2770 ha        1 NR2      0.146000
     37 H16        -1.7210    2.4770   -2.7200 ha        1 NR2      0.156500
     38 H4          1.3890   -3.2100   -0.5520 ha        1 NR2      0.184000
     39 H3          2.1440   -5.1290    0.6010 ha        1 NR2      0.156500
@<TRIPOS>BOND
     1    1    3 1   
     2    1    4 1   
     3    2   25 1   
     4    2   26 1   
     5    5    6 1   
     6    5   24 1   
     7    6    7 1   
     8    6   27 1   
     9    7   28 1   
    10    8    9 1   
    11    8   23 1   
    12    9   10 1   
    13    9   29 1   
    14   10   11 1   
    15   10   12 1   
    16   12   13 1   
    17   12   30 1   
    18   13   14 1   
    19   13   15 1   
    20   16   17 1   
    21   16   22 1   
    22   17   18 1   
    23   17   31 1   
    24   18   32 1   
    25   19   20 1   
    26   19   21 1   
    27   20   33 1   
    28   20   34 1   
    29   20   35 1   
    30   21   36 1   
    31   22   37 1   
    32   23   38 1   
    33   24   39 1   
@<TRIPOS>SUBSTRUCTURE
     1 NR2         1 TEMP              0 ****  ****    0 ROOT
