@<TRIPOS>MOLECULE
NR2
   42    42     1     0     0
SMALL
bcc


@<TRIPOS>ATOM
      1 S1        968.0840 -138.6010  289.7760 sy        1 NR2      1.460200
      2 N24       968.2550 -138.3160  291.6300 n4        1 NR2     -0.802500
      3 O23       969.3620 -138.9910  289.4560 o         1 NR2     -0.529300
      4 O22       967.4930 -137.4230  289.3900 o         1 NR2     -0.529300
      5 C2        967.0260 -139.8650  289.7870 ca        1 NR2     -0.460500
      6 C7        967.4900 -141.1920  289.7280 ca        1 NR2      0.025500
      7 C6        966.6130 -142.2650  289.5890 ca        1 NR2     -0.119500
      8 C5        965.2310 -142.0170  289.5050 ca        1 NR2      0.067600
      9 N8        964.2920 -143.1310  289.3540 n4        1 NR2     -0.573200
     10 C9        963.4400 -142.9850  288.0440 c         1 NR2      0.663100
     11 O13       962.5170 -142.1810  288.1760 o         1 NR2     -0.463100
     12 N10       963.8070 -143.7120  286.9670 n         1 NR2     -0.593000
     13 S11     -1427.7560  220.0630 -431.1870 s4        1 NR2      1.662300
     14 O15     -1428.2990  220.7740 -430.1740 o         1 NR2     -0.396400
     15 O14     -1426.7660  220.5480 -431.9690 o         1 NR2     -0.396400
     16 C12     -1428.2820  218.6510 -431.4580 ca        1 NR2     -0.668500
     17 C20     -1427.7550  217.8410 -432.5110 ca        1 NR2      0.050000
     18 C19     -1428.2300  216.5720 -432.7550 ca        1 NR2     -0.167000
     19 C18     -1429.2620  216.0260 -431.9640 ca        1 NR2      0.131700
     20 C21     -1429.7610  214.6630 -432.2180 c3        1 NR2     -0.110800
     21 C17     -1429.8000  216.8040 -430.9180 ca        1 NR2     -0.167000
     22 C16     -1429.3260  218.0730 -430.6720 ca        1 NR2      0.050000
     23 C4        964.7400 -140.7000  289.5740 ca        1 NR2     -0.119500
     24 C3        965.6390 -139.6440  289.7090 ca        1 NR2      0.025500
     25 H241      969.2340 -138.4170  291.9180 hn        1 NR2      0.472800
     26 H242      967.9730 -137.3600  291.8720 hn        1 NR2      0.472800
     27 H7        968.5810 -141.3990  289.7650 ha        1 NR2      0.202000
     28 H6        967.0280 -143.2890  289.5440 ha        1 NR2      0.201500
     29 HN8       963.6130 -143.0950  290.1330 hn        1 NR2      0.479300
     30 H10       963.2210 -143.6420  286.1530 hn        1 NR2      0.382000
     31 H20     -1426.9440  218.2550 -433.1420 ha        1 NR2      0.178000
     32 H19     -1427.8020  215.9720 -433.5790 ha        1 NR2      0.187000
     33 H211    -1430.8350  214.5580 -431.9210 hc        1 NR2      0.093700
     34 H212    -1429.6560  214.3830 -433.2980 hc        1 NR2      0.093700
     35 H213    -1429.1620  213.9300 -431.6120 hc        1 NR2      0.093700
     36 H17     -1430.6100  216.3860 -430.2930 ha        1 NR2      0.187000
     37 H16     -1429.7600  218.6710 -429.8460 ha        1 NR2      0.178000
     38 H4        963.6540 -140.4840  289.4990 ha        1 NR2      0.201500
     39 H3        965.2400 -138.6080  289.7260 ha        1 NR2      0.202000
     40 H243      967.7040 -138.9470  292.2060 hn        1 NR2      0.472800
     41 H82       964.7940 -144.0240  289.3950 hn        1 NR2      0.479300
     42 H102      964.5420 -144.3810  286.9660 hn        1 NR2      0.382000
@<TRIPOS>BOND
     1    1    2 1   
     2    1    3 2   
     3    1    4 2   
     4    1    5 1   
     5    2   25 1   
     6    2   26 1   
     7    2   40 1   
     8    5    6 ar  
     9    5   24 ar  
    10    6    7 ar  
    11    6   27 1   
    12    7    8 ar  
    13    7   28 1   
    14    8    9 1   
    15    8   23 ar  
    16    9   10 1   
    17    9   29 1   
    18    9   41 1   
    19   10   11 2   
    20   10   12 1   
    21   12   30 1   
    22   12   42 1   
    23   13   14 1   
    24   13   15 1   
    25   13   16 1   
    26   16   17 ar  
    27   16   22 ar  
    28   17   18 ar  
    29   17   31 1   
    30   18   19 ar  
    31   18   32 1   
    32   19   20 1   
    33   19   21 ar  
    34   20   33 1   
    35   20   34 1   
    36   20   35 1   
    37   21   22 ar  
    38   21   36 1   
    39   22   37 1   
    40   23   24 ar  
    41   23   38 1   
    42   24   39 1   
@<TRIPOS>SUBSTRUCTURE
     1 NR2         1 TEMP              0 ****  ****    0 ROOT
