@<TRIPOS>MOLECULE
NR3
   50    50     1     0     0
SMALL
bcc


@<TRIPOS>ATOM
      1 OAA        -6.7050   -1.2810    1.3390 oh        1 NR3     -0.620800
      2 OAB         4.2300    0.2810    2.7620 oh        1 NR3     -0.609800
      3 OAC        -4.0660   -1.9190    1.1710 oh        1 NR3     -0.613800
      4 OAD         4.4440    1.4720   -0.8630 oh        1 NR3     -0.606800
      5 OAE        -0.3050   -1.7030   -0.4070 oh        1 NR3     -0.635800
      6 OAF        -4.0760    1.4380   -0.0920 oh        1 NR3     -0.618800
      7 OAG         5.3820   -1.9440   -0.0890 oh        1 NR3     -0.595800
      8 OAH        -2.9670    0.1370   -2.0440 oh        1 NR3     -0.617800
      9 OAI        -0.2170    3.9790   -1.0740 o         1 NR3     -0.745533
     10 OAJ        -1.1870    2.7760    0.8820 o         1 NR3     -0.745533
     11 OAK        -2.5320    3.6880   -1.0100 o         1 NR3     -0.745533
     12 CAL        -5.7740   -0.2570    1.0740 c3        1 NR3      0.095400
     13 CAM         3.1720    0.1520    1.8360 c3        1 NR3      0.136400
     14 CAN         3.4030   -0.2860   -1.8060 c3        1 NR3      0.012900
     15 CAO         1.2400    0.1020   -0.2070 c3        1 NR3     -0.055100
     16 OAP        -1.1100    1.6680   -1.3300 os        1 NR3     -0.647500
     17 CAQ        -4.5540   -0.8450    0.4020 c3        1 NR3      0.145100
     18 CAR         4.5780    0.1800   -1.1930 c3        1 NR3      0.149100
     19 CAS        -0.0210   -0.4020   -0.8670 c3        1 NR3      0.152100
     20 CAT        -3.4850    0.2150    0.2820 c3        1 NR3      0.130100
     21 CAU         4.8050   -0.7750    0.2280 c3        1 NR3      0.146100
     22 CAV        -2.4790   -0.2000   -0.7680 c3        1 NR3      0.105100
     23 CAW         3.5320   -0.9970    0.7670 c3        1 NR3      0.030600
     24 CAX        -1.1710    0.5170   -0.5230 c3        1 NR3      0.184100
     25 SAY         2.4820   -0.9170   -0.5490 s4        1 NR3     -0.196900
     26 SAZ        -1.2550    2.9850   -0.6120 s6        1 NR3      1.729300
     27 HOAA       -7.4130   -0.9390    1.7530 ho        1 NR3      0.408000
     28 HOAB        3.8960    0.3960    3.5790 ho        1 NR3      0.427000
     29 HOAC       -4.6170   -2.6130    1.0940 ho        1 NR3      0.423000
     30 HOAD        5.0980    1.9440   -1.2400 ho        1 NR3      0.473000
     31 HOAE       -0.1120   -2.2920   -1.0440 ho        1 NR3      0.464000
     32 HOAF       -4.2980    1.8940    0.6370 ho        1 NR3      0.446000
     33 HOAG        6.2640   -1.8740    0.0010 ho        1 NR3      0.429000
     34 HOAH       -3.1930   -0.6040   -2.4800 ho        1 NR3      0.426000
     35 HAL        -6.1830    0.4100    0.4840 h1        1 NR3      0.047200
     36 HALA       -5.5100    0.1700    1.9150 h1        1 NR3      0.047200
     37 HAM         3.0420    1.0030    1.3700 h1        1 NR3      0.072200
     38 HAMA        2.3500   -0.0890    2.3110 h1        1 NR3      0.072200
     39 HAN         3.6140   -0.9850   -2.4590 h1        1 NR3      0.136200
     40 HANA        2.9290    0.4540   -2.2390 h1        1 NR3      0.136200
     41 HAO         1.4500    0.9950   -0.5440 h1        1 NR3      0.169200
     42 HAOA        1.1080    0.1410    0.7600 h1        1 NR3      0.169200
     43 HAQ        -4.7960   -1.1660   -0.4890 h1        1 NR3      0.064700
     44 HAR         5.3390    0.0650   -1.7980 h1        1 NR3      0.097700
     45 HAS         0.1030   -0.4200   -1.8370 h1        1 NR3      0.074700
     46 HAT        -3.0330    0.3210    1.1420 h1        1 NR3      0.057700
     47 HAU         5.3610   -0.2900    0.8720 h1        1 NR3      0.112700
     48 HAV        -2.3350   -1.1660   -0.7180 h1        1 NR3      0.093700
     49 HAW         3.4880   -1.8790    1.1860 h1        1 NR3      0.134700
     50 HAX        -1.1120    0.7740    0.4180 h1        1 NR3      0.061700
@<TRIPOS>BOND
     1    1   12 1   
     2    1   27 1   
     3    2   13 1   
     4    2   28 1   
     5    3   17 1   
     6    3   29 1   
     7    4   18 1   
     8    4   30 1   
     9    5   19 1   
    10    5   31 1   
    11    6   20 1   
    12    6   32 1   
    13    7   21 1   
    14    7   33 1   
    15    8   22 1   
    16    8   34 1   
    17    9   26 1   
    18   10   26 1   
    19   11   26 1   
    20   12   17 1   
    21   12   35 1   
    22   12   36 1   
    23   13   23 1   
    24   13   37 1   
    25   13   38 1   
    26   14   18 1   
    27   14   25 1   
    28   14   39 1   
    29   14   40 1   
    30   15   19 1   
    31   15   25 1   
    32   15   41 1   
    33   15   42 1   
    34   16   24 1   
    35   16   26 1   
    36   17   20 1   
    37   17   43 1   
    38   18   21 1   
    39   18   44 1   
    40   19   24 1   
    41   19   45 1   
    42   20   22 1   
    43   20   46 1   
    44   21   23 1   
    45   21   47 1   
    46   22   24 1   
    47   22   48 1   
    48   23   25 1   
    49   23   49 1   
    50   24   50 1   
@<TRIPOS>SUBSTRUCTURE
     1 NR3         1 TEMP              0 ****  ****    0 ROOT
