@<TRIPOS>MOLECULE
NR3
   50    50     1     0     0
SMALL
bcc


@<TRIPOS>ATOM
      1 OAA         6.6190   -2.6470    0.4740 oh        1 NR3     -0.614800
      2 OAB        -5.7870    1.1480    1.4840 oh        1 NR3     -0.574800
      3 OAC         4.4750   -1.5120    1.8490 oh        1 NR3     -0.608800
      4 OAD        -5.3440   -2.3630   -0.3550 oh        1 NR3     -0.602800
      5 OAE         0.1870   -2.0790   -0.3530 oh        1 NR3     -0.641800
      6 OAF         3.1800   -1.5220   -1.5240 oh        1 NR3     -0.613800
      7 OAG        -3.5180    0.3570   -1.7620 oh        1 NR3     -0.603800
      8 OAH         3.4130    1.0570   -0.4060 oh        1 NR3     -0.617800
      9 OAI         0.2890    3.7240   -0.9450 o         1 NR3     -0.741867
     10 OAJ        -1.5390    2.2350   -0.6430 o         1 NR3     -0.741867
     11 OAK        -0.0180    1.8200   -2.3620 o         1 NR3     -0.741867
     12 CAL         5.3330   -2.6250   -0.1270 c3        1 NR3      0.095400
     13 CAM        -4.8450    0.1310    1.7250 c3        1 NR3      0.145400
     14 CAN        -2.9940   -2.2640   -0.1310 c3        1 NR3      0.037900
     15 CAO        -1.1720   -0.2460    0.3560 c3        1 NR3     -0.031100
     16 OAP         0.7160    1.5000   -0.0800 os        1 NR3     -0.626500
     17 CAQ         4.6180   -1.3960    0.4410 c3        1 NR3      0.117100
     18 CAR        -4.1970   -1.7370   -0.9060 c3        1 NR3      0.142100
     19 CAS         0.2220   -0.8430    0.3400 c3        1 NR3      0.142100
     20 CAT         3.1930   -1.2890   -0.1280 c3        1 NR3      0.136100
     21 CAU        -4.2830   -0.1980   -0.7150 c3        1 NR3      0.122100
     22 CAV         2.5880    0.0830    0.2120 c3        1 NR3      0.107100
     23 CAW        -3.7410    0.1430    0.6740 c3        1 NR3     -0.011400
     24 CAX         1.1520    0.2090   -0.3390 c3        1 NR3      0.170100
     25 SAY        -2.5060   -1.0850    1.0850 s4        1 NR3     -0.203900
     26 HOAA        7.0870   -3.4010    0.0990 ho        1 NR3      0.407000
     27 HOAB       -5.3430    1.9990    1.5970 ho        1 NR3      0.416000
     28 HOAC        5.3680   -1.6260    2.2010 ho        1 NR3      0.423000
     29 HOAD       -6.0810   -2.1830   -0.9530 ho        1 NR3      0.428000
     30 HOAE        0.7710   -2.0210   -1.1250 ho        1 NR3      0.446000
     31 HOAF        3.5830   -0.7490   -1.9460 ho        1 NR3      0.429000
     32 HOAG       -3.2460    1.2620   -1.5200 ho        1 NR3      0.470000
     33 HOAH        2.9500    1.9050   -0.3290 ho        1 NR3      0.442000
     34 HAL         5.4170   -2.5380   -1.2420 h1        1 NR3      0.040700
     35 HALA        4.7710   -3.5590    0.1370 h1        1 NR3      0.040700
     36 HAM        -4.3950    0.2400    2.7490 h1        1 NR3      0.067200
     37 HAMA       -5.4400   -0.8240    1.6600 h1        1 NR3      0.067200
     38 HAN        -3.2640   -3.2160    0.3980 h1        1 NR3      0.143200
     39 HANA       -2.1450   -2.4880   -0.8310 h1        1 NR3      0.143200
     40 HAO        -1.0900    0.7390    0.9170 h1        1 NR3      0.167700
     41 HAOA       -1.4290    0.0290   -0.7130 h1        1 NR3      0.167700
     42 HAQ         5.2030   -0.4660    0.1930 h1        1 NR3      0.074700
     43 HAR        -4.0970   -1.9730   -2.0020 h1        1 NR3      0.101700
     44 HAS         0.5720   -1.0690    1.3850 h1        1 NR3      0.068700
     45 HAT         2.5520   -2.1060    0.3100 h1        1 NR3      0.084700
     46 HAU        -5.3510    0.1530   -0.7940 h1        1 NR3      0.094700
     47 HAV         2.5990    0.2320    1.3260 h1        1 NR3      0.068700
     48 HAW        -3.2600    1.1680    0.6350 h1        1 NR3      0.174700
     49 HAX         1.1620    0.0140   -1.4540 h1        1 NR3      0.077700
     50 SAZ        -0.2540    2.4830   -1.1710 s6        1 NR3      1.716300
@<TRIPOS>BOND
     1    1   12 1   
     2    1   26 1   
     3    2   13 1   
     4    2   27 1   
     5    3   17 1   
     6    3   28 1   
     7    4   18 1   
     8    4   29 1   
     9    5   19 1   
    10    5   30 1   
    11    6   20 1   
    12    6   31 1   
    13    7   21 1   
    14    7   32 1   
    15    8   22 1   
    16    8   33 1   
    17    9   50 1   
    18   10   50 1   
    19   11   50 1   
    20   12   17 1   
    21   12   34 1   
    22   12   35 1   
    23   13   23 1   
    24   13   36 1   
    25   13   37 1   
    26   14   18 1   
    27   14   25 1   
    28   14   38 1   
    29   14   39 1   
    30   15   19 1   
    31   15   25 1   
    32   15   40 1   
    33   15   41 1   
    34   16   24 1   
    35   16   50 1   
    36   17   20 1   
    37   17   42 1   
    38   18   21 1   
    39   18   43 1   
    40   19   24 1   
    41   19   44 1   
    42   20   22 1   
    43   20   45 1   
    44   21   23 1   
    45   21   46 1   
    46   22   24 1   
    47   22   47 1   
    48   23   25 1   
    49   23   48 1   
    50   24   49 1   
@<TRIPOS>SUBSTRUCTURE
     1 NR3         1 TEMP              0 ****  ****    0 ROOT
