@<TRIPOS>MOLECULE
NR4
   50    50     1     0     0
SMALL
bcc


@<TRIPOS>ATOM
      1 OAA         6.3450   -3.1380    1.0760 oh        1 NR4     -0.602800
      2 OAB        -5.5800    1.4010    1.6570 oh        1 NR4     -0.573800
      3 OAC         5.1290   -0.5930    1.1940 oh        1 NR4     -0.606800
      4 OAD        -5.4800   -2.2140    0.0070 oh        1 NR4     -0.601800
      5 OAE         0.1050   -2.2040   -0.5520 oh        1 NR4     -0.625800
      6 OAF         3.7780   -1.2960   -1.5970 oh        1 NR4     -0.595800
      7 OAG        -3.6310    0.3080   -1.7100 oh        1 NR4     -0.603800
      8 OAH         3.4040    0.9940   -0.2970 oh        1 NR4     -0.628800
      9 OAI        -1.4870    2.1470   -0.8750 o         1 NR4     -0.741200
     10 OAJ        -0.1860    1.3000   -2.6040 o         1 NR4     -0.741200
     11 OAK         0.4020    3.4020   -1.6060 o         1 NR4     -0.741200
     12 CAL         5.3880   -2.7290    0.1210 c3        1 NR4      0.112400
     13 CAM        -4.6730    0.3480    1.8800 c3        1 NR4      0.145400
     14 CAN        -3.1170   -2.2420    0.0170 c3        1 NR4      0.037900
     15 CAO        -1.1530   -0.3110    0.2370 c3        1 NR4     -0.051100
     16 OAP         0.7500    1.3310   -0.3840 os        1 NR4     -0.629500
     17 CAQ         4.4070   -1.7200    0.7260 c3        1 NR4      0.072100
     18 CAR        -4.3560   -1.6890   -0.6800 c3        1 NR4      0.143100
     19 CAS         0.2040   -0.9830    0.1550 c3        1 NR4      0.140100
     20 CAT         3.2930   -1.3710   -0.2720 c3        1 NR4      0.106100
     21 CAU        -4.3400   -0.1410   -0.5760 c3        1 NR4      0.121100
     22 CAV         2.5770   -0.0720    0.1390 c3        1 NR4      0.112100
     23 CAW        -3.6650    0.2430    0.7430 c3        1 NR4     -0.009400
     24 CAX         1.1870    0.0220   -0.5250 c3        1 NR4      0.172100
     25 SAY        -2.4640   -1.0300    1.1180 s4        1 NR4     -0.204900
     26 HOAA        6.7070   -2.3340    1.4730 ho        1 NR4      0.413000
     27 HOAB       -5.0880    2.2320    1.6930 ho        1 NR4      0.416000
     28 HOAC        5.2290    0.0250    0.4580 ho        1 NR4      0.422000
     29 HOAD       -6.2570   -2.0320   -0.5360 ho        1 NR4      0.429000
     30 HOAE        0.2150   -2.0210   -1.4970 ho        1 NR4      0.433000
     31 HOAF        4.2270   -0.4450   -1.7030 ho        1 NR4      0.424000
     32 HOAG       -3.3140    1.2160   -1.5530 ho        1 NR4      0.469000
     33 HOAH        2.8630    1.8000   -0.3030 ho        1 NR4      0.454000
     34 HAL         5.9000   -2.2760   -0.7700 h1        1 NR4      0.053700
     35 HALA        4.8530   -3.6640   -0.1870 h1        1 NR4      0.053700
     36 HAM        -4.1330    0.4880    2.8550 h1        1 NR4      0.068200
     37 HAMA       -5.3200   -0.5740    1.9200 h1        1 NR4      0.068200
     38 HAN        -3.3890   -3.1480    0.6200 h1        1 NR4      0.141200
     39 HANA       -2.3490   -2.5510   -0.7400 h1        1 NR4      0.141200
     40 HAO        -0.9850    0.7000    0.7310 h1        1 NR4      0.170200
     41 HAOA       -1.4760   -0.0820   -0.8260 h1        1 NR4      0.170200
     42 HAQ         3.9480   -2.1550    1.6590 h1        1 NR4      0.075700
     43 HAR        -4.3700   -1.9910   -1.7640 h1        1 NR4      0.102700
     44 HAS         0.5710   -1.2730    1.1790 h1        1 NR4      0.075700
     45 HAT         2.5480   -2.2200   -0.2960 h1        1 NR4      0.085700
     46 HAU        -5.3900    0.2710   -0.5900 h1        1 NR4      0.096700
     47 HAV         2.4820   -0.0200    1.2580 h1        1 NR4      0.053700
     48 HAW        -3.1360    1.2360    0.6050 h1        1 NR4      0.174700
     49 HAX         1.2800   -0.2450   -1.6200 h1        1 NR4      0.082700
     50 SAZ        -0.2490    2.1960   -1.5490 s6        1 NR4      1.717300
@<TRIPOS>BOND
     1    1   12 1   
     2    1   26 1   
     3    2   13 1   
     4    2   27 1   
     5    3   17 1   
     6    3   28 1   
     7    4   18 1   
     8    4   29 1   
     9    5   19 1   
    10    5   30 1   
    11    6   20 1   
    12    6   31 1   
    13    7   21 1   
    14    7   32 1   
    15    8   22 1   
    16    8   33 1   
    17    9   50 1   
    18   10   50 1   
    19   11   50 1   
    20   12   17 1   
    21   12   34 1   
    22   12   35 1   
    23   13   23 1   
    24   13   36 1   
    25   13   37 1   
    26   14   18 1   
    27   14   25 1   
    28   14   38 1   
    29   14   39 1   
    30   15   19 1   
    31   15   25 1   
    32   15   40 1   
    33   15   41 1   
    34   16   24 1   
    35   16   50 1   
    36   17   20 1   
    37   17   42 1   
    38   18   21 1   
    39   18   43 1   
    40   19   24 1   
    41   19   44 1   
    42   20   22 1   
    43   20   45 1   
    44   21   23 1   
    45   21   46 1   
    46   22   24 1   
    47   22   47 1   
    48   23   25 1   
    49   23   48 1   
    50   24   49 1   
@<TRIPOS>SUBSTRUCTURE
     1 NR4         1 TEMP              0 ****  ****    0 ROOT
