@<TRIPOS>MOLECULE
NR4
   50    50     1     0     0
SMALL
bcc


@<TRIPOS>ATOM
      1 OAA        -6.2120   -2.4100   -2.0780 oh        1 NR4     -0.606800
      2 OAB         3.6870    1.8150    3.6530 oh        1 NR4     -0.608800
      3 OAC        -4.4380   -3.5080   -0.2200 oh        1 NR4     -0.609800
      4 OAD         3.1780    4.9860   -0.7560 oh        1 NR4     -0.596800
      5 OAE        -0.8670    0.8900   -0.7510 oh        1 NR4     -0.662800
      6 OAF        -2.1320   -3.5730   -1.4340 oh        1 NR4     -0.592800
      7 OAG         4.8660    3.4200    1.1720 oh        1 NR4     -0.585800
      8 OAH        -1.9960   -2.7250    1.1000 oh        1 NR4     -0.619800
      9 OAI         1.0440   -3.0150   -1.7370 o         1 NR4     -0.744867
     10 OAJ         0.2830   -4.6820   -0.0470 o         1 NR4     -0.744867
     11 OAK         2.3670   -3.6830    0.2680 o         1 NR4     -0.744867
     12 CAL        -4.8170   -2.3670   -2.2800 c3        1 NR4      0.099400
     13 CAM         2.5000    2.0440    2.9270 c3        1 NR4      0.180400
     14 CAN         1.8880    2.8930   -0.7800 c3        1 NR4      0.037900
     15 CAO         1.2530    0.2830    0.1590 c3        1 NR4     -0.024100
     16 OAP         0.3400   -2.2560    0.5120 os        1 NR4     -0.632500
     17 CAQ        -4.1150   -2.3420   -0.9410 c3        1 NR4      0.077100
     18 CAR         3.3040    3.6820   -0.4760 c3        1 NR4      0.151100
     19 CAS        -0.2390    0.0300    0.1690 c3        1 NR4      0.138100
     20 CAT        -2.6190   -2.2820   -1.1570 c3        1 NR4      0.129100
     21 CAU         3.5620    3.4930    0.9520 c3        1 NR4      0.124100
     22 CAV        -1.9510   -1.7480    0.0890 c3        1 NR4      0.111100
     23 CAW         2.8180    2.0420    1.3920 c3        1 NR4     -0.028400
     24 CAX        -0.5090   -1.4050   -0.2180 c3        1 NR4      0.182100
     25 SAY         1.5710    1.9720    0.6190 s4        1 NR4     -0.190900
     26 SAZ         0.9920   -3.3680   -0.2700 s6        1 NR4      1.727300
     27 HOAA       -6.6270   -2.3550   -2.8630 ho        1 NR4      0.415000
     28 HOAB        3.5500    2.0010    4.5120 ho        1 NR4      0.458000
     29 HOAC       -5.3070   -3.5050   -0.0260 ho        1 NR4      0.419000
     30 HOAD        3.5500    5.1560   -1.5470 ho        1 NR4      0.430000
     31 HOAE       -1.6260    1.1940   -0.4020 ho        1 NR4      0.479000
     32 HOAF       -2.3840   -3.8160   -2.2510 ho        1 NR4      0.443000
     33 HOAG        5.1760    4.2270    1.3900 ho        1 NR4      0.445000
     34 HOAH       -2.3630   -2.3780    1.8310 ho        1 NR4      0.442000
     35 HAL        -4.5350   -3.1590   -2.7820 h1        1 NR4      0.058700
     36 HALA       -4.5850   -1.5600   -2.7850 h1        1 NR4      0.058700
     37 HAM         1.8530    1.3370    3.1280 h1        1 NR4      0.061700
     38 HAMA        2.1240    2.9130    3.1810 h1        1 NR4      0.061700
     39 HAN         1.1670    3.5370   -0.9320 h1        1 NR4      0.135700
     40 HANA        1.9870    2.3060   -1.5560 h1        1 NR4      0.135700
     41 HAO         1.6890   -0.3170    0.7960 h1        1 NR4      0.159700
     42 HAOA        1.6050    0.1180   -0.7390 h1        1 NR4      0.159700
     43 HAQ        -4.4030   -1.5570   -0.4360 h1        1 NR4      0.050700
     44 HAR         4.0270    3.2910   -1.0050 h1        1 NR4      0.100700
     45 HAS        -0.5920    0.1980    1.0650 h1        1 NR4      0.056700
     46 HAT        -2.4230   -1.6910   -1.9110 h1        1 NR4      0.071700
     47 HAU         3.1780    4.2340    1.4620 h1        1 NR4      0.065700
     48 HAV        -2.4200   -0.9450    0.3910 h1        1 NR4      0.061700
     49 HAW         3.3950    1.2870    1.1680 h1        1 NR4      0.185700
     50 HAX        -0.3440   -1.5220   -1.1750 h1        1 NR4      0.081700
@<TRIPOS>BOND
     1    1   12 1   
     2    1   27 1   
     3    2   13 1   
     4    2   28 1   
     5    3   17 1   
     6    3   29 1   
     7    4   18 1   
     8    4   30 1   
     9    5   19 1   
    10    5   31 1   
    11    6   20 1   
    12    6   32 1   
    13    7   21 1   
    14    7   33 1   
    15    8   22 1   
    16    8   34 1   
    17    9   26 1   
    18   10   26 1   
    19   11   26 1   
    20   12   17 1   
    21   12   35 1   
    22   12   36 1   
    23   13   23 1   
    24   13   37 1   
    25   13   38 1   
    26   14   18 1   
    27   14   25 1   
    28   14   39 1   
    29   14   40 1   
    30   15   19 1   
    31   15   25 1   
    32   15   41 1   
    33   15   42 1   
    34   16   24 1   
    35   16   26 1   
    36   17   20 1   
    37   17   43 1   
    38   18   21 1   
    39   18   44 1   
    40   19   24 1   
    41   19   45 1   
    42   20   22 1   
    43   20   46 1   
    44   21   23 1   
    45   21   47 1   
    46   22   24 1   
    47   22   48 1   
    48   23   25 1   
    49   23   49 1   
    50   24   50 1   
@<TRIPOS>SUBSTRUCTURE
     1 NR4         1 TEMP              0 ****  ****    0 ROOT
