@<TRIPOS>MOLECULE
NR9
   37    40     1     0     0
SMALL
bcc


@<TRIPOS>ATOM
      1 CAA         4.4160    1.5660   -0.3340 ca        1 NR9     -0.103000
      2 CAB         3.1160    1.0330   -0.0820 ca        1 NR9     -0.078800
      3 CAC         2.9840   -0.3220    0.1560 ca        1 NR9     -0.077000
      4 CAD         5.5270    0.7660   -0.3510 ca        1 NR9     -0.168300
      5 CAE         5.4120   -0.6410   -0.1090 ca        1 NR9      0.407600
      6 CAF         4.1130   -1.1770    0.1480 ca        1 NR9     -0.155300
      7 NAG         6.5400   -1.4400   -0.1280 nb        1 NR9     -0.657000
      8 CAH         6.3840   -2.7320    0.1020 ca        1 NR9      0.418200
      9 CAI         3.9980   -2.5760    0.3920 ca        1 NR9     -0.075000
     10 CAJ         5.1250   -3.3580    0.3700 ca        1 NR9     -0.250300
     11 CAK         2.0010    1.9560   -0.0870 ce        1 NR9      0.002800
     12 CAL         0.6900    1.6710   -0.0240 cd        1 NR9     -0.153600
     13 CAM        -0.3360    2.7890   -0.0510 c         1 NR9      0.697700
     14 NAN        -1.6740    2.3150    0.0130 nc        1 NR9     -0.705100
     15 CAO        -1.7110    0.9900    0.0730 cd        1 NR9      0.706100
     16 SAP        -0.1060    0.1720    0.0780 ss        1 NR9     -0.218800
     17 OAQ        -0.0260    3.9820   -0.1200 o         1 NR9     -0.510100
     18 NAR        -2.8240    0.2050    0.0920 nh        1 NR9     -0.806200
     19 CAS        -4.1510    0.7770    0.1870 c3        1 NR9      0.293100
     20 CAT        -5.2070   -0.2620    0.2360 cc        1 NR9     -0.168400
     21 SAU        -6.3190   -0.5000   -0.9940 ss        1 NR9      0.071200
     22 CAV        -7.1110   -1.7260   -0.1960 cc        1 NR9     -0.170100
     23 CAW        -6.5420   -1.9910    1.0330 cd        1 NR9     -0.157000
     24 CAX        -5.4290   -1.1340    1.2870 cd        1 NR9     -0.144000
     25 HAA         4.5140    2.6480   -0.5200 ha        1 NR9      0.143000
     26 HAC         2.0000   -0.7740    0.3680 ha        1 NR9      0.141000
     27 HAD         6.5230    1.1930   -0.5500 ha        1 NR9      0.156000
     28 HAH         7.3040   -3.3460    0.0810 h4        1 NR9      0.025100
     29 HAI         3.0040   -3.0040    0.5930 ha        1 NR9      0.140000
     30 HAJ         5.0880   -4.4400    0.5510 ha        1 NR9      0.146000
     31 HAK         2.2790    3.0310   -0.1580 ha        1 NR9      0.163000
     32 HNAR       -2.7140   -0.7640    0.2850 hn        1 NR9      0.451800
     33 HAS        -4.2180    1.4210    1.1150 h1        1 NR9      0.073200
     34 HASA       -4.3060    1.4540   -0.7050 h1        1 NR9      0.073200
     35 HAV        -7.9760   -2.2420   -0.6120 h4        1 NR9      0.176000
     36 HAW        -6.8870   -2.7510    1.7370 ha        1 NR9      0.158000
     37 HAX        -4.8430   -1.1680    2.2080 ha        1 NR9      0.155000
@<TRIPOS>BOND
     1    1    2 ar  
     2    1    4 ar  
     3    1   25 1   
     4    2    3 ar  
     5    2   11 1   
     6    3    6 ar  
     7    3   26 1   
     8    4    5 ar  
     9    4   27 1   
    10    5    6 ar  
    11    5    7 ar  
    12    6    9 ar  
    13    7    8 ar  
    14    8   10 ar  
    15    8   28 1   
    16    9   10 ar  
    17    9   29 1   
    18   10   30 1   
    19   11   12 2   
    20   11   31 1   
    21   12   13 1   
    22   12   16 1   
    23   13   14 1   
    24   13   17 2   
    25   14   15 2   
    26   15   16 1   
    27   15   18 1   
    28   18   19 1   
    29   18   32 1   
    30   19   20 1   
    31   19   33 1   
    32   19   34 1   
    33   20   21 1   
    34   20   24 2   
    35   21   22 1   
    36   22   23 2   
    37   22   35 1   
    38   23   24 1   
    39   23   36 1   
    40   24   37 1   
@<TRIPOS>SUBSTRUCTURE
     1 NR9         1 TEMP              0 ****  ****    0 ROOT
