@<TRIPOS>MOLECULE
NR9
   38    41     1     0     0
SMALL
bcc


@<TRIPOS>ATOM
      1 CAA         0.2630   -0.4440   -0.0100 ca        1 NR9     -0.092000
      2 CAB         1.5570    0.1490    0.1050 ca        1 NR9     -0.133800
      3 CAC         2.0870    0.3640    1.3680 ca        1 NR9     -0.038000
      4 CAD        -0.4570   -0.8030    1.0970 ca        1 NR9     -0.154300
      5 CAE         0.0730   -0.5900    2.4110 ca        1 NR9      0.435600
      6 CAF         1.3680    0.0060    2.5300 ca        1 NR9     -0.171300
      7 NAG        -0.6650   -0.9570    3.5200 nb        1 NR9     -0.649000
      8 CAH        -0.1400   -0.7410    4.7120 ca        1 NR9      0.444200
      9 CAI         1.8930    0.2200    3.8410 ca        1 NR9     -0.078000
     10 CAJ         1.1480   -0.1490    4.9310 ca        1 NR9     -0.234300
     11 CAK         2.2410    0.4940   -1.1140 ce        1 NR9      0.117800
     12 CAL         3.4740    1.0290   -1.2550 cd        1 NR9     -0.234600
     13 CAM         4.0220    1.3210   -2.6150 c         1 NR9      0.691700
     14 NAN         5.3620    1.8920   -2.5410 nc        1 NR9     -0.567100
     15 CAO         5.7300    1.9970   -1.2890 cd        1 NR9      0.461100
     16 SAP         4.6140    1.4660   -0.0550 ss        1 NR9     -0.050800
     17 OAQ         3.4580    1.1220   -3.6850 o         1 NR9     -0.422100
     18 NAR         7.0330    2.5430   -0.9010 n4        1 NR9     -0.713000
     19 CAS         8.1850    1.6880   -1.4000 c3        1 NR9      0.232100
     20 CAT         9.4550    2.2110   -0.8940 cc        1 NR9     -0.301400
     21 SAU        10.5880    3.0150   -1.8260 ss        1 NR9      0.171200
     22 CAV        11.6730    3.1620   -0.5920 cc        1 NR9     -0.138100
     23 CAW        11.2100    2.5910    0.5850 cd        1 NR9     -0.152000
     24 CAX         9.9200    2.0290    0.4100 cd        1 NR9     -0.104000
     25 HAA        -0.1550   -0.6120   -1.0160 ha        1 NR9      0.152000
     26 HAC         3.0810    0.8250    1.5060 ha        1 NR9      0.121000
     27 HAD        -1.4560   -1.2620    0.9940 ha        1 NR9      0.174000
     28 HAH        -0.7570   -1.0460    5.5800 h4        1 NR9      0.043100
     29 HAI         2.8860    0.6780    3.9530 ha        1 NR9      0.139000
     30 HAJ         1.5070   -0.0060    5.9600 ha        1 NR9      0.160000
     31 HAK         1.6750    0.2890   -2.0530 ha        1 NR9      0.179000
     32 HNAR        7.0780    2.6020    0.1240 hn        1 NR9      0.465300
     33 HAS         8.1410    1.6890   -2.5290 hx        1 NR9      0.120200
     34 HASA        7.9970    0.6370   -1.0290 hx        1 NR9      0.120200
     35 HAV        12.6470    3.6480   -0.7020 h4        1 NR9      0.202000
     36 HAW        11.7630    2.5630    1.5280 ha        1 NR9      0.183000
     37 HAX         9.3810    1.5040    1.2020 ha        1 NR9      0.159000
     38 HAR2        7.1360    3.4940   -1.2840 hn        1 NR9      0.465300
@<TRIPOS>BOND
     1    1    2 ar  
     2    1    4 ar  
     3    1   25 1   
     4    2    3 ar  
     5    2   11 1   
     6    3    6 ar  
     7    3   26 1   
     8    4    5 ar  
     9    4   27 1   
    10    5    6 ar  
    11    5    7 ar  
    12    6    9 ar  
    13    7    8 ar  
    14    8   10 ar  
    15    8   28 1   
    16    9   10 ar  
    17    9   29 1   
    18   10   30 1   
    19   11   12 2   
    20   11   31 1   
    21   12   13 1   
    22   12   16 1   
    23   13   14 1   
    24   13   17 2   
    25   14   15 2   
    26   15   16 1   
    27   15   18 1   
    28   18   19 1   
    29   18   32 1   
    30   18   38 1   
    31   19   20 1   
    32   19   33 1   
    33   19   34 1   
    34   20   21 1   
    35   20   24 2   
    36   21   22 1   
    37   22   23 2   
    38   22   35 1   
    39   23   24 1   
    40   23   36 1   
    41   24   37 1   
@<TRIPOS>SUBSTRUCTURE
     1 NR9         1 TEMP              0 ****  ****    0 ROOT
