@<TRIPOS>MOLECULE
NR9
   38    41     1     0     0
SMALL
bcc


@<TRIPOS>ATOM
      1 CAA         0.2740   -0.4640   -0.0060 ca        1 NR9     -0.092000
      2 CAB         1.5580    0.1500    0.1080 ca        1 NR9     -0.133800
      3 CAC         2.0800    0.3830    1.3710 ca        1 NR9     -0.038000
      4 CAD        -0.4440   -0.8280    1.1020 ca        1 NR9     -0.153300
      5 CAE         0.0800   -0.5960    2.4160 ca        1 NR9      0.435600
      6 CAF         1.3650    0.0220    2.5340 ca        1 NR9     -0.171300
      7 NAG        -0.6550   -0.9670    3.5250 nb        1 NR9     -0.649000
      8 CAH        -0.1360   -0.7330    4.7170 ca        1 NR9      0.444200
      9 CAI         1.8820    0.2540    3.8440 ca        1 NR9     -0.078000
     10 CAJ         1.1410   -0.1180    4.9350 ca        1 NR9     -0.234300
     11 CAK         2.2390    0.4970   -1.1120 ce        1 NR9      0.117800
     12 CAL         3.4710    1.0330   -1.2540 cd        1 NR9     -0.234600
     13 CAM         4.0180    1.3250   -2.6140 c         1 NR9      0.691700
     14 NAN         5.3590    1.8940   -2.5410 nc        1 NR9     -0.567100
     15 CAO         5.7290    1.9970   -1.2900 cd        1 NR9      0.461100
     16 SAP         4.6130    1.4690   -0.0550 ss        1 NR9     -0.050800
     17 OAQ         3.4520    1.1290   -3.6840 o         1 NR9     -0.422100
     18 NAR         7.0340    2.5400   -0.9030 n4        1 NR9     -0.713000
     19 CAS         8.1830    1.6820   -1.4050 c3        1 NR9      0.232100
     20 CAT         9.4550    2.2020   -0.8990 cc        1 NR9     -0.301400
     21 SAU        10.5890    3.0050   -1.8310 ss        1 NR9      0.170200
     22 CAV        11.6750    3.1470   -0.5980 cc        1 NR9     -0.138100
     23 CAW        11.2130    2.5750    0.5780 cd        1 NR9     -0.152000
     24 CAX         9.9210    2.0170    0.4040 cd        1 NR9     -0.104000
     25 HAA        -0.1400   -0.6460   -1.0120 ha        1 NR9      0.152000
     26 HAC         3.0670    0.8620    1.5070 ha        1 NR9      0.121000
     27 HAD        -1.4350   -1.3020    1.0000 ha        1 NR9      0.174000
     28 HAH        -0.7500   -1.0420    5.5860 h4        1 NR9      0.043100
     29 HAI         2.8680    0.7300    3.9550 ha        1 NR9      0.139000
     30 HAJ         1.4940    0.0390    5.9630 ha        1 NR9      0.160000
     31 HAK         1.6730    0.2910   -2.0500 ha        1 NR9      0.179000
     32 HNAR        7.0800    2.5980    0.1220 hn        1 NR9      0.465300
     33 HAS         7.9930    0.6320   -1.0340 hx        1 NR9      0.120200
     34 HASA        8.1380    1.6850   -2.5330 hx        1 NR9      0.120200
     35 HAV        12.6500    3.6310   -0.7090 h4        1 NR9      0.202000
     36 HAW        11.7670    2.5450    1.5210 ha        1 NR9      0.183000
     37 HAX         9.3820    1.4910    1.1960 ha        1 NR9      0.159000
     38 HAR2        7.1390    3.4910   -1.2860 hn        1 NR9      0.465300
@<TRIPOS>BOND
     1    1    2 ar  
     2    1    4 ar  
     3    1   25 1   
     4    2    3 ar  
     5    2   11 1   
     6    3    6 ar  
     7    3   26 1   
     8    4    5 ar  
     9    4   27 1   
    10    5    6 ar  
    11    5    7 ar  
    12    6    9 ar  
    13    7    8 ar  
    14    8   10 ar  
    15    8   28 1   
    16    9   10 ar  
    17    9   29 1   
    18   10   30 1   
    19   11   12 2   
    20   11   31 1   
    21   12   13 1   
    22   12   16 1   
    23   13   14 1   
    24   13   17 2   
    25   14   15 2   
    26   15   16 1   
    27   15   18 1   
    28   18   19 1   
    29   18   32 1   
    30   18   38 1   
    31   19   20 1   
    32   19   33 1   
    33   19   34 1   
    34   20   21 1   
    35   20   24 2   
    36   21   22 1   
    37   22   23 2   
    38   22   35 1   
    39   23   24 1   
    40   23   36 1   
    41   24   37 1   
@<TRIPOS>SUBSTRUCTURE
     1 NR9         1 TEMP              0 ****  ****    0 ROOT
