@<TRIPOS>MOLECULE
NR9
   38    41     1     0     0
SMALL
bcc


@<TRIPOS>ATOM
      1 CAA         0.2580   -0.4030   -0.0250 ca        1 NR9     -0.092000
      2 CAB         1.5440    0.2030    0.1030 ca        1 NR9     -0.133800
      3 CAC         2.0780    0.3830    1.3700 ca        1 NR9     -0.038000
      4 CAD        -0.4510   -0.8110    1.0740 ca        1 NR9     -0.153300
      5 CAE         0.0850   -0.6340    2.3910 ca        1 NR9      0.435600
      6 CAF         1.3730   -0.0240    2.5230 ca        1 NR9     -0.170300
      7 NAG        -0.6410   -1.0500    3.4910 nb        1 NR9     -0.649000
      8 CAH        -0.1110   -0.8660    4.6870 ca        1 NR9      0.444200
      9 CAI         1.9010    0.1540    3.8370 ca        1 NR9     -0.078000
     10 CAJ         1.1690   -0.2630    4.9180 ca        1 NR9     -0.234300
     11 CAK         2.2160    0.5980   -1.1070 ce        1 NR9      0.117800
     12 CAL         3.4520    1.1280   -1.2390 cd        1 NR9     -0.234600
     13 CAM         3.9880    1.4760   -2.5900 c         1 NR9      0.691700
     14 NAN         5.3370    2.0240   -2.5060 nc        1 NR9     -0.567100
     15 CAO         5.7210    2.0660   -1.2560 cd        1 NR9      0.461100
     16 SAP         4.6120    1.4960   -0.0340 ss        1 NR9     -0.050800
     17 OAQ         3.4080    1.3360   -3.6620 o         1 NR9     -0.422100
     18 NAR         7.0370    2.5750   -0.8600 ny        1 NR9     -0.713000
     19 CAS         8.1690    1.7270   -1.4130 c3        1 NR9      0.232100
     20 CAT         9.4540    2.2070   -0.8980 cc        1 NR9     -0.301400
     21 SAU        10.5880    3.0380   -1.8050 ss        1 NR9      0.170200
     22 CAV        11.6890    3.1100   -0.5790 cc        1 NR9     -0.138100
     23 CAW        11.2320    2.4890    0.5750 cd        1 NR9     -0.152000
     24 CAX         9.9310    1.9550    0.3890 cd        1 NR9     -0.104000
     25 HAA        -0.1650   -0.5420   -1.0340 ha        1 NR9      0.152000
     26 HAC         3.0660    0.8550    1.5170 ha        1 NR9      0.121000
     27 HAD        -1.4440   -1.2790    0.9610 ha        1 NR9      0.174000
     28 HAH        -0.7180   -1.2090    5.5480 h4        1 NR9      0.043100
     29 HAI         2.8890    0.6230    3.9590 ha        1 NR9      0.139000
     30 HAJ         1.5320   -0.1480    5.9490 ha        1 NR9      0.160000
     31 HAK         1.6370    0.4410   -2.0480 ha        1 NR9      0.179000
     32 HNAR        7.0950    2.5840    0.1670 hn        1 NR9      0.465300
     33 HAS         7.9700    0.6630   -1.0890 hx        1 NR9      0.120200
     34 HASA        8.1130    1.7830   -2.5400 hx        1 NR9      0.120200
     35 HAV        12.6690    3.5860   -0.6780 h4        1 NR9      0.202000
     36 HAW        11.7950    2.4080    1.5090 ha        1 NR9      0.183000
     37 HAX         9.3930    1.4000    1.1620 ha        1 NR9      0.159000
     38 HAR2        7.1500    3.5410   -1.1990 hn        1 NR9      0.465300
@<TRIPOS>BOND
     1    1    2 ar  
     2    1    4 ar  
     3    1   25 1   
     4    2    3 ar  
     5    2   11 1   
     6    3    6 ar  
     7    3   26 1   
     8    4    5 ar  
     9    4   27 1   
    10    5    6 ar  
    11    5    7 ar  
    12    6    9 ar  
    13    7    8 ar  
    14    8   10 ar  
    15    8   28 1   
    16    9   10 ar  
    17    9   29 1   
    18   10   30 1   
    19   11   12 2   
    20   11   31 1   
    21   12   13 1   
    22   12   16 1   
    23   13   14 1   
    24   13   17 2   
    25   14   15 2   
    26   15   16 1   
    27   15   18 1   
    28   18   19 1   
    29   18   32 1   
    30   18   38 1   
    31   19   20 1   
    32   19   33 1   
    33   19   34 1   
    34   20   21 1   
    35   20   24 2   
    36   21   22 1   
    37   22   23 2   
    38   22   35 1   
    39   23   24 1   
    40   23   36 1   
    41   24   37 1   
@<TRIPOS>SUBSTRUCTURE
     1 NR9         1 TEMP              0 ****  ****    0 ROOT
