@<TRIPOS>MOLECULE
NR9
   37    31     1     0     0
SMALL
bcc


@<TRIPOS>ATOM
      1 CAA        -2.8920    0.0280    1.7440 c1        1 NR9     -0.103000
      2 CAB        -1.5420   -0.2560    1.8730 c1        1 NR9     -0.068000
      3 CAC        -0.9460   -0.2500    3.1310 c1        1 NR9     -0.078000
      4 CAD        -3.6590    0.3210    2.8800 c1        1 NR9     -0.103000
      5 CAE        -3.0570    0.3270    4.1530 c1        1 NR9      0.014000
      6 CAF        -1.7190    0.0460    4.2790 c1        1 NR9     -0.090000
      7 NAG        -3.8110    0.6180    5.2760 n2        1 NR9     -0.131000
      8 CAH        -3.2240    0.6250    6.5150 c1        1 NR9     -0.047000
      9 CAI        -1.1220    0.0530    5.5400 c2        1 NR9     -0.075000
     10 CAJ        -1.8660    0.3390    6.6450 c1        1 NR9     -0.185000
     11 CAK        -1.7400   -1.3550    0.8000 c2        1 NR9     -0.009000
     12 CAL        -0.9340   -1.3730   -0.3390 c1        1 NR9     -0.375000
     13 CAM        -0.9790   -2.4550   -1.6050 c1        1 NR9      0.300000
     14 NAN         0.1490   -1.9750   -2.5790 n2        1 NR9     -0.277000
     15 CAO         0.8260   -0.8570   -2.1500 c1        1 NR9      0.040000
     16 SAP         0.3100   -0.2990   -0.7450 ss        1 NR9      0.247000
     17 OAQ        -1.7140   -3.3980   -1.7400 o         1 NR9     -0.271000
     18 NAR         1.3950    0.0250   -3.0920 n2        1 NR9     -0.289000
     19 CAS         2.1240   -0.4970   -4.2260 c3        1 NR9      0.048000
     20 CAT         3.1860    0.5090   -4.6490 c2        1 NR9     -0.430000
     21 SAU         3.9630    1.4720   -3.7040 ss        1 NR9      0.611000
     22 CAV         4.9470    2.2940   -4.5770 c1        1 NR9     -0.440000
     23 CAW         4.7850    1.8650   -5.9600 c1        1 NR9     -0.157000
     24 CAX         3.6640    0.7300   -6.0030 c1        1 NR9     -0.145000
     25 HAA        -3.3090    0.0240    0.8610 ha        1 NR9      0.149500
     26 HAC         0.0090   -0.4510    3.2210 ha        1 NR9      0.142000
     27 HAD        -4.6150    0.5220    2.7890 ha        1 NR9      0.149500
     28 HAH        -3.7530    0.8280    7.3000 ha        1 NR9      0.162000
     29 HAI        -0.1760   -0.1460    5.6300 ha        1 NR9      0.140000
     30 HAJ        -1.4470    0.3440    7.5290 ha        1 NR9      0.146000
     31 HAK        -2.4280   -2.0330    0.9200 ha        1 NR9      0.163000
     32 HNAR        1.3210    0.9190   -2.9740 hn        1 NR9      0.246000
     33 HAS         2.5550   -1.3420   -3.9770 h1        1 NR9      0.113000
     34 HASA        1.5030   -0.6530   -4.9720 h1        1 NR9      0.113000
     35 HAV         5.5660    2.9780   -4.2560 DU        1 NR9      0.163000
     36 HAW         5.2770    2.2130   -6.7280 DU        1 NR9      0.163000
     37 HAX         3.3500    0.2600   -6.8070 DU        1 NR9      0.163000
@<TRIPOS>BOND
     1    1    4 1   
     2    1   25 1   
     3    2    3 1   
     4    2   11 1   
     5    3   26 1   
     6    4   27 1   
     7    5    6 1   
     8    5    7 1   
     9    6    9 1   
    10    7    8 1   
    11    8   28 1   
    12    9   10 1   
    13    9   29 1   
    14   10   30 1   
    15   11   12 1   
    16   11   31 1   
    17   12   16 1   
    18   13   14 1   
    19   13   17 1   
    20   14   15 1   
    21   15   16 1   
    22   18   19 1   
    23   18   32 1   
    24   19   20 1   
    25   19   33 1   
    26   19   34 1   
    27   20   21 1   
    28   20   24 1   
    29   21   22 1   
    30   22   23 1   
    31   23   24 1   
@<TRIPOS>SUBSTRUCTURE
     1 NR9         1 TEMP              0 ****  ****    0 ROOT
