@<TRIPOS>MOLECULE
NRA
   27    25     1     0     0
SMALL
bcc


@<TRIPOS>ATOM
      1 C10        -2.7100    0.0410    0.1400 c1        1 NRA     -0.131500
      2 C13        -2.7090    0.0410    2.5490 c1        1 NRA      0.042500
      3 C15        -1.3200    0.0410    2.5500 c1        1 NRA     -0.131500
      4 O01         5.0840    0.2900   -1.1620 oh        1 NRA     -0.238000
      5 C02         3.7000    0.0410   -1.1430 c2        1 NRA      0.174000
      6 C03         3.0050    0.0410   -2.3500 c2        1 NRA     -0.351000
      7 C04         1.6160    0.0410   -2.3530 c1        1 NRA      0.204000
      8 O05         1.0350    0.0760   -3.6340 o         1 NRA     -0.203000
      9 C06         0.9110    0.0410   -1.1380 c2        1 NRA     -0.260000
     10 C07        -0.5590    0.0410   -1.1450 c2        1 NRA      0.333000
     11 O08        -1.1620    0.1870   -2.1900 o         1 NRA     -0.288000
     12 C09        -1.3060    0.0410    0.1400 c1        1 NRA     -0.196000
     13 C11        -3.4050    0.0410    1.3430 c1        1 NRA      0.042500
     14 O12        -4.7740    0.3660    1.3250 oh        1 NRA     -0.255000
     15 O14        -3.3500    0.2900    3.7760 oh        1 NRA     -0.255000
     16 C16        -0.6170    0.0410    1.3350 c1        1 NRA      0.109000
     17 O17         0.8600    0.0410    1.3350 os        1 NRA     -0.125000
     18 C18         1.6000    0.0410    0.0580 c2        1 NRA      0.174000
     19 C19         3.0040    0.0410    0.0590 c2        1 NRA     -0.232000
     20 H10        -3.1980    0.0410   -0.7060 ha        1 NRA      0.171000
     21 H15        -0.8330    0.0410    3.3960 ha        1 NRA      0.171000
     22 HO01        5.5240   -0.4800   -1.1390 ho        1 NRA      0.226000
     23 H03         3.4940    0.0510   -3.1950 ha        1 NRA      0.143000
     24 HO05        1.2220   -0.6780   -4.0640 ho        1 NRA      0.221000
     25 HO12       -5.2410   -0.3360    1.0470 ho        1 NRA      0.239000
     26 HO14       -3.3610   -0.4530    4.2610 ho        1 NRA      0.239000
     27 H19         3.4910    0.0400    0.9050 ha        1 NRA      0.176000
@<TRIPOS>BOND
     1    1   13 1   
     2    1   20 1   
     3    2    3 1   
     4    2   15 1   
     5    3   21 1   
     6    4    5 1   
     7    4   22 1   
     8    5    6 1   
     9    5   19 1   
    10    6    7 1   
    11    6   23 1   
    12    7    9 1   
    13    8   24 1   
    14    9   10 1   
    15    9   18 1   
    16   10   11 1   
    17   10   12 1   
    18   12   16 1   
    19   13   14 1   
    20   14   25 1   
    21   15   26 1   
    22   16   17 1   
    23   17   18 1   
    24   18   19 1   
    25   19   27 1   
@<TRIPOS>SUBSTRUCTURE
     1 NRA         1 TEMP              0 ****  ****    0 ROOT
