@<TRIPOS>MOLECULE
NRA
   27    29     1     0     0
SMALL
bcc


@<TRIPOS>ATOM
      1 C10        -0.1660    0.4030   -0.1450 c1        1 NRA     -0.116000
      2 C13        -0.1270   -0.2240    2.2290 c2        1 NRA      0.196000
      3 C15         1.2950   -0.0090    2.3070 c2        1 NRA     -0.207000
      4 C02         6.2610    0.8470   -0.7890 ca        1 NRA      0.175000
      5 C03         5.7530    0.6080   -2.0740 ca        1 NRA     -0.289000
      6 C04         4.3800    0.3720   -2.2250 ca        1 NRA      0.200000
      7 O05         3.8220    0.1480   -3.4520 oh        1 NRA     -0.210000
      8 C06         3.5010    0.3770   -1.1170 ca        1 NRA     -0.279000
      9 C07         2.0590    0.1300   -1.2660 c2        1 NRA      0.321000
     10 O08         1.5510   -0.4510   -2.2190 o         1 NRA     -0.212000
     11 C09         1.2650    0.7060   -0.1030 c3        1 NRA     -0.177000
     12 C11        -0.8020   -0.0150    1.0260 c2        1 NRA     -0.142000
     13 O12        -2.1670   -0.2640    1.0490 oh        1 NRA     -0.289000
     14 O14        -0.7180   -0.6380    3.3780 oh        1 NRA     -0.225000
     15 C16         1.9540    0.4110    1.1900 c2        1 NRA      0.075000
     16 O17         3.3170    0.6220    1.3220 os        1 NRA     -0.140000
     17 C18         4.0620    0.6210    0.1490 ca        1 NRA      0.173000
     18 C19         5.4270    0.8580    0.3390 ca        1 NRA     -0.283000
     19 H10         1.2940    1.8410   -0.2500 hc        1 NRA      0.198000
     20 H15         1.8080   -0.1970    3.2610 ha        1 NRA      0.176000
     21 HO01        7.8350    1.2150    0.2310 ho        1 NRA      0.230000
     22 H03         6.4300    0.6060   -2.9380 ha        1 NRA      0.163000
     23 HO05        4.5310    0.1520   -4.1150 ho        1 NRA      0.229000
     24 HO12       -2.4820   -0.1380    0.1400 ho        1 NRA      0.251000
     25 HO14       -1.6680   -0.7740    3.2030 ho        1 NRA      0.260000
     26 H19         5.8230    1.0390    1.3470 ha        1 NRA      0.162000
     27 O01         7.6090    1.0690   -0.7010 oh        1 NRA     -0.238000
@<TRIPOS>BOND
     1    1   11 1   
     2    1   12 1   
     3    2    3 1   
     4    2   12 1   
     5    2   14 1   
     6    3   15 1   
     7    3   20 1   
     8    4    5 1   
     9    4   18 1   
    10    4   27 1   
    11    5    6 1   
    12    5   22 1   
    13    6    7 1   
    14    6    8 1   
    15    7   23 1   
    16    8    9 1   
    17    8   17 1   
    18    9   10 1   
    19    9   11 1   
    20   11   15 1   
    21   11   19 1   
    22   12   13 1   
    23   13   24 1   
    24   14   25 1   
    25   15   16 1   
    26   16   17 1   
    27   17   18 1   
    28   18   26 1   
    29   21   27 1   
@<TRIPOS>SUBSTRUCTURE
     1 NRA         1 TEMP              0 ****  ****    0 ROOT
