@<TRIPOS>MOLECULE
NRA
   27    29     1     0     0
SMALL
bcc


@<TRIPOS>ATOM
      1 C10        -2.3290   -1.1280    0.0040 ca        1 NRA     -0.089000
      2 C13        -3.4300    1.0490   -0.0820 ca        1 NRA      0.173100
      3 C15        -2.1940    1.6970   -0.0750 ca        1 NRA     -0.174000
      4 C02         3.7290    1.0880    0.0650 ca        1 NRA      0.219100
      5 C03         3.8450   -0.3050    0.1070 ca        1 NRA     -0.301000
      6 C04         2.6800   -1.0910    0.1060 ca        1 NRA      0.270100
      7 O05         2.9100   -2.4330    0.1490 oh        1 NRA     -0.497100
      8 C06         1.3940   -0.4970    0.0620 ca        1 NRA     -0.337600
      9 C07         0.1590   -1.2780    0.0590 c         1 NRA      0.624300
     10 O08         0.1380   -2.5230    0.0950 o         1 NRA     -0.593100
     11 C09        -1.0770   -0.4890    0.0110 ca        1 NRA     -0.220600
     12 C11        -3.4910   -0.3700   -0.0420 ca        1 NRA      0.008100
     13 O12        -4.7620   -0.9110   -0.0530 oh        1 NRA     -0.516100
     14 O14        -4.5510    1.8330   -0.1280 oh        1 NRA     -0.483100
     15 C16        -1.0300    0.9100   -0.0280 ca        1 NRA      0.164100
     16 O17         0.1520    1.6300   -0.0250 os        1 NRA     -0.213200
     17 C18         1.3370    0.9130    0.0210 ca        1 NRA      0.221100
     18 C19         2.4770    1.7210    0.0210 ca        1 NRA     -0.234000
     19 H10        -2.3640   -2.2290    0.0350 ha        1 NRA      0.166000
     20 H15        -2.1330    2.7940   -0.1050 ha        1 NRA      0.178000
     21 HO01        5.6200    1.3610    0.0960 ho        1 NRA      0.430000
     22 H03         4.8250   -0.7980    0.1420 ha        1 NRA      0.161000
     23 HO05        2.0710   -2.9260    0.1460 ho        1 NRA      0.467000
     24 HO12       -4.6730   -1.8750   -0.0230 ho        1 NRA      0.436000
     25 HO14       -5.3290    1.2520   -0.1270 ho        1 NRA      0.447000
     26 H19         2.3980    2.8160   -0.0130 ha        1 NRA      0.176000
     27 O01         4.8230    1.9130    0.0640 oh        1 NRA     -0.484100
@<TRIPOS>BOND
     1    1   11 ar  
     2    1   12 ar  
     3    1   19 1   
     4    2    3 ar  
     5    2   12 ar  
     6    2   14 1   
     7    3   15 ar  
     8    3   20 1   
     9    4    5 ar  
    10    4   18 ar  
    11    4   27 1   
    12    5    6 ar  
    13    5   22 1   
    14    6    7 1   
    15    6    8 ar  
    16    7   23 1   
    17    8    9 1   
    18    8   17 ar  
    19    9   10 2   
    20    9   11 1   
    21   11   15 ar  
    22   12   13 1   
    23   13   24 1   
    24   14   25 1   
    25   15   16 1   
    26   16   17 1   
    27   17   18 ar  
    28   18   26 1   
    29   21   27 1   
@<TRIPOS>SUBSTRUCTURE
     1 NRA         1 TEMP              0 ****  ****    0 ROOT
