@<TRIPOS>MOLECULE
NRA
   27    29     1     0     0
SMALL
bcc


@<TRIPOS>ATOM
      1 C10        -0.1660    0.3640   -0.1560 c1        1 NRA     -0.116000
      2 C13        -0.1290   -0.2190    2.2290 c2        1 NRA      0.196000
      3 C15         1.2910    0.0160    2.3080 c2        1 NRA     -0.207000
      4 C02         6.2570    0.8790   -0.7850 ca        1 NRA      0.175000
      5 C03         5.7570    0.6100   -2.0670 ca        1 NRA     -0.289000
      6 C04         4.3880    0.3540   -2.2190 ca        1 NRA      0.200000
      7 O05         3.8380    0.1010   -3.4430 oh        1 NRA     -0.210000
      8 C06         3.5050    0.3680   -1.1140 ca        1 NRA     -0.279000
      9 C07         2.0660    0.0990   -1.2640 c2        1 NRA      0.321000
     10 O08         1.5700   -0.5050   -2.2080 o         1 NRA     -0.212000
     11 C09         1.2610    0.6870   -0.1140 c3        1 NRA     -0.177000
     12 C11        -0.8010   -0.0410    1.0200 c2        1 NRA     -0.142000
     13 O12        -2.1630   -0.3070    1.0420 oh        1 NRA     -0.289000
     14 O14        -0.7190   -0.6190    3.3830 oh        1 NRA     -0.225000
     15 C16         1.9480    0.4240    1.1860 c2        1 NRA      0.075000
     16 O17         3.3080    0.6540    1.3190 os        1 NRA     -0.140000
     17 C18         4.0570    0.6410    0.1490 ca        1 NRA      0.173000
     18 C19         5.4190    0.8990    0.3400 ca        1 NRA     -0.283000
     19 H10         1.2760    1.8190   -0.2820 hc        1 NRA      0.198000
     20 H15         1.8030   -0.1480    3.2670 ha        1 NRA      0.176000
     21 HO01        7.8220    1.2850    0.2340 ho        1 NRA      0.230000
     22 H03         6.4380    0.6010   -2.9290 ha        1 NRA      0.163000
     23 HO05        4.5490    0.1020   -4.1040 ho        1 NRA      0.229000
     24 HO12       -2.4760   -0.2010    0.1300 ho        1 NRA      0.251000
     25 HO14       -1.6660   -0.7710    3.2070 ho        1 NRA      0.260000
     26 H19         5.8080    1.1040    1.3450 ha        1 NRA      0.162000
     27 O01         7.6030    1.1190   -0.6960 oh        1 NRA     -0.238000
@<TRIPOS>BOND
     1    1   11 1   
     2    1   12 1   
     3    2    3 1   
     4    2   12 1   
     5    2   14 1   
     6    3   15 1   
     7    3   20 1   
     8    4    5 1   
     9    4   18 1   
    10    4   27 1   
    11    5    6 1   
    12    5   22 1   
    13    6    7 1   
    14    6    8 1   
    15    7   23 1   
    16    8    9 1   
    17    8   17 1   
    18    9   10 1   
    19    9   11 1   
    20   11   15 1   
    21   11   19 1   
    22   12   13 1   
    23   13   24 1   
    24   14   25 1   
    25   15   16 1   
    26   16   17 1   
    27   17   18 1   
    28   18   26 1   
    29   21   27 1   
@<TRIPOS>SUBSTRUCTURE
     1 NRA         1 TEMP              0 ****  ****    0 ROOT
