@<TRIPOS>MOLECULE
NRG
   27    26     1     0     0
SMALL
bcc


@<TRIPOS>ATOM
      1 N           8.8900   15.5660   35.7820 n3        1 NRG     -0.891800
      2 CA          8.9050   15.9410   34.3740 c3        1 NRG      0.017500
      3 CB          8.2510   14.9000   33.4650 c3        1 NRG     -0.073400
      4 CG          8.9390   13.5550   33.5270 c3        1 NRG     -0.087400
      5 CD          8.6500   12.6950   32.2960 c3        1 NRG      0.193800
      6 NE          7.2450   12.3900   32.1370 nh        1 NRG     -0.820200
      7 CZ          6.7390   11.8420   30.9400 c2        1 NRG      0.769100
      8 NH1         7.7590   11.2940   30.0190 nh        1 NRG     -0.744500
      9 NH2         5.4880   11.7020   30.5920 n2        1 NRG     -0.867100
     10 C           8.2470   17.3280   34.0600 c         1 NRG      0.887600
     11 OA1         8.1160   17.6460   32.8460 o         1 NRG     -0.840300
     12 OA2         7.8990   18.0510   35.0360 o         1 NRG     -0.840300
     13 N1          7.6300    9.9690   29.6100 no        1 NRG      0.442500
     14 O2          8.0590    9.6990   28.5150 o         1 NRG     -0.205500
     15 O3          7.2100    9.1470   30.3750 o         1 NRG     -0.205500
     16 HN1         9.1570   16.3820   36.3080 hn        1 NRG      0.332800
     17 HN2         7.9420   15.3610   36.0460 hn        1 NRG      0.332800
     18 HCA         9.9920   16.0340   34.0800 h1        1 NRG      0.041700
     19 HCB1        7.1700   14.7940   33.7450 hc        1 NRG      0.045700
     20 HCB2        8.2890   15.3150   32.4210 hc        1 NRG      0.045700
     21 HCG1       10.0510   13.7000   33.5710 hc        1 NRG      0.054200
     22 HCG2        8.6390   13.0120   34.4600 hc        1 NRG      0.054200
     23 HCD1        9.0520   13.2380   31.3900 h1        1 NRG      0.038700
     24 HCD2        9.2040   11.7180   32.3880 h1        1 NRG      0.038700
     25 HNE         6.6390   13.0730   32.5510 hn        1 NRG      0.426800
     26 HNH1        7.9020   11.9060   29.2250 hn        1 NRG      0.442800
     27 HNH2        4.8080   12.0700   31.2190 hn        1 NRG      0.413400
@<TRIPOS>BOND
     1    1    2 1   
     2    1   16 1   
     3    1   17 1   
     4    2    3 1   
     5    2   10 1   
     6    2   18 1   
     7    3    4 1   
     8    3   19 1   
     9    3   20 1   
    10    4    5 1   
    11    4   21 1   
    12    4   22 1   
    13    5    6 1   
    14    5   23 1   
    15    5   24 1   
    16    6    7 1   
    17    6   25 1   
    18    7    8 1   
    19    7    9 2   
    20    8   13 1   
    21    8   26 1   
    22    9   27 1   
    23   10   11 1   
    24   10   12 1   
    25   13   14 1   
    26   13   15 1   
@<TRIPOS>SUBSTRUCTURE
     1 NRG         1 TEMP              0 ****  ****    0 ROOT
