@<TRIPOS>MOLECULE
NRG
   27    25     1     0     0
SMALL
bcc


@<TRIPOS>ATOM
      1 N          -3.3120   -1.0980   -2.3230 n3        1 NRG     -0.887800
      2 CA         -1.8890   -1.1190   -2.3200 c3        1 NRG      0.019500
      3 CB         -1.3870   -1.0670   -0.8920 c3        1 NRG     -0.048400
      4 CG         -0.3520    0.0370   -0.7590 c3        1 NRG     -0.114400
      5 CD          0.0690    0.1640    0.6950 c3        1 NRG      0.178800
      6 NE          1.1670    1.0660    0.7940 nh        1 NRG     -0.743000
      7 CZ          1.6680    1.4380    2.0710 c2        1 NRG      0.334000
      8 NH1         2.9810    1.0650    2.4540 nh        1 NRG     -0.683300
      9 NH2         0.9170    2.1250    2.8940 n1        1 NRG     -0.322000
     10 C          -1.4030   -2.3870   -2.9790 c         1 NRG      0.885600
     11 OA1        -0.6910   -2.3250   -4.0160 o         1 NRG     -0.842300
     12 OA2        -1.7310   -3.5050   -2.5080 o         1 NRG     -0.842300
     13 N1          3.6000    1.7040    3.5100 no        1 NRG      0.440500
     14 O2          4.3580    2.8180    3.2850 o         1 NRG     -0.208000
     15 O3          3.5160    1.2400    4.6390 o         1 NRG     -0.208000
     16 HN1        -3.6040   -0.2350   -2.2410 hn        1 NRG      0.332300
     17 HN2        -3.6210   -1.4530   -3.1090 hn        1 NRG      0.332300
     18 HCA        -1.5520   -0.3460   -2.8120 h1        1 NRG      0.043700
     19 HCB1       -0.9800   -1.9270   -0.6580 hc        1 NRG      0.028200
     20 HCB2       -2.1360   -0.8860   -0.2890 hc        1 NRG      0.028200
     21 HCG1       -0.7380    0.8850   -1.0620 hc        1 NRG      0.077200
     22 HCG2        0.4290   -0.1800   -1.3080 hc        1 NRG      0.077200
     23 HCD1        0.3370   -0.7150    1.0350 h1        1 NRG      0.039700
     24 HCD2       -0.6790    0.5030    1.2220 h1        1 NRG      0.039700
     25 HNE         1.5370    1.4160    0.0420 hn        1 NRG      0.426800
     26 HNH1        3.4260    0.4180    1.9890 hn        1 NRG      0.444800
     27 HNH2        0.0730    2.3640    2.6480 DU        1 NRG      0.172000
@<TRIPOS>BOND
     1    1    2 1   
     2    1   16 1   
     3    1   17 1   
     4    2    3 1   
     5    2   10 1   
     6    2   18 1   
     7    3    4 1   
     8    3   19 1   
     9    3   20 1   
    10    4    5 1   
    11    4   21 1   
    12    4   22 1   
    13    5    6 1   
    14    5   23 1   
    15    5   24 1   
    16    6    7 1   
    17    6   25 1   
    18    7    8 1   
    19    7    9 2   
    20    8   13 1   
    21    8   26 1   
    22   10   11 1   
    23   10   12 1   
    24   13   14 1   
    25   13   15 1   
@<TRIPOS>SUBSTRUCTURE
     1 NRG         1 TEMP              0 ****  ****    0 ROOT
