@<TRIPOS>MOLECULE
NRH
   21    14     1     0     0
SMALL
bcc


@<TRIPOS>ATOM
      1 C5          1.5090   -0.0000   -1.7350 c1        1 NRH     -0.108500
      2 C6          2.8980   -0.0000   -1.7350 c1        1 NRH     -0.110000
      3 N1          3.5830   -0.0000   -0.5500 n1        1 NRH     -0.117000
      4 C2          2.9030   -0.0000    0.6340 c1        1 NRH     -0.108500
      5 C4          0.8180   -0.0000   -0.5380 c1        1 NRH     -0.030000
      6 C9         -0.5500    0.0000   -0.2430 c1        1 NRH     -0.091000
      7 C10        -1.6910    0.0000   -1.0660 c1        1 NRH     -0.122000
      8 C11        -2.9550    0.0000   -0.4970 c1        1 NRH     -0.122000
      9 C3          1.5000   -0.0000    0.6380 c1        1 NRH     -0.030000
     10 N7          0.5720   -0.0000    1.6730 n1        1 NRH     -0.233000
     11 C8         -0.6890   -0.0000    1.1170 c1        1 NRH      0.053000
     12 C13        -1.9720   -0.0000    1.6930 c1        1 NRH     -0.122000
     13 C12        -3.0960    0.0000    0.8820 c1        1 NRH     -0.122000
     14 H1          1.0210   -0.0000   -2.5800 ha        1 NRH      0.153000
     15 H2          3.3860   -0.0000   -2.5810 ha        1 NRH      0.159000
     16 H3          3.3930   -0.0000    1.4790 ha        1 NRH      0.153000
     17 H4         -1.5920    0.0000   -2.0370 ha        1 NRH      0.135500
     18 H5         -3.7470    0.0000   -1.0680 ha        1 NRH      0.135500
     19 H6          0.7650   -0.0000    2.5650 DU        1 NRH      0.256000
     20 H7         -2.0710   -0.0000    2.6640 ha        1 NRH      0.135500
     21 H8         -3.9860    0.0000    1.2820 ha        1 NRH      0.135500
@<TRIPOS>BOND
     1    1    5 1   
     2    1   14 1   
     3    2    3 1   
     4    2   15 1   
     5    4    9 1   
     6    4   16 1   
     7    6   11 1   
     8    7    8 1   
     9    7   17 1   
    10    8   18 1   
    11   10   11 1   
    12   12   13 1   
    13   12   20 1   
    14   13   21 1   
@<TRIPOS>SUBSTRUCTURE
     1 NRH         1 TEMP              0 ****  ****    0 ROOT
