@<TRIPOS>MOLECULE
NRH
   21    23     1     0     0
SMALL
bcc


@<TRIPOS>ATOM
      1 C5         -1.6800    1.5180    0.0040 ca        1 NRH     -0.192300
      2 C6         -3.0230    1.0960    0.0090 ca        1 NRH      0.362200
      3 N1         -3.4220   -0.1930   -0.0010 nb        1 NRH     -0.646000
      4 C2         -2.4900   -1.1610   -0.0210 ca        1 NRH      0.377200
      5 C4         -0.7020    0.5330   -0.0100 cp        1 NRH     -0.043000
      6 C9          0.7500    0.5260   -0.0110 cp        1 NRH     -0.087000
      7 C10         1.7140    1.5250    0.0030 ca        1 NRH     -0.069000
      8 C11         3.0590    1.1600    0.0090 ca        1 NRH     -0.161000
      9 C3         -1.1150   -0.8560   -0.0280 ca        1 NRH     -0.138500
     10 N7          0.0120   -1.6920   -0.1140 na        1 NRH     -0.170300
     11 C8          1.1510   -0.8640   -0.0300 ca        1 NRH     -0.009200
     12 C13         2.5050   -1.2140   -0.0220 ca        1 NRH     -0.157000
     13 C12         3.4440   -0.1850   -0.0020 ca        1 NRH     -0.095000
     14 H1         -1.4230    2.5840    0.0100 ha        1 NRH      0.146000
     15 H2         -3.8390    1.8390    0.0220 h4        1 NRH      0.022100
     16 H3         -2.8580   -2.2000   -0.0340 h4        1 NRH      0.025100
     17 H4          1.4180    2.5840    0.0090 ha        1 NRH      0.138000
     18 H5          3.8330    1.9420    0.0220 ha        1 NRH      0.135000
     19 H6          0.0080   -2.6230    0.2160 hn        1 NRH      0.290700
     20 H7          2.8210   -2.2650   -0.0360 ha        1 NRH      0.139000
     21 H8          4.5150   -0.4390    0.0060 ha        1 NRH      0.134000
@<TRIPOS>BOND
     1    1    2 ar  
     2    1    5 ar  
     3    1   14 1   
     4    2    3 ar  
     5    2   15 1   
     6    3    4 ar  
     7    4    9 ar  
     8    4   16 1   
     9    5    6 1   
    10    5    9 ar  
    11    6    7 ar  
    12    6   11 ar  
    13    7    8 ar  
    14    7   17 1   
    15    8   13 ar  
    16    8   18 1   
    17    9   10 1   
    18   10   11 1   
    19   10   19 1   
    20   11   12 ar  
    21   12   13 ar  
    22   12   20 1   
    23   13   21 1   
@<TRIPOS>SUBSTRUCTURE
     1 NRH         1 TEMP              0 ****  ****    0 ROOT
