@<TRIPOS>MOLECULE
NRI
   22    21     1     0     0
SMALL
bcc


@<TRIPOS>ATOM
      1 P           2.3360    2.1660    1.6200 p4        1 NRI      1.700200
      2 O1P         3.8460    2.1660    1.6200 o         1 NRI     -0.934500
      3 O2P         1.8320    2.1660    3.0440 os        1 NRI     -1.254000
      4 O3P         1.8320    3.3990    0.9090 o         1 NRI     -0.983300
      5 O5'         1.8090    0.8760    0.8750 os        1 NRI     -0.566200
      6 C2'        -1.7050   -0.4610   -1.4220 c3        1 NRI      0.118800
      7 C5'         0.4460    0.8130    0.5250 c3        1 NRI      0.244400
      8 C4'         0.0850   -0.6700    0.0630 c3        1 NRI     -0.157700
      9 C3'        -0.0990   -0.7060   -1.1880 c3        1 NRI      0.163100
     10 C6'        -1.3120   -1.1230    0.6990 c3        1 NRI      0.140800
     11 N1'        -2.3200   -1.0940   -0.4540 n3        1 NRI     -0.811200
     12 O3'         0.2920   -2.0190   -1.7150 oh        1 NRI     -0.685800
     13 H2'        -1.9770   -0.8250   -2.2860 h1        1 NRI      0.026200
     14 H2''       -1.9070    0.4930   -1.3810 h1        1 NRI      0.026200
     15 H5'        -0.1000    1.0550    1.2970 h1        1 NRI     -0.013800
     16 H5''        0.2690    1.4340   -0.2070 h1        1 NRI     -0.013800
     17 H4'         0.7930   -1.2900    0.3220 hc        1 NRI      0.064700
     18 H3'         0.4160   -0.0010   -1.6240 h1        1 NRI      0.079700
     19 H6'        -1.5820   -0.4980    1.3990 h1        1 NRI      0.022700
     20 H6''       -1.2400   -2.0260    1.0620 h1        1 NRI      0.022700
     21 HN1'       -2.5060   -1.9470   -0.7170 hn        1 NRI      0.311800
     22 HO3'        0.7910   -1.9090   -2.4400 ho        1 NRI      0.500000
@<TRIPOS>BOND
     1    1    2 1   
     2    1    4 2   
     3    1    5 1   
     4    5    7 1   
     5    6    9 1   
     6    6   11 1   
     7    6   13 1   
     8    6   14 1   
     9    7    8 1   
    10    7   15 1   
    11    7   16 1   
    12    8    9 1   
    13    8   10 1   
    14    8   17 1   
    15    9   12 1   
    16    9   18 1   
    17   10   11 1   
    18   10   19 1   
    19   10   20 1   
    20   11   21 1   
    21   12   22 1   
@<TRIPOS>SUBSTRUCTURE
     1 NRI         1 TEMP              0 ****  ****    0 ROOT
