@<TRIPOS>MOLECULE
NRI
   22    22     1     0     0
SMALL
bcc


@<TRIPOS>ATOM
      1 P          -1.7190   -0.7220   -0.5740 p5        1 NRI      1.319900
      2 O1P        -0.5870   -1.5750   -1.0990 o         1 NRI     -0.932167
      3 O2P        -2.1280    0.4020   -1.4860 o         1 NRI     -0.932167
      4 O3P        -2.8030   -1.4380    0.1770 o         1 NRI     -0.932167
      5 O5'        -0.8910    0.1410    0.7010 os        1 NRI     -0.562200
      6 C2'         3.0150   -0.4300   -1.0230 c3        1 NRI      0.136800
      7 C5'         0.1460    0.9080    0.2470 c3        1 NRI      0.239400
      8 C4'         1.5250    0.4070    0.7390 c3        1 NRI     -0.114700
      9 C3'         2.6220    0.8540   -0.2420 c3        1 NRI      0.108100
     10 C6'         1.6060   -1.1330    0.7280 c3        1 NRI      0.147800
     11 N1'         2.2810   -1.5720   -0.4940 n3        1 NRI     -0.820200
     12 O3'         3.7180    1.3910    0.4970 oh        1 NRI     -0.622800
     13 H5'         0.1470    0.9440   -0.8820 h1        1 NRI     -0.015300
     14 H5''        0.0400    1.9690    0.6330 h1        1 NRI     -0.015300
     15 H4'         1.7280    0.7990    1.7640 hc        1 NRI      0.033700
     16 H3'         2.2600    1.6520   -0.9450 h1        1 NRI      0.030700
     17 H6'         2.2030   -1.4920    1.6090 h1        1 NRI      0.064200
     18 H6''        0.5540   -1.5590    0.7520 h1        1 NRI      0.064200
     19 HN1'        1.5540   -1.8510   -1.1480 hn        1 NRI      0.424800
     20 HO3'        4.4790    1.3690   -0.0910 ho        1 NRI      0.364000
     21 H2'         2.8240   -0.2820   -2.1190 h1        1 NRI      0.005200
     22 H2''        4.1160   -0.6260   -0.8920 h1        1 NRI      0.005200
@<TRIPOS>BOND
     1    1    2 1   
     2    1    3 1   
     3    1    4 1   
     4    1    5 1   
     5    5    7 1   
     6    6    9 1   
     7    6   11 1   
     8    6   21 1   
     9    6   22 1   
    10    7    8 1   
    11    7   13 1   
    12    7   14 1   
    13    8    9 1   
    14    8   10 1   
    15    8   15 1   
    16    9   12 1   
    17    9   16 1   
    18   10   11 1   
    19   10   17 1   
    20   10   18 1   
    21   11   19 1   
    22   12   20 1   
@<TRIPOS>SUBSTRUCTURE
     1 NRI         1 TEMP              0 ****  ****    0 ROOT
