@<TRIPOS>MOLECULE
NRM
   33    32     1     0     0
SMALL
bcc


@<TRIPOS>ATOM
      1 C1          0.9440    1.2920    0.0370 ce        1 NRM     -0.471700
      2 S1         -1.3270   -0.0580   -7.8670 ss        1 NRM      0.161200
      3 C2          0.0860    2.0980   -3.4140 cf        1 NRM      0.239500
      4 N2         -3.0660   -0.0330   -2.4940 n1        1 NRM     -1.129500
      5 C3         -0.6270    1.1790   -4.0840 c1        1 NRM     -0.131900
      6 N3          0.6030    2.1350   -2.1720 nf        1 NRM     -0.683300
      7 N4          0.3040   -0.2610    1.9390 n2        1 NRM     -0.641800
      8 C5         -2.7620    0.3980   -4.8600 c2        1 NRM     -0.047200
      9 N5          2.8780   -1.7860    2.0620 n1        1 NRM     -0.468800
     10 C6         -3.5440    0.1600   -3.7560 ce        1 NRM      0.495700
     11 N6         -1.6710   -1.0070   -9.1500 nc        1 NRM     -0.484100
     12 C7          0.3600    1.2120   -1.2360 ce        1 NRM      0.647500
     13 N7         -1.3100    0.3730   -4.7780 nh        1 NRM      0.014400
     14 C8          3.9240   -2.2680    2.2030 c1        1 NRM      0.268300
     15 C9         -2.6880   -0.2180   -1.3850 c1        1 NRM      0.504800
     16 C10         0.6670    0.3880    1.0170 c1        1 NRM      0.568500
     17 C11        -2.9230   -0.0020   -7.2370 cc        1 NRM     -0.069300
     18 C12        -3.7410   -0.7230   -8.0940 cd        1 NRM     -0.281300
     19 C14        -2.9710   -1.2770   -9.1970 cd        1 NRM      0.403600
     20 HN1        -4.3010    0.9080   -6.0750 hn        1 NRM      0.282700
     21 H2          0.3420    3.0110   -4.0170 h4        1 NRM      0.222000
     22 H3         -0.8590   -0.3010   -5.3930 hn        1 NRM      0.327700
     23 H8          4.8900   -2.7140    2.3360 ha        1 NRM      0.201500
     24 H9         -0.3330    0.3560   -1.4230 h4        1 NRM     -0.024200
     25 H10         1.6420    2.1120    0.2950 ha        1 NRM      0.211000
     26 H12        -4.8180   -0.8770   -8.0000 ha        1 NRM      0.180000
     27 H13        -4.2120   -1.3930  -10.9250 hc        1 NRM      0.071700
     28 H13A       -4.3240   -2.8150   -9.7940 hc        1 NRM      0.071700
     29 H13B       -2.8820   -2.6300  -10.8870 hc        1 NRM      0.071700
     30 HN4         0.4420   -1.0480    2.5140 hn        1 NRM      0.594400
     31 C13        -3.6260   -2.0780  -10.2610 c3        1 NRM     -0.141400
     32 H121       -4.6520    0.1280   -3.8440 h4        1 NRM      0.192000
     33 N1         -3.3080    0.7520   -6.1230 nh        1 NRM     -0.154400
@<TRIPOS>BOND
     1    1   12 1   
     2    1   16 2   
     3    1   25 1   
     4    2   11 1   
     5    2   17 1   
     6    3    5 2   
     7    3    6 1   
     8    3   21 1   
     9    4   10 1   
    10    4   15 3   
    11    5   13 2   
    12    6   12 2   
    13    7   16 2   
    14    7   30 1   
    15    8   10 2   
    16    8   13 1   
    17    8   33 1   
    18    9   14 3   
    19   10   32 1   
    20   11   19 2   
    21   12   24 1   
    22   13   22 1   
    23   14   23 1   
    24   17   18 2   
    25   17   33 1   
    26   18   19 1   
    27   18   26 1   
    28   19   31 1   
    29   20   33 1   
    30   27   31 1   
    31   28   31 1   
    32   29   31 1   
@<TRIPOS>SUBSTRUCTURE
     1 NRM         1 TEMP              0 ****  ****    0 ROOT
