@<TRIPOS>MOLECULE
NRM
   32    35     1     0     0
SMALL
bcc


@<TRIPOS>ATOM
      1 C1         -4.1980    0.2440    0.0650 cc        1 NRM     -0.203100
      2 S1          3.7200   -1.2480   -0.1610 ss        1 NRM      0.285200
      3 C2         -1.5830   -1.5690   -0.1460 cc        1 NRM     -0.237600
      4 N2         -0.9170    1.9490    0.1620 nd        1 NRM     -0.267600
      5 C3         -0.3030   -2.0900   -0.2070 cd        1 NRM      0.403200
      6 N3         -1.7280   -0.2010   -0.0120 na        1 NRM      0.062700
      7 N4         -6.4190    0.1860   -0.2180 na        1 NRM     -0.015600
      8 C5          0.7460   -0.0210   -0.0230 cc        1 NRM      0.719200
      9 N5         -6.1300   -0.9550    0.4110 nd        1 NRM     -0.506800
     10 C6         -0.5690    0.6310    0.0460 cc        1 NRM     -0.194600
     11 N6          5.3060   -0.8940   -0.1400 nc        1 NRM     -0.572100
     12 C7         -2.8330    0.6480    0.0760 cc        1 NRM     -0.057300
     13 N7          0.8540   -1.3580   -0.1460 nd        1 NRM     -0.739000
     14 C8         -4.7880   -0.9660    0.6070 cc        1 NRM      0.304200
     15 C9         -2.2910    1.9670    0.1810 cd        1 NRM      0.009600
     16 C10        -5.2900    0.9640   -0.4620 cd        1 NRM     -0.119300
     17 C11         3.1630    0.3620   -0.0070 cc        1 NRM      0.140500
     18 C12         4.2850    1.1940    0.0620 cd        1 NRM     -0.359300
     19 C14         5.5000    0.4170   -0.0190 cd        1 NRM      0.395600
     20 HN1         1.7040    1.7880    0.1370 hn        1 NRM      0.476800
     21 H2         -2.5020   -2.1720   -0.2080 h4        1 NRM      0.179000
     22 H3         -0.1450   -3.1780   -0.3140 h4        1 NRM      0.042100
     23 H8         -4.2820   -1.7830    1.1230 h4        1 NRM      0.047100
     24 H9         -2.8540    2.8950    0.2750 h4        1 NRM      0.185000
     25 H10        -5.3330    1.9280   -0.9680 h4        1 NRM      0.185000
     26 H12         4.2810    2.2780    0.1650 ha        1 NRM      0.165000
     27 H13         6.9970    1.6310   -0.9300 hc        1 NRM      0.054367
     28 H13A        6.8620    1.7930    0.8760 hc        1 NRM      0.054367
     29 H13B        7.6570    0.3290    0.1500 hc        1 NRM      0.054367
     30 HN4        -7.3580    0.4010   -0.4600 hn        1 NRM      0.326700
     31 N1          1.8580    0.8070    0.0430 nh        1 NRM     -0.691300
     32 C13         6.8310    1.0700    0.0240 c3        1 NRM     -0.129400
@<TRIPOS>BOND
     1    1   12 1   
     2    1   14 1   
     3    1   16 2   
     4    2   11 1   
     5    2   17 1   
     6    3    5 2   
     7    3    6 1   
     8    3   21 1   
     9    4   10 2   
    10    4   15 1   
    11    5   13 1   
    12    5   22 1   
    13    6   10 1   
    14    6   12 1   
    15    7    9 1   
    16    7   16 1   
    17    7   30 1   
    18    8   10 1   
    19    8   13 2   
    20    8   31 1   
    21    9   14 2   
    22   11   19 2   
    23   12   15 2   
    24   14   23 1   
    25   15   24 1   
    26   16   25 1   
    27   17   18 2   
    28   17   31 1   
    29   18   19 1   
    30   18   26 1   
    31   19   32 1   
    32   20   31 1   
    33   27   32 1   
    34   28   32 1   
    35   29   32 1   
@<TRIPOS>SUBSTRUCTURE
     1 NRM         1 TEMP              0 ****  ****    0 ROOT
