@<TRIPOS>MOLECULE
NRM
   32    33     1     0     0
SMALL
bcc


@<TRIPOS>ATOM
      1 C1          0.3830    0.8880   -0.1430 c3        1 NRM     -0.175000
      2 S1         -3.4160   -2.5020   -7.3650 ss        1 NRM      0.675000
      3 C2          0.5100    0.2250   -2.9080 c1        1 NRM     -0.311000
      4 N2         -3.0790   -0.5120   -2.3100 n2        1 NRM     -0.276000
      5 C3          0.5720   -0.0350   -4.2390 c2        1 NRM     -0.163000
      6 N3         -0.7130    0.1010   -2.2150 n3        1 NRM      0.150000
      7 N4          1.2360   -0.0180    1.7750 n3        1 NRM     -0.209000
      8 C5         -1.7450   -0.6290   -4.3500 c2        1 NRM      0.221000
      9 N5          2.1520   -0.3590    0.7890 n2        1 NRM     -0.099000
     10 C6         -1.8690   -0.3400   -2.9500 c2        1 NRM     -0.171000
     11 N6         -3.2300   -1.8300   -8.7950 n2        1 NRM     -0.305000
     12 C7         -0.7700    0.3950   -0.9280 c2        1 NRM     -0.042000
     13 N7         -0.5450   -0.4310   -4.9920 n3        1 NRM     -0.220000
     14 C8          1.7050    0.1240   -0.3450 c2        1 NRM     -0.106000
     15 C9         -4.1120   -0.6610   -1.7510 c1        1 NRM      0.120000
     16 C10         0.1640    0.6860    1.3780 c1        1 NRM     -0.036000
     17 C11        -2.8860   -1.1540   -6.4440 c2        1 NRM     -0.341000
     18 C12        -2.5290   -0.1490   -7.3370 c2        1 NRM     -0.145000
     19 C14        -2.7310   -0.5800   -8.7070 c2        1 NRM     -0.165000
     20 HN1        -3.7410   -1.0010   -4.6310 hn        1 NRM      0.242000
     21 H2          1.5090    0.0650   -4.8070 h4        1 NRM      0.173000
     22 H3         -0.4470   -0.6580   -5.9570 hn        1 NRM      0.245000
     23 H8          2.1730    0.0190   -1.3340 h4        1 NRM      0.237000
     24 H9         -1.7220    0.3110   -0.3680 h4        1 NRM      0.181000
     25 H10         0.5510    1.9810   -0.3550 hc        1 NRM      0.174000
     26 H12        -2.1500    0.8480   -7.0980 ha        1 NRM      0.195000
     27 H13        -3.9120    1.8530   -9.7370 ha        1 NRM      0.014500
     28 H13A       -4.3530    1.3680   -9.9250 ha        1 NRM      0.014500
     29 H13B       -2.6240   -0.0650  -10.8070 ha        1 NRM      0.061000
     30 HN4         1.4450   -0.3150    2.7020 hn        1 NRM      0.272000
     31 N1         -2.8470   -1.1830   -5.0490 nh        1 NRM     -0.217000
     32 C13        -2.3760    0.2860   -9.7920 c1        1 NRM      0.007000
@<TRIPOS>BOND
     1    1   12 1   
     2    1   14 1   
     3    1   16 1   
     4    1   25 1   
     5    2   11 1   
     6    2   17 1   
     7    3    5 1   
     8    3    6 1   
     9    4   10 1   
    10    4   15 1   
    11    5   13 1   
    12    5   21 1   
    13    6   10 1   
    14    6   12 1   
    15    7    9 1   
    16    7   16 1   
    17    7   30 1   
    18    8   10 1   
    19    8   13 1   
    20    8   31 1   
    21    9   14 1   
    22   11   19 1   
    23   12   24 1   
    24   13   22 1   
    25   14   23 1   
    26   17   18 1   
    27   17   31 1   
    28   18   19 1   
    29   18   26 1   
    30   19   32 1   
    31   20   31 1   
    32   27   28 1   
    33   29   32 1   
@<TRIPOS>SUBSTRUCTURE
     1 NRM         1 TEMP              0 ****  ****    0 ROOT
