@<TRIPOS>MOLECULE
NRM
   32    27     1     0     0
SMALL
bcc


@<TRIPOS>ATOM
      1 C1          1.8470    0.1660    3.7360 c2        1 NRM     -0.126000
      2 N1         -1.7280    0.0580   -1.1760 n3        1 NRM     -0.212000
      3 S1         -0.4920    1.0490   -3.2970 ss        1 NRM      0.597000
      4 C2          1.5850   -1.4050    0.8240 c1        1 NRM     -0.148000
      5 N2         -0.7010    1.1070    1.6210 n2        1 NRM     -0.127000
      6 C3          1.1820   -1.8920   -0.4150 c1        1 NRM     -0.062000
      7 N3          0.8880   -0.4020    1.4190 n1        1 NRM     -0.013000
      8 N4          2.6210   -0.2070    5.7570 n2        1 NRM     -0.117000
      9 C5         -0.5950   -0.3730   -0.4380 c2        1 NRM      0.198000
     10 N5          3.5150    0.5980    5.0970 n2        1 NRM     -0.117000
     11 C6         -0.1900    0.1190    0.8100 c1        1 NRM     -0.105000
     12 N6         -0.8430    1.1190   -4.7390 n2        1 NRM     -0.351000
     13 C7          1.0580    0.2470    2.6000 c1        1 NRM     -0.042000
     14 N7          0.0960   -1.3680   -1.0280 n2        1 NRM     -0.213000
     15 C8          3.0360    0.8250    3.8560 c1        1 NRM     -0.128000
     16 C9          0.0650    1.1820    2.7150 c1        1 NRM     -0.131000
     17 C10         1.5970   -0.4700    4.9180 c1        1 NRM     -0.128000
     18 C11        -1.6240    0.2710   -2.5750 c2        1 NRM     -0.211000
     19 C12        -2.5770   -0.0900   -3.5360 c1        1 NRM     -0.294000
     20 C13        -2.8100    0.5300   -6.2550 c3        1 NRM     -0.153000
     21 C14        -2.0960    0.4420   -4.9240 c2        1 NRM     -0.027000
     22 HN1        -2.5240    0.1910   -0.7530 hn        1 NRM      0.272000
     23 H2          2.3690   -1.7840    1.2650 ha        1 NRM      0.179000
     24 H3          1.6820   -2.6130   -0.8430 ha        1 NRM      0.179000
     25 H8          3.4640    1.3650    3.1660 DU        1 NRM      0.199200
     26 H9         -0.0500    1.8100    3.4540 DU        1 NRM      0.199200
     27 H10         0.8160   -1.0190    5.1210 DU        1 NRM      0.199200
     28 H12        -3.3990   -0.5880   -3.3680 DU        1 NRM      0.199200
     29 H13        -3.0330    1.4650   -6.4450 hc        1 NRM      0.094000
     30 H13A       -3.6330   -0.0020   -6.2190 hc        1 NRM      0.094000
     31 H13B       -2.2270    0.1830   -6.9620 hc        1 NRM      0.094000
     32 HN4         2.7040   -0.5110    6.6130 DU        1 NRM      0.199200
@<TRIPOS>BOND
     1    1   13 1   
     2    1   15 1   
     3    1   17 1   
     4    2    9 1   
     5    2   18 1   
     6    2   22 1   
     7    3   12 1   
     8    3   18 1   
     9    4    7 1   
    10    4   23 1   
    11    5   11 1   
    12    5   16 1   
    13    6   14 1   
    14    6   24 1   
    15    8   10 1   
    16    8   17 1   
    17    9   11 1   
    18    9   14 1   
    19   10   15 1   
    20   12   21 1   
    21   13   16 1   
    22   18   19 1   
    23   19   21 1   
    24   20   21 1   
    25   20   29 1   
    26   20   30 1   
    27   20   31 1   
@<TRIPOS>SUBSTRUCTURE
     1 NRM         1 TEMP              0 ****  ****    0 ROOT
