@<TRIPOS>MOLECULE
NRO
   36    31     1     0     0
SMALL
bcc


@<TRIPOS>ATOM
      1 C1          4.6200    0.0490   -0.4240 c3        1 NRO     -0.211000
      2 C2          3.8350    0.0030   -1.7170 c3        1 NRO     -0.162000
      3 C3          2.4420   -0.5230   -1.4430 c3        1 NRO     -0.114000
      4 C4          1.6800   -0.6320   -2.7450 c2        1 NRO     -0.194000
      5 C8          0.3510   -0.8620   -2.7310 c1        1 NRO      0.036000
      6 C10        -0.3770   -1.0130   -1.4130 c1        1 NRO     -0.113000
      7 C14        -1.6280   -0.5670    0.3650 c2        1 NRO      0.121000
      8 C15        -2.4330    0.1020    1.2740 c1        1 NRO     -0.107000
      9 C16        -1.8620    0.9410    2.2180 c1        1 NRO     -0.060000
     10 C17        -3.8100   -0.0410    1.2160 c1        1 NRO     -0.108000
     11 C19        -4.0460    1.4960    3.0460 c1        1 NRO     -0.122000
     12 C20        -2.6690    1.6380    3.1040 c1        1 NRO     -0.119000
     13 C21        -2.0480    2.5940    4.1000 c2        1 NRO      0.360000
     14 N5          2.3620   -0.4900   -3.9810 no        1 NRO      0.562000
     15 O6          2.8830   -1.4640   -4.5060 o         1 NRO     -0.383000
     16 O7          2.4170    0.7280   -4.5960 o         1 NRO     -0.383000
     17 O11        -1.0080   -0.0100   -0.7230 os        1 NRO     -0.100000
     18 C12        -0.6090   -2.1990   -0.7470 c1        1 NRO     -0.097000
     19 C13        -1.3790   -1.9250    0.3480 c1        1 NRO     -0.245000
     20 C18        -4.6170    0.6560    2.1020 c1        1 NRO     -0.122000
     21 O22        -1.5560    2.1540    5.1730 o         1 NRO     -0.558000
     22 O23        -2.0360    3.8310    3.8630 o         1 NRO     -0.558000
     23 H1          5.5290    0.3670   -0.6050 hc        1 NRO      0.072333
     24 H1A         4.1790    0.6580    0.2050 hc        1 NRO      0.072333
     25 H1B         4.6610   -0.8500   -0.0340 hc        1 NRO      0.072333
     26 H2          4.2880   -0.5870   -2.3520 hc        1 NRO      0.088500
     27 H2A         3.7750    0.9040   -2.0940 hc        1 NRO      0.088500
     28 H3          1.9750    0.0900   -0.8420 hc        1 NRO      0.107500
     29 H3A         2.5030   -1.4060   -1.0260 hc        1 NRO      0.107500
     30 H8         -0.1410   -0.9320   -3.5720 ha        1 NRO      0.174000
     31 H16        -0.8920    1.0410    2.2590 ha        1 NRO      0.160000
     32 H17        -4.2120   -0.6320    0.5520 ha        1 NRO      0.123000
     33 H19        -4.6140    1.9870    3.6690 ha        1 NRO      0.137000
     34 H12        -0.2800   -3.0800   -1.0110 DU        1 NRO      0.168500
     35 H13        -1.6980   -2.5740    1.0030 DU        1 NRO      0.168500
     36 H18        -5.5860    0.5490    2.0670 ha        1 NRO      0.137000
@<TRIPOS>BOND
     1    1    2 1   
     2    1   23 1   
     3    1   24 1   
     4    1   25 1   
     5    2    3 1   
     6    2   26 1   
     7    2   27 1   
     8    3    4 1   
     9    3   28 1   
    10    3   29 1   
    11    4    5 1   
    12    4   14 1   
    13    5   30 1   
    14    6   17 1   
    15    6   18 1   
    16    7    8 1   
    17    7   17 1   
    18    7   19 1   
    19    8   10 1   
    20    9   12 1   
    21    9   31 1   
    22   10   32 1   
    23   11   20 1   
    24   11   33 1   
    25   12   13 1   
    26   13   21 1   
    27   13   22 1   
    28   14   15 1   
    29   14   16 1   
    30   18   19 1   
    31   20   36 1   
@<TRIPOS>SUBSTRUCTURE
     1 NRO         1 TEMP              0 ****  ****    0 ROOT
