@<TRIPOS>MOLECULE
NRO
   36    37     1     0     0
SMALL
bcc


@<TRIPOS>ATOM
      1 C1          6.8390    1.3160   -0.2580 c3        1 NRO     -0.092100
      2 C2          5.5190    0.7660   -0.7340 c3        1 NRO     -0.083400
      3 C3          4.4770    0.8260    0.3660 c3        1 NRO     -0.037200
      4 C4          3.1780    0.2140   -0.0570 c2        1 NRO     -0.179300
      5 C8          2.7600   -0.9780    0.4170 ce        1 NRO     -0.104800
      6 C10         1.5130   -1.6380    0.2020 cc        1 NRO      0.210500
      7 C14        -0.7100   -1.7630   -0.0750 cc        1 NRO      0.410200
      8 C15        -2.0500   -1.2370   -0.1450 ca        1 NRO     -0.203500
      9 C16        -2.4080   -0.0560    0.5200 ca        1 NRO     -0.055000
     10 C17        -3.0250   -1.9600   -0.8560 ca        1 NRO     -0.121000
     11 C19        -4.6900   -0.3300   -0.2170 ca        1 NRO     -0.082000
     12 C20        -3.7320    0.3920    0.4980 ca        1 NRO     -0.134600
     13 C21        -4.1380    1.6440    1.2690 c         1 NRO      0.910200
     14 N5          2.3860    1.0240   -1.0270 no        1 NRO      0.295100
     15 O6          2.3650    2.2190   -0.8910 o         1 NRO     -0.204000
     16 O7          1.8520    0.4770   -1.9520 o         1 NRO     -0.204000
     17 O11         0.3460   -0.8640    0.0810 os        1 NRO     -0.323800
     18 C12         1.1950   -2.9890    0.1080 cd        1 NRO     -0.195300
     19 C13        -0.2220   -3.0700   -0.0820 cd        1 NRO     -0.315300
     20 C18        -4.3350   -1.4990   -0.8950 ca        1 NRO     -0.170000
     21 O22        -3.2720    2.1840    2.0110 o         1 NRO     -0.824800
     22 O23        -5.3230    2.0570    1.1280 o         1 NRO     -0.824800
     23 H1          6.7280    2.3800    0.0650 hc        1 NRO      0.033033
     24 H1A         7.2260    0.7250    0.6070 hc        1 NRO      0.033033
     25 H1B         7.5930    1.2740   -1.0800 hc        1 NRO      0.033033
     26 H2          5.1640    1.3560   -1.6200 hc        1 NRO      0.048700
     27 H2A         5.6510   -0.2960   -1.0720 hc        1 NRO      0.048700
     28 H3          4.8540    0.2820    1.2730 hc        1 NRO      0.068700
     29 H3A         4.3050    1.8970    0.6640 hc        1 NRO      0.068700
     30 H8          3.4570   -1.5470    1.0650 ha        1 NRO      0.146000
     31 H16        -1.6600    0.5310    1.0800 ha        1 NRO      0.166000
     32 H17        -2.7420   -2.8820   -1.3820 ha        1 NRO      0.110000
     33 H19        -5.7250    0.0490   -0.2310 ha        1 NRO      0.156000
     34 H12         1.8840   -3.8260    0.1640 ha        1 NRO      0.147000
     35 H13        -0.8070   -3.9780   -0.1950 ha        1 NRO      0.159000
     36 H18        -5.0940   -2.0590   -1.4600 ha        1 NRO      0.111000
@<TRIPOS>BOND
     1    1    2 1   
     2    1   23 1   
     3    1   24 1   
     4    1   25 1   
     5    2    3 1   
     6    2   26 1   
     7    2   27 1   
     8    3    4 1   
     9    3   28 1   
    10    3   29 1   
    11    4    5 2   
    12    4   14 1   
    13    5    6 1   
    14    5   30 1   
    15    6   17 1   
    16    6   18 2   
    17    7    8 1   
    18    7   17 1   
    19    7   19 2   
    20    8    9 ar  
    21    8   10 ar  
    22    9   12 ar  
    23    9   31 1   
    24   10   20 ar  
    25   10   32 1   
    26   11   12 ar  
    27   11   20 ar  
    28   11   33 1   
    29   12   13 1   
    30   13   21 1   
    31   13   22 1   
    32   14   15 1   
    33   14   16 1   
    34   18   19 1   
    35   18   34 1   
    36   19   35 1   
    37   20   36 1   
@<TRIPOS>SUBSTRUCTURE
     1 NRO         1 TEMP              0 ****  ****    0 ROOT
