@<TRIPOS>MOLECULE
NRP
   42    35     1     0     0
SMALL
bcc


@<TRIPOS>ATOM
      1 C          -1.3450   -0.2200    3.6590 c1        1 NRP      0.322000
      2 N          -2.1100   -3.0300    0.6170 n1        1 NRP     -0.245000
      3 O          -0.0860   -0.2120    3.6600 o         1 NRP     -0.570000
      4 C1         -1.0980   -0.8580    0.1360 c1        1 NRP      0.071000
      5 C2         -0.5400    1.2590    0.8230 c1        1 NRP      0.315000
      6 N2         -0.5220   -0.2770   -0.9050 n1        1 NRP     -0.199000
      7 O2         -0.3810    2.2750    1.4700 o         1 NRP     -0.317000
      8 N3         -1.1800   -0.0340    1.2740 n3        1 NRP     -0.251000
      9 OXT        -1.9750   -0.2430    4.7490 os        1 NRP     -0.548000
     10 OH          1.5150    7.3530   -0.7900 oh        1 NRP     -0.263000
     11 CZ          1.3570    5.9590   -0.9050 c2        1 NRP      0.072000
     12 CA1        -1.0350   -2.3620    0.2930 c1        1 NRP      0.092000
     13 CA2        -0.1260    0.9950   -0.6670 c1        1 NRP     -0.094000
     14 CA3        -2.1010   -0.1810    2.3490 c3        1 NRP     -0.125000
     15 CB1         0.2720   -3.0910    0.0750 c3        1 NRP     -0.154000
     16 CB2         0.4850    1.8430   -1.5180 c1        1 NRP     -0.058000
     17 CD1         1.9730    3.6970   -0.3890 c1        1 NRP     -0.044000
     18 CD2        -0.0170    4.1400   -1.6560 c1        1 NRP     -0.091000
     19 CD3         1.3240   -4.5620   -1.6080 c3        1 NRP     -0.209000
     20 CD4        -0.3560   -5.4780   -0.0450 c3        1 NRP     -0.209000
     21 CE1         2.2260    5.0580   -0.3100 c2        1 NRP     -0.214000
     22 CE2         0.2360    5.5000   -1.5780 c2        1 NRP     -0.172000
     23 CG1         0.0470   -4.2640   -0.8540 c3        1 NRP     -0.091000
     24 CG2         0.8520    3.2380   -1.0620 c1        1 NRP     -0.078000
     25 HN         -2.9000   -2.5900    0.7490 DU        1 NRP      0.135333
     26 HOH         1.3310    7.6040    0.0430 ho        1 NRP      0.214000
     27 HA3        -2.7220    0.5770    2.3520 h1        1 NRP      0.098000
     28 HA3A       -2.6030   -1.0140    2.2360 h1        1 NRP      0.098000
     29 HB1         0.9240   -2.4800   -0.3230 hc        1 NRP      0.142000
     30 HB1A        0.6120   -3.4150    0.9340 hc        1 NRP      0.142000
     31 HB2         0.6910    1.5570   -2.4280 DU        1 NRP      0.135333
     32 HD1         2.5850    3.0630    0.0300 ha        1 NRP      0.172000
     33 HD2        -0.7920    3.8150   -2.1530 DU        1 NRP      0.135333
     34 HD3         1.1850   -5.3370   -2.1930 hc        1 NRP      0.072500
     35 HD3A        1.5720   -3.7840   -2.1510 hc        1 NRP      0.072500
     36 HD3B        2.0420   -4.7580   -0.9710 hc        1 NRP      0.072500
     37 HD4        -1.3260   -5.4720    0.0910 hc        1 NRP      0.072500
     38 HD4A        0.0960   -5.4550    0.8250 hc        1 NRP      0.072500
     39 HD4B       -0.0970   -6.2910   -0.5260 hc        1 NRP      0.072500
     40 HE1         3.0240    5.3810    0.1500 ha        1 NRP      0.134000
     41 HE2        -0.3760    6.1350   -1.9970 ha        1 NRP      0.139000
     42 HG1        -0.6620   -4.0450   -1.4870 hc        1 NRP      0.085000
@<TRIPOS>BOND
     1    1    3 1   
     2    1   14 1   
     3    2   12 1   
     4    4    6 1   
     5    4    8 1   
     6    5    7 1   
     7    5    8 1   
     8    8   14 1   
     9   10   11 1   
    10   10   26 1   
    11   11   21 1   
    12   11   22 1   
    13   12   15 1   
    14   13   16 1   
    15   14   27 1   
    16   14   28 1   
    17   15   23 1   
    18   15   29 1   
    19   15   30 1   
    20   16   24 1   
    21   17   21 1   
    22   17   32 1   
    23   18   22 1   
    24   18   24 1   
    25   19   23 1   
    26   19   34 1   
    27   19   35 1   
    28   19   36 1   
    29   20   23 1   
    30   20   37 1   
    31   20   38 1   
    32   20   39 1   
    33   21   40 1   
    34   22   41 1   
    35   23   42 1   
@<TRIPOS>SUBSTRUCTURE
     1 NRP         1 TEMP              0 ****  ****    0 ROOT
