@<TRIPOS>MOLECULE
NRP
   42    43     1     0     0
SMALL
bcc


@<TRIPOS>ATOM
      1 C          -2.1760   -2.3570   -1.1480 c         1 NRP      0.898600
      2 N          -3.6430   -0.1910    2.3500 n2        1 NRP     -0.763100
      3 O          -1.9870   -1.3640   -1.9040 o         1 NRP     -0.826800
      4 C1         -1.6790    0.0560    0.9980 cc        1 NRP      0.442600
      5 C2          0.3880   -0.7830    0.5510 c         1 NRP      0.679700
      6 N2         -0.9170    1.1490    1.0630 nd        1 NRP     -0.637300
      7 O2          1.3150   -1.5670    0.3230 o         1 NRP     -0.597500
      8 N3         -0.9720   -1.1540    0.7720 n         1 NRP     -0.358300
      9 OXT        -2.8510   -3.3790   -1.4480 o         1 NRP     -0.826800
     10 CZ          5.5670    0.8520   -0.1280 ca        1 NRP      0.115100
     11 CA2         0.4270    0.7260    0.7810 cd        1 NRP      0.034400
     12 CA3        -1.5540   -2.3730    0.2790 c3        1 NRP     -0.051000
     13 CB2         1.4800    1.5670    0.7720 ce        1 NRP     -0.053200
     14 CD1         3.2400    0.3600   -0.5340 ca        1 NRP     -0.069000
     15 CD2         3.8680    1.9790    1.1510 ca        1 NRP     -0.069000
     16 CD3        -4.4730    2.1690   -1.7170 c3        1 NRP     -0.090100
     17 CD4        -5.1500    2.4530    0.6580 c3        1 NRP     -0.090100
     18 CE1         4.5830    0.1470   -0.8330 ca        1 NRP     -0.193000
     19 CE2         5.2130    1.7740    0.8710 ca        1 NRP     -0.193000
     20 CG1        -4.0970    1.8930   -0.2750 c3        1 NRP     -0.061700
     21 CG2         2.8650    1.2740    0.4610 ca        1 NRP     -0.085800
     22 HN         -4.6420   -0.1650    2.4030 hn        1 NRP      0.381400
     23 HOH         7.0080    0.0030   -1.0460 ho        1 NRP      0.414000
     24 HA3        -2.3560   -2.6840    1.0050 h1        1 NRP      0.060200
     25 HA3A       -0.7410   -3.1500    0.2780 h1        1 NRP      0.060200
     26 HB1        -3.3390   -0.0380   -0.9540 hc        1 NRP      0.098200
     27 HB1A       -4.9180   -0.1070   -0.0660 hc        1 NRP      0.098200
     28 HB2         1.2990    2.6280    1.0390 ha        1 NRP      0.135000
     29 HD1         2.4640   -0.2060   -1.0770 ha        1 NRP      0.150000
     30 HD2         3.5830    2.7010    1.9310 ha        1 NRP      0.150000
     31 HD3        -5.4340    1.6630   -1.9750 hc        1 NRP      0.029700
     32 HD3A       -4.5940    3.2670   -1.8810 hc        1 NRP      0.029700
     33 HD3B       -3.6780    1.7870   -2.4030 hc        1 NRP      0.029700
     34 HD4        -6.1380    1.9650    0.4760 hc        1 NRP      0.029700
     35 HD4A       -4.8610    2.2830    1.7230 hc        1 NRP      0.029700
     36 HD4B       -5.2650    3.5510    0.4940 hc        1 NRP      0.029700
     37 HE1         4.8660   -0.5760   -1.6100 ha        1 NRP      0.135500
     38 HE2         5.9990    2.3160    1.4130 ha        1 NRP      0.135500
     39 HG1        -3.1170    2.4060   -0.0600 hc        1 NRP      0.071700
     40 OH          6.9150    0.6910   -0.3720 oh        1 NRP     -0.510100
     41 CB1        -3.9140    0.3950   -0.0780 c3        1 NRP     -0.197700
     42 CA1        -3.1660    0.0720    1.1880 ce        1 NRP      0.435000
@<TRIPOS>BOND
     1    1    3 1   
     2    1    9 1   
     3    1   12 1   
     4    2   22 1   
     5    2   42 2   
     6    4    6 2   
     7    4    8 1   
     8    4   42 1   
     9    5    7 2   
    10    5    8 1   
    11    5   11 1   
    12    6   11 1   
    13    8   12 1   
    14   10   18 ar  
    15   10   19 ar  
    16   10   40 1   
    17   11   13 2   
    18   12   24 1   
    19   12   25 1   
    20   13   21 1   
    21   13   28 1   
    22   14   18 ar  
    23   14   21 ar  
    24   14   29 1   
    25   15   19 ar  
    26   15   21 ar  
    27   15   30 1   
    28   16   20 1   
    29   16   31 1   
    30   16   32 1   
    31   16   33 1   
    32   17   20 1   
    33   17   34 1   
    34   17   35 1   
    35   17   36 1   
    36   18   37 1   
    37   19   38 1   
    38   20   39 1   
    39   20   41 1   
    40   23   40 1   
    41   26   41 1   
    42   27   41 1   
    43   41   42 1   
@<TRIPOS>SUBSTRUCTURE
     1 NRP         1 TEMP              0 ****  ****    0 ROOT
