@<TRIPOS>MOLECULE
NRQ
   40    41     1     0     0
SMALL
bcc


@<TRIPOS>ATOM
      1 N1         -2.4450    0.7420    2.2150 n2        1 NRQ     -0.756100
      2 CE         -4.4930    2.7490   -2.2590 c3        1 NRQ     -0.036000
      3 SD         -3.7960    3.7610   -1.0080 ss        1 NRQ     -0.330200
      4 CG1        -3.4180    2.6130    0.2870 c3        1 NRQ      0.006700
      5 CB1        -2.2100    1.7640   -0.0110 c3        1 NRQ     -0.121700
      6 CA1        -1.9040    0.7460    1.0610 ce        1 NRQ      0.406000
      7 C1         -0.8570   -0.2190    0.5760 cc        1 NRQ      0.388600
      8 N2          0.4130    0.1330    0.3580 nd        1 NRQ     -0.632300
      9 CD2         3.4600    0.8560    0.3930 ca        1 NRQ     -0.072000
     10 CE2         4.5040    1.7760    0.3450 ca        1 NRQ     -0.195000
     11 CZ          5.5240    1.6160   -0.6010 ca        1 NRQ      0.115100
     12 CE1         5.5100    0.5340   -1.4960 ca        1 NRQ     -0.195000
     13 CD1         4.4630   -0.3770   -1.4320 ca        1 NRQ     -0.072000
     14 CG2         3.4220   -0.2270   -0.4970 ca        1 NRQ     -0.075800
     15 CA2         1.0820   -1.0370   -0.1090 cd        1 NRQ      0.029400
     16 C2          0.0530   -2.1680   -0.1660 c         1 NRQ      0.667700
     17 O2          0.2200   -3.3260   -0.5560 o         1 NRQ     -0.592500
     18 N3         -1.1780   -1.5610    0.2250 n         1 NRQ     -0.364300
     19 CA3        -2.2840   -2.3060    0.7640 c3        1 NRQ     -0.056000
     20 C3         -2.3080   -2.5610    2.3010 c         1 NRQ      0.903600
     21 O3         -1.5340   -1.8990    3.0500 o         1 NRQ     -0.823300
     22 OXT        -3.1410   -3.4180    2.6910 o         1 NRQ     -0.823300
     23 H2         -2.1770    0.0140    2.8570 hn        1 NRQ      0.474400
     24 HE1A       -3.7550    2.0200   -2.6630 h1        1 NRQ      0.059033
     25 HE2A       -5.3780    2.1850   -1.8880 h1        1 NRQ      0.059033
     26 HE3        -4.8110    3.4350   -3.0760 h1        1 NRQ      0.059033
     27 HG11       -3.2350    3.2520    1.1890 h1        1 NRQ      0.084700
     28 HG12       -4.3050    1.9670    0.4980 h1        1 NRQ      0.084700
     29 HB11       -2.3670    1.2100   -0.9770 hc        1 NRQ      0.065700
     30 HB12       -1.3020    2.4150   -0.1360 hc        1 NRQ      0.065700
     31 HOH         6.4590    3.1830   -0.0420 ho        1 NRQ      0.414000
     32 HD2         2.6650    0.9830    1.1450 ha        1 NRQ      0.150500
     33 HE2         4.5250    2.6230    1.0450 ha        1 NRQ      0.135000
     34 HE1         6.3200    0.4230   -2.2280 ha        1 NRQ      0.135000
     35 HD1         4.4450   -1.2300   -2.1280 ha        1 NRQ      0.150500
     36 HB2         2.6490   -2.2270   -0.8290 ha        1 NRQ      0.142000
     37 HA31       -3.2280   -1.7540    0.4980 h1        1 NRQ      0.058200
     38 HA32       -2.2880   -3.3080    0.2520 h1        1 NRQ      0.058200
     39 CB2         2.3630   -1.2160   -0.4790 ce        1 NRQ     -0.056200
     40 OH          6.5850    2.4900   -0.7050 oh        1 NRQ     -0.508100
@<TRIPOS>BOND
     1    1    6 2   
     2    1   23 1   
     3    2    3 1   
     4    2   24 1   
     5    2   25 1   
     6    2   26 1   
     7    3    4 1   
     8    4    5 1   
     9    4   27 1   
    10    4   28 1   
    11    5    6 1   
    12    5   29 1   
    13    5   30 1   
    14    6    7 1   
    15    7    8 2   
    16    7   18 1   
    17    8   15 1   
    18    9   10 ar  
    19    9   14 ar  
    20    9   32 1   
    21   10   11 ar  
    22   10   33 1   
    23   11   12 ar  
    24   11   40 1   
    25   12   13 ar  
    26   12   34 1   
    27   13   14 ar  
    28   13   35 1   
    29   14   39 1   
    30   15   16 1   
    31   15   39 2   
    32   16   17 2   
    33   16   18 1   
    34   18   19 1   
    35   19   20 1   
    36   19   37 1   
    37   19   38 1   
    38   20   21 1   
    39   20   22 1   
    40   31   40 1   
    41   36   39 1   
@<TRIPOS>SUBSTRUCTURE
     1 NRQ         1 TEMP              0 ****  ****    0 ROOT
