@<TRIPOS>MOLECULE
NRT
   30    32     1     0     0
SMALL
bcc


@<TRIPOS>ATOM
      1 C2          0.1930    0.6810   -0.1270 ca        1 NRT      0.918900
      2 C4          1.7530   -0.5290    1.0380 ca        1 NRT      0.478800
      3 C5          0.9670   -0.4270    2.2680 ca        1 NRT     -0.222200
      4 C4'        -2.8230    1.0820    4.6260 c3        1 NRT      0.135100
      5 O4'        -3.9060    2.0200    4.6670 os        1 NRT     -0.420600
      6 C3'        -4.8730   -0.1360    5.1150 c3        1 NRT     -0.109400
      7 C2'        -3.3600   -0.2900    5.0370 c3        1 NRT     -0.101400
      8 N9          2.8890   -1.2650    1.3920 na        1 NRT     -0.386000
      9 N3          1.3950   -0.0040   -0.1640 nb        1 NRT     -0.781000
     10 N2         -0.1950    1.3470   -1.2920 nv        1 NRT     -0.929500
     11 N1         -0.6570    0.8210    0.9780 nb        1 NRT     -0.836000
     12 C6         -0.2590    0.2830    2.1470 ca        1 NRT      0.760600
     13 O6         -1.0160    0.3730    3.2840 os        1 NRT     -0.422100
     14 C60        -2.2560    1.1000    3.2020 c3        1 NRT      0.116400
     15 C14        -5.1540    1.3330    4.8140 c3        1 NRT      0.124400
     16 N7          1.6270   -1.0830    3.3170 nc        1 NRT     -0.501100
     17 C8          2.7530   -1.5620    2.7700 cd        1 NRT      0.386700
     18 H4'        -2.0500    1.4650    5.3460 h1        1 NRT      0.081700
     19 H3'1       -5.2520   -0.4110    6.1300 hc        1 NRT      0.052700
     20 H3'2       -5.3840   -0.7960    4.3720 hc        1 NRT      0.052700
     21 H2'1       -3.0620   -1.0700    4.2950 hc        1 NRT      0.062700
     22 H2'2       -2.9370   -0.5870    6.0290 hc        1 NRT      0.062700
     23 H9          3.6380   -1.5040    0.7980 hn        1 NRT      0.316700
     24 H2N1       -1.1440    1.6300   -1.3550 hn        1 NRT      0.431300
     25 H2N2        0.2460    1.0690   -2.1380 hn        1 NRT      0.431300
     26 H601       -2.0640    2.1540    2.8750 h1        1 NRT      0.064200
     27 H602       -2.9440    0.5920    2.4800 h1        1 NRT      0.064200
     28 H141       -5.6940    1.8480    5.6490 h1        1 NRT      0.046700
     29 H142       -5.7250    1.4640    3.8590 h1        1 NRT      0.046700
     30 H8          3.5220   -2.1360    3.3010 h5        1 NRT      0.072800
@<TRIPOS>BOND
     1    1    9 ar  
     2    1   10 1   
     3    1   11 ar  
     4    2    3 ar  
     5    2    8 1   
     6    2    9 ar  
     7    3   12 ar  
     8    3   16 1   
     9    4    5 1   
    10    4    7 1   
    11    4   14 1   
    12    4   18 1   
    13    5   15 1   
    14    6    7 1   
    15    6   15 1   
    16    6   19 1   
    17    6   20 1   
    18    7   21 1   
    19    7   22 1   
    20    8   17 1   
    21    8   23 1   
    22   10   24 1   
    23   10   25 1   
    24   11   12 ar  
    25   12   13 1   
    26   13   14 1   
    27   14   26 1   
    28   14   27 1   
    29   15   28 1   
    30   15   29 1   
    31   16   17 2   
    32   17   30 1   
@<TRIPOS>SUBSTRUCTURE
     1 NRT         1 TEMP              0 ****  ****    0 ROOT
