@<TRIPOS>MOLECULE
NRT
   31    33     1     0     0
SMALL
bcc


@<TRIPOS>ATOM
      1 C2          0.2180    0.2950   -0.1500 ca        1 NRT      0.731900
      2 C4          2.0250   -0.1460    1.1390 ca        1 NRT      0.416800
      3 C5          1.1580   -0.2800    2.3160 ca        1 NRT     -0.119200
      4 C4'        -2.9950    0.1040    4.4630 c3        1 NRT      0.131100
      5 O4'        -3.0030    1.4850    4.8390 os        1 NRT     -0.422600
      6 C3'        -5.2400    0.6770    5.2060 c3        1 NRT     -0.109400
      7 C2'        -4.4180   -0.4470    4.5920 c3        1 NRT     -0.100400
      8 N9          3.3210   -0.3740    1.6050 na        1 NRT     -0.343000
      9 N3          1.5690    0.1460   -0.1180 nb        1 NRT     -0.671000
     10 N2         -0.3580    0.6210   -1.4930 n4        1 NRT     -0.814300
     11 N1         -0.7180    0.1980    0.8580 nb        1 NRT     -0.794000
     12 C6         -0.2420   -0.0840    2.1000 ca        1 NRT      0.775600
     13 O6         -1.0430   -0.1980    3.1830 os        1 NRT     -0.381100
     14 C60        -2.4690    0.0180    3.0270 c3        1 NRT      0.119400
     15 C14        -4.3050    1.8770    5.2960 c3        1 NRT      0.123400
     16 N7          1.9290   -0.5800    3.4370 nc        1 NRT     -0.483100
     17 C8          3.1990   -0.6290    2.9860 cd        1 NRT      0.452700
     18 H4'        -2.2800   -0.4150    5.1620 h1        1 NRT      0.090700
     19 H3'1       -6.1330    0.9140    4.5760 hc        1 NRT      0.065200
     20 H3'2       -5.6110    0.3900    6.2220 hc        1 NRT      0.065200
     21 H2'1       -4.4210   -1.3540    5.2450 hc        1 NRT      0.061200
     22 H2'2       -4.8330   -0.7450    3.5970 hc        1 NRT      0.061200
     23 H9          4.1510   -0.3560    1.0650 hn        1 NRT      0.341700
     24 H2N1       -1.0340   -0.1070   -1.7510 hn        1 NRT      0.478800
     25 H2N2       -0.8360    1.5280   -1.4370 hn        1 NRT      0.478800
     26 H601       -2.6570    0.9740    2.4780 h1        1 NRT      0.071200
     27 H602       -2.8890   -0.8610    2.4760 h1        1 NRT      0.071200
     28 H141       -4.1770    2.2410    6.3480 h1        1 NRT      0.057200
     29 H142       -4.6340    2.7240    4.6410 h1        1 NRT      0.057200
     30 H8          4.0820   -0.8430    3.6110 h5        1 NRT      0.108800
     31 H23         0.3900    0.6660   -2.1980 hn        1 NRT      0.478800
@<TRIPOS>BOND
     1    1    9 ar  
     2    1   10 1   
     3    1   11 ar  
     4    2    3 ar  
     5    2    8 1   
     6    2    9 ar  
     7    3   12 ar  
     8    3   16 1   
     9    4    5 1   
    10    4    7 1   
    11    4   14 1   
    12    4   18 1   
    13    5   15 1   
    14    6    7 1   
    15    6   15 1   
    16    6   19 1   
    17    6   20 1   
    18    7   21 1   
    19    7   22 1   
    20    8   17 1   
    21    8   23 1   
    22   10   24 1   
    23   10   25 1   
    24   10   31 1   
    25   11   12 ar  
    26   12   13 1   
    27   13   14 1   
    28   14   26 1   
    29   14   27 1   
    30   15   28 1   
    31   15   29 1   
    32   16   17 2   
    33   17   30 1   
@<TRIPOS>SUBSTRUCTURE
     1 NRT         1 TEMP              0 ****  ****    0 ROOT
