@<TRIPOS>MOLECULE
NRT
   30    32     1     0     0
SMALL
bcc


@<TRIPOS>ATOM
      1 C2          0.1760    0.7000   -0.1340 ca        1 NRT      0.918900
      2 C4          1.7510   -0.5020    1.0210 ca        1 NRT      0.478800
      3 C5          0.9700   -0.4070    2.2550 ca        1 NRT     -0.222200
      4 C4'        -2.8180    1.0700    4.6350 c3        1 NRT      0.135100
      5 O4'        -3.9080    2.0010    4.6830 os        1 NRT     -0.420600
      6 C3'        -4.8580   -0.1620    5.1300 c3        1 NRT     -0.109400
      7 C2'        -3.3440   -0.3060    5.0450 c3        1 NRT     -0.101400
      8 N9          2.8940   -1.2300    1.3670 na        1 NRT     -0.386000
      9 N3          1.3830    0.0230   -0.1790 nb        1 NRT     -0.781000
     10 N2         -0.2220    1.3650   -1.2970 nh        1 NRT     -0.929500
     11 N1         -0.6690    0.8320    0.9750 nb        1 NRT     -0.836000
     12 C6         -0.2610    0.2940    2.1410 ca        1 NRT      0.760600
     13 O6         -1.0130    0.3780    3.2820 os        1 NRT     -0.422100
     14 C60        -2.2580    1.0960    3.2080 c3        1 NRT      0.116400
     15 C14        -5.1500    1.3050    4.8330 c3        1 NRT      0.124400
     16 N7          1.6400   -1.0600    3.2980 nc        1 NRT     -0.501100
     17 C8          2.7670   -1.5310    2.7450 cd        1 NRT      0.386700
     18 H4'        -2.0450    1.4570    5.3520 h1        1 NRT      0.081700
     19 H3'1       -5.2300   -0.4440    6.1450 hc        1 NRT      0.052700
     20 H3'2       -5.3670   -0.8240    4.3870 hc        1 NRT      0.052700
     21 H2'1       -3.0430   -1.0830    4.3000 hc        1 NRT      0.062700
     22 H2'2       -2.9150   -0.6020    6.0340 hc        1 NRT      0.062700
     23 H9          3.6400   -1.4630    0.7690 hn        1 NRT      0.316700
     24 H2N1        0.2160    1.0920   -2.1450 hn        1 NRT      0.431300
     25 H2N2       -1.1740    1.6420   -1.3540 hn        1 NRT      0.431300
     26 H601       -2.9460    0.5850    2.4890 h1        1 NRT      0.064200
     27 H602       -2.0750    2.1520    2.8820 h1        1 NRT      0.064200
     28 H141       -5.7260    1.4340    3.8810 h1        1 NRT      0.046700
     29 H142       -5.6900    1.8140    5.6720 h1        1 NRT      0.046700
     30 H8          3.5420   -2.1000    3.2710 h5        1 NRT      0.072800
@<TRIPOS>BOND
     1    1    9 ar  
     2    1   10 1   
     3    1   11 ar  
     4    2    3 ar  
     5    2    8 1   
     6    2    9 ar  
     7    3   12 ar  
     8    3   16 1   
     9    4    5 1   
    10    4    7 1   
    11    4   14 1   
    12    4   18 1   
    13    5   15 1   
    14    6    7 1   
    15    6   15 1   
    16    6   19 1   
    17    6   20 1   
    18    7   21 1   
    19    7   22 1   
    20    8   17 1   
    21    8   23 1   
    22   10   24 1   
    23   10   25 1   
    24   11   12 ar  
    25   12   13 1   
    26   13   14 1   
    27   14   26 1   
    28   14   27 1   
    29   15   28 1   
    30   15   29 1   
    31   16   17 2   
    32   17   30 1   
@<TRIPOS>SUBSTRUCTURE
     1 NRT         1 TEMP              0 ****  ****    0 ROOT
