@<TRIPOS>MOLECULE
NRT
   30    32     1     0     0
SMALL
bcc


@<TRIPOS>ATOM
      1 C2          1.8050   -0.8150   -2.1260 ca        1 NRT      0.916900
      2 C4          0.0840    0.4360   -2.9820 ca        1 NRT      0.477800
      3 C5         -0.5420    0.5430   -1.6640 ca        1 NRT     -0.221200
      4 C4'        -0.6720   -0.4800    2.9340 c3        1 NRT      0.135100
      5 O4'        -0.2350   -1.3730    3.9680 os        1 NRT     -0.420600
      6 C3'         0.1360    0.8510    4.8050 c3        1 NRT     -0.109400
      7 C2'        -0.5850    0.9510    3.4680 c3        1 NRT     -0.101400
      8 N9         -0.7550    1.1490   -3.8440 na        1 NRT     -0.385000
      9 N3          1.2370   -0.2370   -3.2470 nb        1 NRT     -0.780000
     10 N2          3.0510   -1.4290   -2.2880 nh        1 NRT     -0.926500
     11 N1          1.2870   -0.8030   -0.8240 nb        1 NRT     -0.835000
     12 C6          0.1410   -0.1290   -0.6120 ca        1 NRT      0.760600
     13 O6         -0.4420   -0.0540    0.6250 os        1 NRT     -0.422100
     14 C60         0.2250   -0.7190    1.7140 c3        1 NRT      0.116400
     15 C14         0.3770   -0.6380    5.0340 c3        1 NRT      0.124400
     16 N7         -1.7160    1.3030   -1.7500 nc        1 NRT     -0.501100
     17 C8         -1.8130    1.6450   -3.0430 cd        1 NRT      0.386700
     18 H4'        -1.7280   -0.7760    2.6920 h1        1 NRT      0.080700
     19 H3'1        1.1040    1.4090    4.7830 hc        1 NRT      0.053200
     20 H3'2       -0.4850    1.2820    5.6280 hc        1 NRT      0.053200
     21 H2'1       -0.0350    1.6080    2.7500 hc        1 NRT      0.062700
     22 H2'2       -1.6110    1.3750    3.5970 hc        1 NRT      0.062700
     23 H9         -0.6210    1.2830   -4.8100 hn        1 NRT      0.316700
     24 H2N1        3.3390   -2.0530   -1.5710 hn        1 NRT      0.429300
     25 H2N2        3.3120   -1.6690   -3.2160 hn        1 NRT      0.429300
     26 H601        0.3050   -1.8160    1.5020 h1        1 NRT      0.064200
     27 H602        1.2430   -0.2790    1.8610 h1        1 NRT      0.064200
     28 H141        1.4690   -0.8910    5.0330 h1        1 NRT      0.047200
     29 H142       -0.0960   -1.0110    5.9780 h1        1 NRT      0.047200
     30 H8         -2.6170    2.2470   -3.4810 h5        1 NRT      0.072800
@<TRIPOS>BOND
     1    1    9 ar  
     2    1   10 1   
     3    1   11 ar  
     4    2    3 ar  
     5    2    8 1   
     6    2    9 ar  
     7    3   12 ar  
     8    3   16 1   
     9    4    5 1   
    10    4    7 1   
    11    4   14 1   
    12    4   18 1   
    13    5   15 1   
    14    6    7 1   
    15    6   15 1   
    16    6   19 1   
    17    6   20 1   
    18    7   21 1   
    19    7   22 1   
    20    8   17 1   
    21    8   23 1   
    22   10   24 1   
    23   10   25 1   
    24   11   12 ar  
    25   12   13 1   
    26   13   14 1   
    27   14   26 1   
    28   14   27 1   
    29   15   28 1   
    30   15   29 1   
    31   16   17 2   
    32   17   30 1   
@<TRIPOS>SUBSTRUCTURE
     1 NRT         1 TEMP              0 ****  ****    0 ROOT
