@<TRIPOS>MOLECULE
NRT
   30    25     1     0     0
SMALL
bcc


@<TRIPOS>ATOM
      1 C2          0.9370   -0.0690   -3.1740 c1        1 NRT      0.198000
      2 C4          2.9930   -0.1070   -1.9980 c1        1 NRT     -0.072000
      3 C5          2.3310    0.0740   -0.8370 c1        1 NRT     -0.072000
      4 C4'        -1.4950   -0.6660    1.6730 c3        1 NRT      0.024000
      5 O4'        -1.2040   -0.0900    3.1250 os        1 NRT     -0.277000
      6 C3'        -3.3240    0.3160    2.5010 c3        1 NRT     -0.188000
      7 C2'        -2.7740   -0.7490    1.5640 c3        1 NRT     -0.180000
      8 N9          4.3240   -0.1850   -1.7160 n1        1 NRT     -0.153500
      9 N3          2.3020   -0.1800   -3.1730 n1        1 NRT     -0.254000
     10 N2          0.3950   -0.1970   -4.4940 n2        1 NRT     -0.324000
     11 N1          0.2580    0.1160   -1.9890 n2        1 NRT     -0.309000
     12 C6          0.9300    0.1880   -0.8400 c1        1 NRT      0.262000
     13 O6          0.4660    0.0770    0.4800 os        1 NRT     -0.180000
     14 C60        -0.9400    0.2810    0.6160 c3        1 NRT     -0.034000
     15 C14        -2.1230    0.7730    3.3550 c3        1 NRT     -0.026000
     16 N7          3.2500    0.1090    0.1720 n1        1 NRT     -0.153500
     17 C8          4.4790   -0.0510   -0.3750 c1        1 NRT     -0.069000
     18 H4'        -1.0980   -1.5410    1.5760 h1        1 NRT      0.120000
     19 H3'1       -3.6830    1.0660    1.9850 hc        1 NRT      0.092500
     20 H3'2       -4.0110   -0.0590    3.0650 hc        1 NRT      0.092500
     21 H2'1       -3.0600   -0.5590    0.6130 hc        1 NRT      0.102000
     22 H2'2       -3.0790   -1.6350    1.8400 hc        1 NRT      0.102000
     23 H9          4.9720   -0.3030   -2.3040 DU        1 NRT      0.234500
     24 H2N1       -0.4580   -0.0150   -4.6410 hn        1 NRT      0.224500
     25 H2N2        0.9540   -0.3990   -5.2070 hn        1 NRT      0.224500
     26 H601       -1.3810    0.1040   -0.2490 h1        1 NRT      0.103500
     27 H602       -1.1180    1.2470    0.8980 h1        1 NRT      0.103500
     28 H141       -1.8260    1.6680    3.0800 h1        1 NRT      0.086500
     29 H142       -2.3720    0.7690    4.3410 h1        1 NRT      0.086500
     30 H8          5.3550    0.0160    0.1130 DU        1 NRT      0.234500
@<TRIPOS>BOND
     1    1    9 1   
     2    1   11 1   
     3    2    3 1   
     4    4    5 1   
     5    4    7 1   
     6    4   14 1   
     7    4   18 1   
     8    5   15 1   
     9    6    7 1   
    10    6   15 1   
    11    6   19 1   
    12    6   20 1   
    13    7   21 1   
    14    7   22 1   
    15    8   17 1   
    16   10   24 1   
    17   10   25 1   
    18   11   12 1   
    19   12   13 1   
    20   13   14 1   
    21   14   26 1   
    22   14   27 1   
    23   15   28 1   
    24   15   29 1   
    25   16   17 1   
@<TRIPOS>SUBSTRUCTURE
     1 NRT         1 TEMP              0 ****  ****    0 ROOT
