@<TRIPOS>MOLECULE
NS1
  100   100     1     0     0
SMALL
bcc


@<TRIPOS>ATOM
      1 C1          3.8630   -1.8280   -0.0070 c3        1 NS1     -0.067700
      2 CM1         4.1090   -0.6060    0.8520 c3        1 NS1     -0.089600
      3 CM2         3.7070   -3.0560    0.8670 c3        1 NS1     -0.089600
      4 C2          2.6340   -1.6530   -0.8880 c3        1 NS1     -0.076400
      5 C3          2.8910   -0.7240   -2.0550 c3        1 NS1     -0.075400
      6 C4          1.6570   -0.5990   -2.9300 c3        1 NS1     -0.041200
      7 C5          1.8770    0.3400   -4.0660 c2        1 NS1     -0.121400
      8 C6          1.8490    1.7860   -3.7430 c3        1 NS1     -0.058900
      9 C7          2.0670   -0.1090   -5.3180 c2        1 NS1     -0.176200
     10 C8          2.2810    0.7820   -6.4810 c3        1 NS1     -0.041200
     11 C9          2.2790    0.0130   -7.7910 c3        1 NS1     -0.043200
     12 C10         2.4690    0.9190   -8.9620 c2        1 NS1     -0.050400
     13 C11         1.2630    1.6620   -9.4090 c3        1 NS1     -0.057900
     14 C12         3.6290    1.0440   -9.5780 cu        1 NS1     -0.185400
     15 C13         4.4040    1.6920  -10.6370 cx        1 NS1     -0.083200
     16 C14         5.0570    0.7050   -9.6810 cx        1 NS1     -0.043300
     17 C15         5.5240   -0.6100  -10.1550 c2        1 NS1     -0.072400
     18 C16         4.8500   -1.7930   -9.5660 c3        1 NS1     -0.060900
     19 C17         6.5340   -0.7530  -11.0360 ce        1 NS1     -0.145000
     20 C18         7.2550    0.3420  -11.6450 ce        1 NS1     -0.123000
     21 C19         8.3330    0.2080  -12.4340 cf        1 NS1     -0.131000
     22 C20         8.9980   -1.0240  -12.8070 cf        1 NS1     -0.131000
     23 C21         8.4780   -2.0370  -13.5270 ce        1 NS1     -0.079200
     24 C22         7.0940   -2.0310  -14.0670 c3        1 NS1     -0.062900
     25 C23         9.2590   -3.2130  -13.8830 ce        1 NS1     -0.125000
     26 C24        10.1570   -3.8530  -13.1130 cf        1 NS1     -0.126000
     27 C25        10.4730   -3.5180  -11.7460 cf        1 NS1     -0.134000
     28 C26        11.6140   -3.8420  -11.0960 ce        1 NS1     -0.070200
     29 C27        12.7490   -4.5530  -11.7350 c3        1 NS1     -0.061900
     30 C28        11.7610   -3.4770   -9.6950 ce        1 NS1     -0.127000
     31 C29        12.8030   -3.8200   -8.9160 cf        1 NS1     -0.124000
     32 C30        12.8960   -3.4320   -7.5270 cf        1 NS1     -0.147000
     33 C31        13.9120   -3.7660   -6.7070 c2        1 NS1     -0.100400
     34 C32        15.0690   -4.5810   -7.1460 c3        1 NS1     -0.063900
     35 C33        13.9300   -3.3060   -5.2880 c3        1 NS1     -0.043200
     36 C34        13.6450   -4.4460   -4.3270 c3        1 NS1     -0.042200
     37 C35        13.7070   -4.0080   -2.9140 c2        1 NS1     -0.179200
     38 C36        13.3690   -4.7970   -1.8810 c2        1 NS1     -0.122400
     39 CM3        12.8910   -6.1870   -2.0720 c3        1 NS1     -0.058400
     40 CM4        13.4490   -4.3250   -0.4780 c3        1 NS1     -0.058400
     41 H1          4.7600   -1.9800   -0.6740 hc        1 NS1      0.046700
     42 HM11        3.2390   -0.4190    1.5270 hc        1 NS1      0.033033
     43 HM12        4.2610    0.2980    0.2140 hc        1 NS1      0.033033
     44 HM13        5.0190   -0.7520    1.4810 hc        1 NS1      0.033033
     45 HM21        4.6010   -3.1820    1.5230 hc        1 NS1      0.033033
     46 HM22        2.8030   -2.9620    1.5150 hc        1 NS1      0.033033
     47 HM23        3.5970   -3.9720    0.2380 hc        1 NS1      0.033033
     48 H21         1.7860   -1.2570   -0.2690 hc        1 NS1      0.039200
     49 H22         2.3180   -2.6550   -1.2810 hc        1 NS1      0.039200
     50 H31         3.7460   -1.1130   -2.6680 hc        1 NS1      0.043200
     51 H32         3.1880    0.2900   -1.6780 hc        1 NS1      0.043200
     52 H41         0.7970   -0.2290   -2.3090 hc        1 NS1      0.044200
     53 H42         1.3750   -1.6160   -3.3140 hc        1 NS1      0.044200
     54 H61         0.9010    2.2450   -4.1250 hc        1 NS1      0.041033
     55 H62         1.9040    1.9580   -2.6400 hc        1 NS1      0.041033
     56 H63         2.7080    2.3160   -4.2270 hc        1 NS1      0.041033
     57 H7          2.0760   -1.1910   -5.5280 ha        1 NS1      0.122000
     58 H81         3.2630    1.3190   -6.3650 hc        1 NS1      0.050200
     59 H82         1.4810    1.5720   -6.5050 hc        1 NS1      0.050200
     60 H91         1.3020   -0.5300   -7.9020 hc        1 NS1      0.049700
     61 H92         3.0930   -0.7600   -7.7670 hc        1 NS1      0.049700
     62 H111        0.8340    2.2460   -8.5580 hc        1 NS1      0.044033
     63 H112        0.4850    0.9430   -9.7690 hc        1 NS1      0.044033
     64 H113        1.5040    2.3680  -10.2410 hc        1 NS1      0.044033
     65 H12         4.6550    2.7650  -10.5480 hc        1 NS1      0.076700
     66 H13         4.2420    1.3910  -11.6890 hc        1 NS1      0.076700
     67 H14         5.7360    1.1200   -8.9020 hc        1 NS1      0.090700
     68 H161        5.2230   -2.7460  -10.0140 hc        1 NS1      0.045367
     69 H162        3.7450   -1.7270   -9.7350 hc        1 NS1      0.045367
     70 H163        5.0340   -1.8260   -8.4630 hc        1 NS1      0.045367
     71 H17         6.8620   -1.7660  -11.3360 ha        1 NS1      0.132000
     72 H18         6.8740    1.3540  -11.4150 ha        1 NS1      0.126000
     73 H19         8.8270    1.1160  -12.8300 ha        1 NS1      0.126000
     74 H20        10.0560   -1.0740  -12.4840 ha        1 NS1      0.136000
     75 H221        6.5320   -2.9230  -13.6940 hc        1 NS1      0.046033
     76 H222        7.1190   -2.0750  -15.1850 hc        1 NS1      0.046033
     77 H223        6.5420   -1.1090  -13.7570 hc        1 NS1      0.046033
     78 H23         9.0550   -3.5980  -14.8990 ha        1 NS1      0.124000
     79 H24        10.6780   -4.7330  -13.5330 ha        1 NS1      0.124000
     80 H25         9.6840   -2.9600  -11.2050 ha        1 NS1      0.132000
     81 H271       12.8680   -5.5690  -11.2820 hc        1 NS1      0.044033
     82 H272       12.6040   -4.6720  -12.8360 hc        1 NS1      0.044033
     83 H273       13.6990   -3.9830  -11.5740 hc        1 NS1      0.044033
     84 H28        10.9330   -2.8780   -9.2730 ha        1 NS1      0.124000
     85 H29        13.6390   -4.4210   -9.3150 ha        1 NS1      0.124000
     86 H30        12.0610   -2.8190   -7.1410 ha        1 NS1      0.124000
     87 H321       14.7260   -5.5730   -7.5340 hc        1 NS1      0.043700
     88 H322       15.6240   -4.0600   -7.9660 hc        1 NS1      0.043700
     89 H323       15.7810   -4.7630   -6.3030 hc        1 NS1      0.043700
     90 H331       14.9380   -2.8660   -5.0590 hc        1 NS1      0.048200
     91 H332       13.1710   -2.4930   -5.1300 hc        1 NS1      0.048200
     92 H341       12.6300   -4.8770   -4.5460 hc        1 NS1      0.050200
     93 H342       14.3890   -5.2740   -4.4950 hc        1 NS1      0.050200
     94 H351       14.0560   -2.9770   -2.7400 ha        1 NS1      0.122000
     95 HM31       12.7890   -6.7210   -1.0960 hc        1 NS1      0.040700
     96 HM32       13.6020   -6.7610   -2.7180 hc        1 NS1      0.040700
     97 HM33       11.8930   -6.1850   -2.5790 hc        1 NS1      0.040700
     98 HM41       12.4460   -4.4070    0.0120 hc        1 NS1      0.040700
     99 HM42       14.1700   -4.9560    0.0990 hc        1 NS1      0.040700
    100 HM43       13.7850   -3.2610   -0.4180 hc        1 NS1      0.040700
@<TRIPOS>BOND
     1    1    2 1   
     2    1    3 1   
     3    1    4 1   
     4    1   41 1   
     5    2   42 1   
     6    2   43 1   
     7    2   44 1   
     8    3   45 1   
     9    3   46 1   
    10    3   47 1   
    11    4    5 1   
    12    4   48 1   
    13    4   49 1   
    14    5    6 1   
    15    5   50 1   
    16    5   51 1   
    17    6    7 1   
    18    6   52 1   
    19    6   53 1   
    20    7    8 1   
    21    7    9 2   
    22    8   54 1   
    23    8   55 1   
    24    8   56 1   
    25    9   10 1   
    26    9   57 1   
    27   10   11 1   
    28   10   58 1   
    29   10   59 1   
    30   11   12 1   
    31   11   60 1   
    32   11   61 1   
    33   12   13 1   
    34   12   14 2   
    35   13   62 1   
    36   13   63 1   
    37   13   64 1   
    38   14   15 1   
    39   14   16 1   
    40   15   16 1   
    41   15   65 1   
    42   15   66 1   
    43   16   17 1   
    44   16   67 1   
    45   17   18 1   
    46   17   19 2   
    47   18   68 1   
    48   18   69 1   
    49   18   70 1   
    50   19   20 1   
    51   19   71 1   
    52   20   21 2   
    53   20   72 1   
    54   21   22 1   
    55   21   73 1   
    56   22   23 2   
    57   22   74 1   
    58   23   24 1   
    59   23   25 1   
    60   24   75 1   
    61   24   76 1   
    62   24   77 1   
    63   25   26 2   
    64   25   78 1   
    65   26   27 1   
    66   26   79 1   
    67   27   28 2   
    68   27   80 1   
    69   28   29 1   
    70   28   30 1   
    71   29   81 1   
    72   29   82 1   
    73   29   83 1   
    74   30   31 2   
    75   30   84 1   
    76   31   32 1   
    77   31   85 1   
    78   32   33 2   
    79   32   86 1   
    80   33   34 1   
    81   33   35 1   
    82   34   87 1   
    83   34   88 1   
    84   34   89 1   
    85   35   36 1   
    86   35   90 1   
    87   35   91 1   
    88   36   37 1   
    89   36   92 1   
    90   36   93 1   
    91   37   38 2   
    92   37   94 1   
    93   38   39 1   
    94   38   40 1   
    95   39   95 1   
    96   39   96 1   
    97   39   97 1   
    98   40   98 1   
    99   40   99 1   
   100   40  100 1   
@<TRIPOS>SUBSTRUCTURE
     1 NS1         1 TEMP              0 ****  ****    0 ROOT
