@<TRIPOS>MOLECULE
NS1
  100    88     1     0     0
SMALL
bcc


@<TRIPOS>ATOM
      1 C1          3.0280   -7.7020    5.7510 c3        1 NS1     -0.107000
      2 CM1         2.6760   -8.2860    4.4000 c3        1 NS1     -0.208000
      3 CM2         2.2760   -8.4450    6.8340 c3        1 NS1     -0.208000
      4 C2          2.6430   -6.2370    5.7840 c3        1 NS1     -0.155000
      5 C3          3.8950   -5.3850    5.7450 c3        1 NS1     -0.153000
      6 C4          3.5170   -3.9240    5.8910 c3        1 NS1     -0.128000
      7 C5          4.7660   -3.0700    5.8190 c2        1 NS1     -0.112000
      8 C6          6.1250   -3.7240    5.6940 c3        1 NS1     -0.180000
      9 C7          4.6670   -1.7250    5.8660 c1        1 NS1     -0.169000
     10 C8          3.3080   -1.0700    5.9910 c2        1 NS1     -0.126000
     11 C9          3.4320    0.4110    5.6960 c3        1 NS1     -0.128000
     12 C10         2.1650    1.1190    6.1240 c2        1 NS1     -0.092000
     13 C11         1.5930    0.8770    7.5030 c3        1 NS1     -0.184000
     14 C12         1.5450    1.9650    5.2740 c1        1 NS1     -0.145000
     15 C13         2.1180    2.2070    3.8930 c1        1 NS1     -0.124500
     16 C14         1.3330    2.7010    2.9140 c1        1 NS1     -0.124500
     17 C15        -0.1220    3.0140    3.1950 c1        1 NS1     -0.067000
     18 C16        -0.9570    2.0560    4.0160 c3        1 NS1     -0.182000
     19 C17        -0.6730    4.1490    2.7130 c1        1 NS1     -0.136000
     20 C18         0.1630    5.1090    1.8910 c1        1 NS1     -0.124500
     21 C19        -0.2540    5.4880    0.6650 c1        1 NS1     -0.124500
     22 C20        -1.5580    4.9540    0.1110 c1        1 NS1     -0.138000
     23 C21        -2.2850    5.7040   -0.7420 c1        1 NS1     -0.065000
     24 C22        -1.7980    7.0800   -1.1460 c2        1 NS1     -0.184000
     25 C23        -3.5880    5.1710   -1.2950 c2        1 NS1     -0.127500
     26 C24        -3.6600    4.7670   -2.5790 c1        1 NS1     -0.121000
     27 C25        -2.4390    4.8480   -3.4660 c1        1 NS1     -0.138000
     28 C26        -2.0990    3.7990   -4.2430 c1        1 NS1     -0.065000
     29 C27        -2.9410    2.5410   -4.2260 c2        1 NS1     -0.184000
     30 C28        -0.8760    3.8800   -5.1320 c2        1 NS1     -0.127500
     31 C29        -0.9070    3.3480   -6.3730 c1        1 NS1     -0.121000
     32 C30        -2.1640    2.6720   -6.8760 c1        1 NS1     -0.149000
     33 C31        -2.1540    2.0230   -8.0600 c1        1 NS1     -0.091000
     34 C32        -0.8860    1.9730   -8.8840 c2        1 NS1     -0.184000
     35 C33        -3.4110    1.3460   -8.5640 c3        1 NS1     -0.127000
     36 C34        -3.1320   -0.1240   -8.8010 c3        1 NS1     -0.125000
     37 C35        -4.4410   -0.8690   -8.9430 c2        1 NS1     -0.175000
     38 C36        -4.4410   -2.2050   -9.1220 c1        1 NS1     -0.114000
     39 CM3        -3.1300   -2.9590   -9.1820 c2        1 NS1     -0.184000
     40 CM4        -5.7500   -2.9500   -9.2640 c3        1 NS1     -0.179000
     41 H1          3.9880   -7.7890    5.9040 hc        1 NS1      0.085000
     42 HM11        3.2800   -7.9210    3.7200 hc        1 NS1      0.072833
     43 HM12        1.7500   -8.0540    4.1750 hc        1 NS1      0.072833
     44 HM13        2.7700   -9.2620    4.4320 hc        1 NS1      0.072833
     45 HM21        2.6480   -8.2110    7.7100 hc        1 NS1      0.072833
     46 HM22        1.3280   -8.1950    6.8030 hc        1 NS1      0.072833
     47 HM23        2.3640   -9.4110    6.6890 hc        1 NS1      0.072833
     48 H21         2.0830   -6.0300    5.0090 hc        1 NS1      0.079000
     49 H22         2.1460   -6.0490    6.6050 hc        1 NS1      0.079000
     50 H31         4.3540   -5.5190    4.8920 hc        1 NS1      0.082000
     51 H32         4.4890   -5.6440    6.4780 hc        1 NS1      0.082000
     52 H41         2.9070   -3.6710    5.1700 hc        1 NS1      0.084500
     53 H42         3.0770   -3.7860    6.7540 hc        1 NS1      0.084500
     54 H61         6.2620   -4.3370    6.4460 hc        1 NS1      0.079333
     55 H62         6.8220   -3.0350    5.7030 hc        1 NS1      0.079333
     56 H63         6.1700   -4.2240    4.8530 hc        1 NS1      0.079333
     57 H7          5.4720   -1.1740    5.8190 ha        1 NS1      0.121000
     58 H81         2.6900   -1.4780    5.3520 ha        1 NS1      0.092000
     59 H82         2.9680   -1.1940    6.9000 ha        1 NS1      0.092000
     60 H91         3.5710    0.5420    4.7380 hc        1 NS1      0.087500
     61 H92         4.1930    0.7790    6.1890 hc        1 NS1      0.087500
     62 H111        0.9740    0.1170    7.4710 hc        1 NS1      0.082333
     63 H112        1.1120    1.6770    7.8020 hc        1 NS1      0.082333
     64 H113        2.3210    0.6800    8.1290 hc        1 NS1      0.082333
     65 H12         0.7300    2.4200    5.5490 ha        1 NS1      0.128000
     66 H13         3.0560    2.0050    3.7120 ha        1 NS1      0.124250
     67 H14         1.7020    2.8570    2.0240 ha        1 NS1      0.124250
     68 H161       -1.0480    2.4010    4.9280 hc        1 NS1      0.084333
     69 H162       -0.5190    1.1790    4.0400 hc        1 NS1      0.084333
     70 H163       -1.8460    1.9660    3.6100 hc        1 NS1      0.084333
     71 H17        -1.6110    4.3500    2.8940 ha        1 NS1      0.125000
     72 H18         1.0050    5.4530    2.2480 ha        1 NS1      0.124250
     73 H19         0.2850    6.1060    0.1350 ha        1 NS1      0.124250
     74 H20        -1.8720    4.0680    0.3720 ha        1 NS1      0.127500
     75 H221       -1.6660    7.6280   -0.3450 ha        1 NS1      0.083583
     76 H222       -0.9490    6.9970   -1.6290 ha        1 NS1      0.083583
     77 H223       -2.4630    7.5050   -1.7270 ha        1 NS1      0.083583
     78 H23        -4.3770    5.1180   -0.7220 ha        1 NS1      0.125500
     79 H24        -4.5010    4.4230   -2.9360 ha        1 NS1      0.122000
     80 H25        -1.8970    5.6590   -3.4770 ha        1 NS1      0.127500
     81 H271       -3.1580    2.3060   -3.2990 ha        1 NS1      0.083583
     82 H272       -2.4410    1.8080   -4.6400 ha        1 NS1      0.083583
     83 H273       -3.7690    2.6960   -4.7270 ha        1 NS1      0.083583
     84 H28        -0.0660    4.3160   -4.8080 ha        1 NS1      0.125500
     85 H29        -0.1170    3.4010   -6.9470 ha        1 NS1      0.122000
     86 H30        -2.9810    2.7040   -6.3450 ha        1 NS1      0.129000
     87 H321       -0.5840    2.8850   -9.0750 ha        1 NS1      0.083583
     88 H322       -1.0630    1.5050   -9.7270 ha        1 NS1      0.083583
     89 H323       -0.1910    1.4960   -8.3850 ha        1 NS1      0.083583
     90 H331       -4.1210    1.4400   -7.8970 hc        1 NS1      0.087500
     91 H332       -3.6930    1.7640   -9.4020 hc        1 NS1      0.087500
     92 H341       -2.6080   -0.2280   -9.6200 hc        1 NS1      0.089500
     93 H342       -2.6300   -0.4880   -8.0440 hc        1 NS1      0.089500
     94 H351       -5.2860   -0.3830   -8.9050 ha        1 NS1      0.122000
     95 HM31       -3.3100   -3.9180   -9.2730 ha        1 NS1      0.083583
     96 HM32       -2.6230   -2.7990   -8.3580 ha        1 NS1      0.083583
     97 HM33       -2.6090   -2.6490   -9.9520 ha        1 NS1      0.083583
     98 HM41       -5.7340   -3.7510   -8.6970 hc        1 NS1      0.079667
     99 HM42       -5.8760   -3.2150  -10.2000 hc        1 NS1      0.079667
    100 HM43       -6.4890   -2.3680   -8.9860 hc        1 NS1      0.079667
@<TRIPOS>BOND
     1    1    2 1   
     2    1    3 1   
     3    1    4 1   
     4    1   41 1   
     5    2   42 1   
     6    2   43 1   
     7    2   44 1   
     8    3   45 1   
     9    3   46 1   
    10    3   47 1   
    11    4    5 1   
    12    4   48 1   
    13    4   49 1   
    14    5    6 1   
    15    5   50 1   
    16    5   51 1   
    17    6    7 1   
    18    6   52 1   
    19    6   53 1   
    20    7    8 1   
    21    7    9 1   
    22    8   54 1   
    23    8   55 1   
    24    8   56 1   
    25    9   57 1   
    26   10   11 1   
    27   10   58 1   
    28   10   59 1   
    29   11   12 1   
    30   11   60 1   
    31   11   61 1   
    32   12   13 1   
    33   12   14 1   
    34   13   62 1   
    35   13   63 1   
    36   13   64 1   
    37   14   65 1   
    38   15   16 1   
    39   15   66 1   
    40   16   67 1   
    41   17   18 1   
    42   17   19 1   
    43   18   68 1   
    44   18   69 1   
    45   18   70 1   
    46   19   71 1   
    47   20   21 1   
    48   20   72 1   
    49   21   73 1   
    50   22   23 1   
    51   22   74 1   
    52   23   25 1   
    53   24   75 1   
    54   24   76 1   
    55   24   77 1   
    56   25   26 1   
    57   25   78 1   
    58   26   79 1   
    59   27   28 1   
    60   27   80 1   
    61   28   30 1   
    62   29   81 1   
    63   29   82 1   
    64   29   83 1   
    65   30   31 1   
    66   30   84 1   
    67   31   85 1   
    68   32   33 1   
    69   32   86 1   
    70   33   35 1   
    71   34   87 1   
    72   34   88 1   
    73   34   89 1   
    74   35   36 1   
    75   35   90 1   
    76   35   91 1   
    77   36   37 1   
    78   36   92 1   
    79   36   93 1   
    80   37   38 1   
    81   37   94 1   
    82   38   40 1   
    83   39   95 1   
    84   39   96 1   
    85   39   97 1   
    86   40   98 1   
    87   40   99 1   
    88   40  100 1   
@<TRIPOS>SUBSTRUCTURE
     1 NS1         1 TEMP              0 ****  ****    0 ROOT
