@<TRIPOS>MOLECULE
NS1
  100    99     1     0     0
SMALL
bcc


@<TRIPOS>ATOM
      1 C1          8.2250    7.3330    0.4690 c3        1 NS1     -0.067700
      2 CM1         8.0370    7.5880    1.9500 c3        1 NS1     -0.089600
      3 CM2         8.6150    8.6170   -0.2350 c3        1 NS1     -0.089600
      4 C2          9.2740    6.2600    0.2180 c3        1 NS1     -0.076400
      5 C3          8.7600    4.8700    0.5270 c3        1 NS1     -0.076400
      6 C4          9.8170    3.8220    0.2290 c3        1 NS1     -0.041200
      7 C5          9.3520    2.4510    0.5830 c2        1 NS1     -0.119400
      8 C6          9.1740    2.1660    2.0270 c3        1 NS1     -0.058900
      9 C7          9.1150    1.5270   -0.3620 c2        1 NS1     -0.177200
     10 C8          8.6680    0.1480   -0.0600 c3        1 NS1     -0.043200
     11 C9          8.2880   -0.6140   -1.3180 c3        1 NS1     -0.044200
     12 C10         7.8820   -2.0150   -1.0090 c2        1 NS1     -0.096400
     13 C11         8.9730   -2.9460   -0.6360 c3        1 NS1     -0.063900
     14 C12         6.5900   -2.3910   -1.0880 ce        1 NS1     -0.149000
     15 C13         6.1100   -3.7280   -0.8220 ce        1 NS1     -0.119000
     16 C14         4.8050   -4.0530   -0.8800 cf        1 NS1     -0.129000
     17 C15         4.2780   -5.3810   -0.6250 cf        1 NS1     -0.065200
     18 C16         5.2530   -6.5050   -0.6160 c3        1 NS1     -0.062900
     19 C17         2.9670   -5.6320   -0.4040 ce        1 NS1     -0.133000
     20 C18         1.9100   -4.6540   -0.3540 ce        1 NS1     -0.121000
     21 C19         0.6160   -4.9950   -0.1780 cf        1 NS1     -0.126000
     22 C20        -0.4390   -4.0150   -0.1200 cf        1 NS1     -0.128000
     23 C21        -1.7630   -4.2680    0.0070 ce        1 NS1     -0.067200
     24 C22        -2.3440   -5.6300    0.0900 c3        1 NS1     -0.061900
     25 C23        -2.6900   -3.1480    0.0710 ce        1 NS1     -0.125000
     26 C24        -4.0030   -3.2500    0.3530 cf        1 NS1     -0.124000
     27 C25        -4.8690   -2.0980    0.4020 cf        1 NS1     -0.132000
     28 C26        -6.1810   -2.0950    0.7370 ce        1 NS1     -0.065200
     29 C27        -6.9380   -3.3070    1.1350 c3        1 NS1     -0.061900
     30 C28        -6.9130   -0.8370    0.7070 ce        1 NS1     -0.130000
     31 C29        -8.2470   -0.7210    0.8390 cf        1 NS1     -0.121000
     32 C30        -8.9240    0.5550    0.7970 cf        1 NS1     -0.149000
     33 C31       -10.2580    0.7150    0.9010 c2        1 NS1     -0.097400
     34 C32       -11.1970   -0.4190    1.0760 c3        1 NS1     -0.063900
     35 C33       -10.8680    2.0750    0.8610 c3        1 NS1     -0.044200
     36 C34       -11.5990    2.3220   -0.4460 c3        1 NS1     -0.042200
     37 C35       -12.2460    3.6540   -0.4760 c2        1 NS1     -0.179200
     38 C36       -12.8410    4.1620   -1.5680 c2        1 NS1     -0.122400
     39 CM3       -12.8910    3.4260   -2.8540 c3        1 NS1     -0.058400
     40 CM4       -13.4840    5.4970   -1.5580 c3        1 NS1     -0.058400
     41 H1          7.2440    6.9790    0.0410 hc        1 NS1      0.046700
     42 HM11        7.7130    6.6550    2.4710 hc        1 NS1      0.033033
     43 HM12        8.9900    7.9400    2.4120 hc        1 NS1      0.033033
     44 HM13        7.2570    8.3710    2.1100 hc        1 NS1      0.033033
     45 HM21        9.6040    8.9800    0.1330 hc        1 NS1      0.033033
     46 HM22        8.6860    8.4530   -1.3370 hc        1 NS1      0.033033
     47 HM23        7.8530    9.4110   -0.0440 hc        1 NS1      0.033033
     48 H21         9.5930    6.3020   -0.8580 hc        1 NS1      0.039700
     49 H22        10.1830    6.4740    0.8410 hc        1 NS1      0.039700
     50 H31         8.4620    4.8030    1.6060 hc        1 NS1      0.043200
     51 H32         7.8440    4.6610   -0.0850 hc        1 NS1      0.043200
     52 H41        10.0910    3.8740   -0.8590 hc        1 NS1      0.044200
     53 H42        10.7470    4.0550    0.8160 hc        1 NS1      0.044200
     54 H61         9.6120    2.9750    2.6600 hc        1 NS1      0.041700
     55 H62         8.0840    2.0790    2.2700 hc        1 NS1      0.041700
     56 H63         9.6650    1.1980    2.2990 hc        1 NS1      0.041700
     57 H7          9.2530    1.7690   -1.4290 ha        1 NS1      0.122000
     58 H81         9.4890   -0.4020    0.4780 hc        1 NS1      0.051200
     59 H82         7.7870    0.1790    0.6390 hc        1 NS1      0.051200
     60 H91         7.4560   -0.0700   -1.8400 hc        1 NS1      0.048700
     61 H92         9.1640   -0.6330   -2.0220 hc        1 NS1      0.048700
     62 H111        8.7790   -3.3970    0.3700 hc        1 NS1      0.044367
     63 H112        9.0480   -3.7770   -1.3810 hc        1 NS1      0.044367
     64 H113        9.9600   -2.4210   -0.5980 hc        1 NS1      0.044367
     65 H12         5.8220   -1.6500   -1.3730 ha        1 NS1      0.124000
     66 H13         6.8720   -4.4820   -0.5600 ha        1 NS1      0.124000
     67 H14         4.0620   -3.2790   -1.1430 ha        1 NS1      0.125000
     68 H161        5.9230   -6.4220    0.2770 hc        1 NS1      0.043700
     69 H162        4.7380   -7.4960   -0.5760 hc        1 NS1      0.043700
     70 H163        5.8880   -6.4750   -1.5360 hc        1 NS1      0.043700
     71 H17         2.6490   -6.6790   -0.2360 ha        1 NS1      0.122000
     72 H18         2.1920   -3.5920   -0.4580 ha        1 NS1      0.125000
     73 H19         0.3360   -6.0560   -0.0660 ha        1 NS1      0.125000
     74 H20        -0.1040   -2.9620   -0.1820 ha        1 NS1      0.121000
     75 H221       -2.7290   -5.8170    1.1250 hc        1 NS1      0.044700
     76 H222       -3.1980   -5.7290   -0.6260 hc        1 NS1      0.044700
     77 H223       -1.5990   -6.4240   -0.1550 hc        1 NS1      0.044700
     78 H23        -2.2460   -2.1540   -0.1230 ha        1 NS1      0.123000
     79 H24        -4.4570   -4.2350    0.5540 ha        1 NS1      0.127000
     80 H25        -4.3900   -1.1380    0.1280 ha        1 NS1      0.121000
     81 H271       -7.5330   -3.1030    2.0600 hc        1 NS1      0.044367
     82 H272       -7.6460   -3.5980    0.3190 hc        1 NS1      0.044367
     83 H273       -6.2690   -4.1750    1.3450 hc        1 NS1      0.044367
     84 H28        -6.2950    0.0670    0.5540 ha        1 NS1      0.123000
     85 H29        -8.8840   -1.6110    0.9840 ha        1 NS1      0.125000
     86 H30        -8.2760    1.4410    0.6690 ha        1 NS1      0.124000
     87 H321      -10.9770   -0.9620    2.0300 hc        1 NS1      0.044033
     88 H322      -12.2570   -0.0670    1.1100 hc        1 NS1      0.044033
     89 H323      -11.0970   -1.1450    0.2310 hc        1 NS1      0.044033
     90 H331      -11.5880    2.1780    1.7180 hc        1 NS1      0.048700
     91 H332      -10.0790    2.8630    0.9960 hc        1 NS1      0.048700
     92 H341      -10.8750    2.2340   -1.3030 hc        1 NS1      0.050700
     93 H342      -12.3770    1.5240   -0.5980 hc        1 NS1      0.050700
     94 H351      -12.2220    4.2270    0.4650 ha        1 NS1      0.122000
     95 HM31      -13.2890    2.3920   -2.6990 hc        1 NS1      0.040700
     96 HM32      -13.5420    3.9490   -3.5970 hc        1 NS1      0.040700
     97 HM33      -11.8620    3.3370   -3.2870 hc        1 NS1      0.040700
     98 HM41      -13.3760    6.0020   -0.5670 hc        1 NS1      0.040700
     99 HM42      -13.0210    6.1510   -2.3400 hc        1 NS1      0.040700
    100 HM43      -14.5750    5.3990   -1.7870 hc        1 NS1      0.040700
@<TRIPOS>BOND
     1    1    2 1   
     2    1    3 1   
     3    1    4 1   
     4    1   41 1   
     5    2   42 1   
     6    2   43 1   
     7    2   44 1   
     8    3   45 1   
     9    3   46 1   
    10    3   47 1   
    11    4    5 1   
    12    4   48 1   
    13    4   49 1   
    14    5    6 1   
    15    5   50 1   
    16    5   51 1   
    17    6    7 1   
    18    6   52 1   
    19    6   53 1   
    20    7    8 1   
    21    7    9 2   
    22    8   54 1   
    23    8   55 1   
    24    8   56 1   
    25    9   10 1   
    26    9   57 1   
    27   10   11 1   
    28   10   58 1   
    29   10   59 1   
    30   11   12 1   
    31   11   60 1   
    32   11   61 1   
    33   12   13 1   
    34   12   14 2   
    35   13   62 1   
    36   13   63 1   
    37   13   64 1   
    38   14   15 1   
    39   14   65 1   
    40   15   16 2   
    41   15   66 1   
    42   16   17 1   
    43   16   67 1   
    44   17   18 1   
    45   17   19 2   
    46   18   68 1   
    47   18   69 1   
    48   18   70 1   
    49   19   20 1   
    50   19   71 1   
    51   20   21 2   
    52   20   72 1   
    53   21   22 1   
    54   21   73 1   
    55   22   23 2   
    56   22   74 1   
    57   23   24 1   
    58   23   25 1   
    59   24   75 1   
    60   24   76 1   
    61   24   77 1   
    62   25   26 2   
    63   25   78 1   
    64   26   27 1   
    65   26   79 1   
    66   27   28 2   
    67   27   80 1   
    68   28   29 1   
    69   28   30 1   
    70   29   81 1   
    71   29   82 1   
    72   29   83 1   
    73   30   31 2   
    74   30   84 1   
    75   31   32 1   
    76   31   85 1   
    77   32   33 2   
    78   32   86 1   
    79   33   34 1   
    80   33   35 1   
    81   34   87 1   
    82   34   88 1   
    83   34   89 1   
    84   35   36 1   
    85   35   90 1   
    86   35   91 1   
    87   36   37 1   
    88   36   92 1   
    89   36   93 1   
    90   37   38 2   
    91   37   94 1   
    92   38   39 1   
    93   38   40 1   
    94   39   95 1   
    95   39   96 1   
    96   39   97 1   
    97   40   98 1   
    98   40   99 1   
    99   40  100 1   
@<TRIPOS>SUBSTRUCTURE
     1 NS1         1 TEMP              0 ****  ****    0 ROOT
