@<TRIPOS>MOLECULE
NS3
   56    59     1     0     0
SMALL
bcc


@<TRIPOS>ATOM
      1 C2          4.6110    2.3830    1.2090 c3        1 NS3     -0.074900
      2 C3          5.6770    3.3470    0.7040 c3        1 NS3     -0.079400
      3 C4          6.2120    2.7870   -0.6080 c3        1 NS3     -0.079400
      4 C5          5.4180    1.5270   -0.9290 c3        1 NS3     -0.074900
      5 C1          4.2180    1.5110    0.0180 c3        1 NS3     -0.108700
      6 C6          3.8650    0.0570    0.4550 c3        1 NS3      0.530700
      7 N2          2.8100    0.0480    1.4780 nh        1 NS3     -0.784600
      8 N1          3.5450   -0.7880   -0.6720 n3        1 NS3     -0.911100
      9 S1          2.0890   -0.7690   -1.4020 sy        1 NS3      1.538200
     10 O1          1.9110   -1.9760   -2.0990 o         1 NS3     -0.651800
     11 O2          1.9330    0.3970   -2.1690 o         1 NS3     -0.651800
     12 C7          1.0690   -0.6830   -0.0710 ca        1 NS3     -0.488500
     13 C9         -0.2710   -1.0410   -0.2320 ca        1 NS3      0.134000
     14 C8          1.4910   -0.2300    1.2120 ca        1 NS3      0.347600
     15 C12         0.5260   -0.1150    2.2500 ca        1 NS3     -0.261000
     16 C11        -0.7990   -0.4590    2.0390 ca        1 NS3      0.140700
     17 C13        -1.7560   -0.3330    3.1670 c3        1 NS3     -0.100800
     18 C10        -1.2270   -0.9380    0.7770 ca        1 NS3     -0.451500
     19 S2         -2.8090   -1.4200    0.4340 sy        1 NS3      1.517200
     20 O3         -2.7650   -2.2310   -0.7220 o         1 NS3     -0.656800
     21 O4         -3.3890   -2.0050    1.5830 o         1 NS3     -0.656800
     22 N3         -3.5690   -0.0210    0.0930 n3        1 NS3     -0.818500
     23 C14        -3.4100    0.6570   -1.1680 c3        1 NS3      0.224300
     24 C15        -4.7480    1.0390   -1.8350 c3        1 NS3      0.155300
     25 N4         -5.6610    1.7180   -0.9260 n3        1 NS3     -0.730600
     26 C18        -6.9230    2.0410   -1.5520 c3        1 NS3      0.156100
     27 C16        -5.8320    1.0020    0.3300 c3        1 NS3      0.155300
     28 C17        -4.4900    0.6230    0.9930 c3        1 NS3      0.224300
     29 H2          5.0290    1.7580    2.0390 hc        1 NS3      0.044950
     30 H2A         3.7260    2.9350    1.6100 hc        1 NS3      0.044950
     31 H3          5.2360    4.3620    0.5420 hc        1 NS3      0.046450
     32 H3A         6.4960    3.4560    1.4580 hc        1 NS3      0.046450
     33 H4          6.0970    3.5400   -1.4270 hc        1 NS3      0.046450
     34 H4A         7.3030    2.5520   -0.5240 hc        1 NS3      0.046450
     35 H5          5.0770    1.5230   -1.9930 hc        1 NS3      0.044950
     36 H5A         6.0560    0.6200   -0.7740 hc        1 NS3      0.044950
     37 H1          3.3340    1.9670   -0.5070 hc        1 NS3      0.085700
     38 H6          4.7860   -0.3690    0.9740 h2        1 NS3      0.070700
     39 HN2         3.0290    0.5420    2.3130 hn        1 NS3      0.448800
     40 HN1         4.2360   -1.4690   -0.8750 hn        1 NS3      0.462800
     41 H9         -0.5870   -1.4430   -1.2200 ha        1 NS3      0.172000
     42 H12         0.8380    0.2460    3.2430 ha        1 NS3      0.141000
     43 H13        -2.6310    0.2990    2.8700 hc        1 NS3      0.070700
     44 H13A       -2.1440   -1.3470    3.4530 hc        1 NS3      0.070700
     45 H13B       -1.2750    0.1310    4.0630 hc        1 NS3      0.070700
     46 H14        -2.8050    1.5960   -1.0120 h1        1 NS3      0.057450
     47 H14A       -2.8520   -0.0170   -1.8810 h1        1 NS3      0.057450
     48 H15        -4.5180    1.7460   -2.6810 h1        1 NS3      0.041700
     49 H15A       -5.2130    0.1090   -2.2760 h1        1 NS3      0.041700
     50 H18        -7.5130    1.1350   -1.8620 h1        1 NS3      0.034033
     51 H18A       -7.5400    2.6390   -0.8320 h1        1 NS3      0.034033
     52 H18B       -6.7230    2.6650   -2.4630 h1        1 NS3      0.034033
     53 H16        -6.3830    1.6810    1.0390 h1        1 NS3      0.041700
     54 H16A       -6.4490    0.0650    0.1980 h1        1 NS3      0.041700
     55 H17        -4.7160   -0.0680    1.8560 h1        1 NS3      0.057450
     56 H17A       -4.0140    1.5620    1.3990 h1        1 NS3      0.057450
@<TRIPOS>BOND
     1    1    2 1   
     2    1    5 1   
     3    1   29 1   
     4    1   30 1   
     5    2    3 1   
     6    2   31 1   
     7    2   32 1   
     8    3    4 1   
     9    3   33 1   
    10    3   34 1   
    11    4    5 1   
    12    4   35 1   
    13    4   36 1   
    14    5    6 1   
    15    5   37 1   
    16    6    7 1   
    17    6    8 1   
    18    6   38 1   
    19    7   14 1   
    20    7   39 1   
    21    8    9 1   
    22    8   40 1   
    23    9   10 2   
    24    9   11 2   
    25    9   12 1   
    26   12   13 ar  
    27   12   14 ar  
    28   13   18 ar  
    29   13   41 1   
    30   14   15 ar  
    31   15   16 ar  
    32   15   42 1   
    33   16   17 1   
    34   16   18 ar  
    35   17   43 1   
    36   17   44 1   
    37   17   45 1   
    38   18   19 1   
    39   19   20 2   
    40   19   21 2   
    41   19   22 1   
    42   22   23 1   
    43   22   28 1   
    44   23   24 1   
    45   23   46 1   
    46   23   47 1   
    47   24   25 1   
    48   24   48 1   
    49   24   49 1   
    50   25   26 1   
    51   25   27 1   
    52   26   50 1   
    53   26   51 1   
    54   26   52 1   
    55   27   28 1   
    56   27   53 1   
    57   27   54 1   
    58   28   55 1   
    59   28   56 1   
@<TRIPOS>SUBSTRUCTURE
     1 NS3         1 TEMP              0 ****  ****    0 ROOT
