@<TRIPOS>MOLECULE
NS3
   56    56     1     0     0
SMALL
bcc


@<TRIPOS>ATOM
      1 C2          5.7180   -1.1730   -1.2390 c3        1 NS3     -0.161000
      2 C3          7.1440   -1.2880   -0.5520 c3        1 NS3     -0.163500
      3 C4          6.8730   -1.6390    0.9110 c3        1 NS3     -0.163500
      4 C5          5.5130   -1.4480    1.0840 c3        1 NS3     -0.161000
      5 C1          4.8510   -1.6770   -0.3320 c3        1 NS3     -0.121000
      6 C6          3.4610   -0.9220   -0.4100 c3        1 NS3      0.159000
      7 N2          2.4380   -1.8630   -0.0230 n3        1 NS3     -0.340000
      8 N1          3.5630    0.2690    0.3370 n3        1 NS3     -0.892000
      9 S1          2.3780    1.0680    0.4980 s4        1 NS3      2.092800
     10 O1          2.2180    1.9790   -0.6900 o         1 NS3     -0.537900
     11 O2          2.5250    1.8230    1.6270 o         1 NS3     -0.537900
     12 C7          0.9780    0.1110    0.6860 c1        1 NS3     -0.929000
     13 C9         -0.2860    0.6930    1.0160 c2        1 NS3      0.132000
     14 C8          1.0910   -1.3070    0.4910 c2        1 NS3      0.260000
     15 C12        -0.0650   -2.1340    0.6280 c2        1 NS3     -0.258000
     16 C11        -1.3550   -1.5310    0.9650 c1        1 NS3      0.146000
     17 C13        -2.5780   -2.4220    1.2270 c2        1 NS3     -0.226000
     18 C10        -1.4510   -0.1370    1.1540 c2        1 NS3     -0.894000
     19 S2         -2.9930    0.5910    1.7260 s4        1 NS3      2.072800
     20 O3         -2.7330    1.6480    2.7070 o         1 NS3     -0.544400
     21 O4         -3.7960   -0.3920    2.5610 o         1 NS3     -0.544400
     22 N3         -3.9070    1.1730    0.3990 n2        1 NS3     -0.838000
     23 C14        -3.3800    2.1960   -0.4490 c3        1 NS3     -0.012500
     24 C15        -4.4530    2.9430   -1.1710 c3        1 NS3     -0.081500
     25 N4         -5.3430    2.0910   -1.8390 n3        1 NS3     -0.256000
     26 C18        -6.4720    2.8870   -2.3980 c3        1 NS3     -0.120000
     27 C16        -5.8690    1.0640   -0.9870 c3        1 NS3     -0.081500
     28 C17        -4.8020    0.3150   -0.2740 c3        1 NS3     -0.012500
     29 H2          5.6940   -1.7350   -2.1070 hc        1 NS3      0.092000
     30 H2A         5.4950   -0.1830   -1.4440 hc        1 NS3      0.092000
     31 H3          7.6130   -0.4380   -0.6100 hc        1 NS3      0.088500
     32 H3A         7.6680   -1.9900   -0.9780 hc        1 NS3      0.088500
     33 H4          7.4030   -1.0210    1.5310 hc        1 NS3      0.088500
     34 H4A         7.1280   -2.6450    1.0940 hc        1 NS3      0.088500
     35 H5          5.3380   -0.5220    1.3950 hc        1 NS3      0.092000
     36 H5A         5.1380   -2.1340    1.7740 hc        1 NS3      0.092000
     37 H1          4.7070   -2.7320   -0.5070 hc        1 NS3      0.103000
     38 H6          3.3120   -0.6940   -1.2760 h2        1 NS3      0.120000
     39 HN2         2.7820   -2.4490    0.5980 hn        1 NS3      0.234000
     40 HN1         4.4670    0.6810    0.4990 hn        1 NS3      0.261000
     41 H9         -0.3560    1.6230    1.1410 ha        1 NS3      0.172000
     42 H12         0.0190   -3.0580    0.5890 ha        1 NS3      0.141000
     43 H13        -2.8600   -2.8020    0.4300 ha        1 NS3      0.109667
     44 H13A       -3.2650   -1.9030    1.5860 ha        1 NS3      0.109667
     45 H13B       -2.3210   -3.1870    1.9140 ha        1 NS3      0.109667
     46 H14        -2.8120    1.8090   -1.0690 h1        1 NS3      0.096750
     47 H14A       -2.8590    2.8390    0.1050 h1        1 NS3      0.096750
     48 H15        -4.0280    3.5480   -1.8370 h1        1 NS3      0.081000
     49 H15A       -4.9520    3.4820   -0.5250 h1        1 NS3      0.081000
     50 H18        -6.5720    2.6880   -3.3370 h1        1 NS3      0.073333
     51 H18A       -6.2980    3.7880   -2.2890 h1        1 NS3      0.073333
     52 H18B       -7.3270    2.6460   -1.9130 h1        1 NS3      0.073333
     53 H16        -6.4050    0.4230   -1.5350 h1        1 NS3      0.081000
     54 H16A       -6.4970    1.5060   -0.2790 h1        1 NS3      0.081000
     55 H17        -5.1850   -0.2390    0.3270 h1        1 NS3      0.096750
     56 H17A       -4.3000   -0.2220   -0.9260 h1        1 NS3      0.096750
@<TRIPOS>BOND
     1    1    2 1   
     2    1    5 1   
     3    1   29 1   
     4    1   30 1   
     5    2    3 1   
     6    2   31 1   
     7    2   32 1   
     8    3    4 1   
     9    3   33 1   
    10    3   34 1   
    11    4    5 1   
    12    4   35 1   
    13    4   36 1   
    14    5    6 1   
    15    5   37 1   
    16    6    7 1   
    17    6    8 1   
    18    6   38 1   
    19    7   14 1   
    20    7   39 1   
    21    8    9 1   
    22    8   40 1   
    23    9   10 1   
    24    9   11 1   
    25   12   13 1   
    26   12   14 1   
    27   13   18 1   
    28   13   41 1   
    29   14   15 1   
    30   15   16 1   
    31   15   42 1   
    32   16   18 1   
    33   17   43 1   
    34   17   44 1   
    35   17   45 1   
    36   18   19 1   
    37   19   20 1   
    38   19   21 1   
    39   22   23 1   
    40   22   28 1   
    41   23   24 1   
    42   23   46 1   
    43   23   47 1   
    44   24   25 1   
    45   24   48 1   
    46   24   49 1   
    47   25   26 1   
    48   25   27 1   
    49   26   50 1   
    50   26   51 1   
    51   26   52 1   
    52   27   28 1   
    53   27   53 1   
    54   27   54 1   
    55   28   55 1   
    56   28   56 1   
@<TRIPOS>SUBSTRUCTURE
     1 NS3         1 TEMP              0 ****  ****    0 ROOT
