@<TRIPOS>MOLECULE
NS3
   56    59     1     0     0
SMALL
bcc


@<TRIPOS>ATOM
      1 C2          0.0630    0.5710    0.3590 c3        1 NS3     -0.074900
      2 C3          1.4100    1.2100    0.6720 c3        1 NS3     -0.079400
      3 C4          1.9290    0.5720    1.9550 c3        1 NS3     -0.079400
      4 C5          0.9320   -0.5020    2.3710 c3        1 NS3     -0.074900
      5 C1         -0.0080   -0.7120    1.1850 c3        1 NS3     -0.108700
      6 C6         -1.4610   -1.0130    1.6630 c3        1 NS3      0.530700
      7 N2         -2.3960   -1.0690    0.5310 nh        1 NS3     -0.784600
      8 N1         -1.5280   -2.1960    2.4900 n3        1 NS3     -0.911100
      9 S1         -1.5340   -3.7030    1.8730 sy        1 NS3      1.538200
     10 O1         -2.0800   -4.5840    2.8210 o         1 NS3     -0.651800
     11 O2         -0.2600   -4.0500    1.3950 o         1 NS3     -0.651800
     12 C7         -2.5680   -3.5050    0.5650 ca        1 NS3     -0.488500
     13 C9         -3.1550   -4.6380   -0.0010 ca        1 NS3      0.134000
     14 C8         -2.8550   -2.2390   -0.0230 ca        1 NS3      0.347600
     15 C12        -3.6780   -2.1920   -1.1820 ca        1 NS3     -0.261000
     16 C11        -4.2200   -3.3460   -1.7240 ca        1 NS3      0.140700
     17 C13        -5.0850   -3.2300   -2.9250 c3        1 NS3     -0.100800
     18 C10        -3.9670   -4.6080   -1.1330 ca        1 NS3     -0.451500
     19 S2         -4.6140   -6.0630   -1.6950 sy        1 NS3      1.517200
     20 O3         -4.5260   -7.0020   -0.6420 o         1 NS3     -0.656800
     21 O4         -5.9070   -5.8380   -2.2220 o         1 NS3     -0.656800
     22 N3         -3.6040   -6.4910   -2.8970 n3        1 NS3     -0.818500
     23 C14        -2.3060   -7.0640   -2.6470 c3        1 NS3      0.224300
     24 C15        -2.0420   -8.3610   -3.4420 c3        1 NS3      0.155300
     25 N4         -2.3520   -8.2300   -4.8590 n3        1 NS3     -0.730600
     26 C18        -2.1320   -9.4590   -5.5870 c3        1 NS3      0.156100
     27 C16        -3.6790   -7.6780   -5.0910 c3        1 NS3      0.155300
     28 C17        -3.9370   -6.3810   -4.2930 c3        1 NS3      0.224300
     29 H2         -0.7630    1.2720    0.6420 hc        1 NS3      0.044950
     30 H2A        -0.0350    0.3500   -0.7320 hc        1 NS3      0.044950
     31 H3          1.3020    2.3170    0.7910 hc        1 NS3      0.046450
     32 H3A         2.1280    1.0320   -0.1680 hc        1 NS3      0.046450
     33 H4          2.0410    1.3370    2.7630 hc        1 NS3      0.046450
     34 H4A         2.9390    0.1200    1.7830 hc        1 NS3      0.046450
     35 H5          0.3600   -0.1670    3.2740 hc        1 NS3      0.044950
     36 H5A         1.4500   -1.4570    2.6350 hc        1 NS3      0.044950
     37 H1          0.3680   -1.5770    0.5710 hc        1 NS3      0.085700
     38 H6         -1.8000   -0.1200    2.2850 h2        1 NS3      0.070700
     39 HN2        -2.4510   -0.2370   -0.0110 hn        1 NS3      0.448800
     40 HN1        -1.7040   -2.0100    3.4470 hn        1 NS3      0.462800
     41 H9         -2.9710   -5.6200    0.4910 ha        1 NS3      0.172000
     42 H12        -3.8960   -1.2210   -1.6530 ha        1 NS3      0.141000
     43 H13        -4.7090   -3.8940   -3.7440 hc        1 NS3      0.070700
     44 H13A       -5.1170   -2.1810   -3.3070 hc        1 NS3      0.070700
     45 H13B       -6.1310   -3.5530   -2.6740 hc        1 NS3      0.070700
     46 H14        -1.5090   -6.3110   -2.9140 h1        1 NS3      0.057450
     47 H14A       -2.2160   -7.3110   -1.5500 h1        1 NS3      0.057450
     48 H15        -0.9450   -8.5980   -3.3520 h1        1 NS3      0.041700
     49 H15A       -2.6200   -9.2040   -2.9640 h1        1 NS3      0.041700
     50 H18        -2.3000   -9.2670   -6.6790 h1        1 NS3      0.034033
     51 H18A       -2.8090  -10.2970   -5.2630 h1        1 NS3      0.034033
     52 H18B       -1.0680   -9.7810   -5.4360 h1        1 NS3      0.034033
     53 H16        -4.4910   -8.4230   -4.8450 h1        1 NS3      0.041700
     54 H16A       -3.7590   -7.4270   -6.1850 h1        1 NS3      0.041700
     55 H17        -5.0310   -6.1250   -4.3980 h1        1 NS3      0.057450
     56 H17A       -3.3270   -5.5500   -4.7550 h1        1 NS3      0.057450
@<TRIPOS>BOND
     1    1    2 1   
     2    1    5 1   
     3    1   29 1   
     4    1   30 1   
     5    2    3 1   
     6    2   31 1   
     7    2   32 1   
     8    3    4 1   
     9    3   33 1   
    10    3   34 1   
    11    4    5 1   
    12    4   35 1   
    13    4   36 1   
    14    5    6 1   
    15    5   37 1   
    16    6    7 1   
    17    6    8 1   
    18    6   38 1   
    19    7   14 1   
    20    7   39 1   
    21    8    9 1   
    22    8   40 1   
    23    9   10 2   
    24    9   11 2   
    25    9   12 1   
    26   12   13 ar  
    27   12   14 ar  
    28   13   18 ar  
    29   13   41 1   
    30   14   15 ar  
    31   15   16 ar  
    32   15   42 1   
    33   16   17 1   
    34   16   18 ar  
    35   17   43 1   
    36   17   44 1   
    37   17   45 1   
    38   18   19 1   
    39   19   20 2   
    40   19   21 2   
    41   19   22 1   
    42   22   23 1   
    43   22   28 1   
    44   23   24 1   
    45   23   46 1   
    46   23   47 1   
    47   24   25 1   
    48   24   48 1   
    49   24   49 1   
    50   25   26 1   
    51   25   27 1   
    52   26   50 1   
    53   26   51 1   
    54   26   52 1   
    55   27   28 1   
    56   27   53 1   
    57   27   54 1   
    58   28   55 1   
    59   28   56 1   
@<TRIPOS>SUBSTRUCTURE
     1 NS3         1 TEMP              0 ****  ****    0 ROOT
