@<TRIPOS>MOLECULE
NS3
   56    59     1     0     0
SMALL
bcc


@<TRIPOS>ATOM
      1 C2          0.0760    0.5630    0.3640 c3        1 NS3     -0.074900
      2 C3          1.4240    1.1980    0.6830 c3        1 NS3     -0.079400
      3 C4          1.9360    0.5580    1.9670 c3        1 NS3     -0.079400
      4 C5          0.9320   -0.5110    2.3810 c3        1 NS3     -0.074900
      5 C1         -0.0040   -0.7190    1.1910 c3        1 NS3     -0.108700
      6 C6         -1.4600   -1.0140    1.6630 c3        1 NS3      0.530700
      7 N2         -2.3910   -1.0670    0.5270 nh        1 NS3     -0.784600
      8 N1         -1.5350   -2.1960    2.4910 n3        1 NS3     -0.911100
      9 S1         -1.5450   -3.7030    1.8740 sy        1 NS3      1.538200
     10 O1         -2.0980   -4.5820    2.8210 o         1 NS3     -0.651800
     11 O2         -0.2700   -4.0550    1.4010 o         1 NS3     -0.651800
     12 C7         -2.5730   -3.5020    0.5620 ca        1 NS3     -0.488500
     13 C9         -3.1630   -4.6330   -0.0050 ca        1 NS3      0.134000
     14 C8         -2.8520   -2.2360   -0.0270 ca        1 NS3      0.347600
     15 C12        -3.6710   -2.1860   -1.1900 ca        1 NS3     -0.261000
     16 C11        -4.2160   -3.3380   -1.7330 ca        1 NS3      0.140700
     17 C13        -5.0760   -3.2190   -2.9370 c3        1 NS3     -0.100800
     18 C10        -3.9710   -4.6000   -1.1400 ca        1 NS3     -0.451500
     19 S2         -4.6220   -6.0530   -1.7030 sy        1 NS3      1.517200
     20 O3         -4.5410   -6.9910   -0.6490 o         1 NS3     -0.656800
     21 O4         -5.9110   -5.8230   -2.2350 o         1 NS3     -0.656800
     22 N3         -3.6080   -6.4870   -2.9010 n3        1 NS3     -0.818500
     23 C14        -2.3140   -7.0660   -2.6460 c3        1 NS3      0.224300
     24 C15        -2.0520   -8.3630   -3.4390 c3        1 NS3      0.155300
     25 N4         -2.3560   -8.2310   -4.8570 n3        1 NS3     -0.730600
     26 C18        -2.1380   -9.4610   -5.5840 c3        1 NS3      0.156100
     27 C16        -3.6790   -7.6730   -5.0950 c3        1 NS3      0.155300
     28 C17        -3.9360   -6.3750   -4.2980 c3        1 NS3      0.224300
     29 H2         -0.0180    0.3430   -0.7270 hc        1 NS3      0.044950
     30 H2A        -0.7490    1.2680    0.6430 hc        1 NS3      0.044950
     31 H3          2.1440    1.0170   -0.1540 hc        1 NS3      0.046450
     32 H3A         1.3200    2.3050    0.8000 hc        1 NS3      0.046450
     33 H4          2.0480    1.3230    2.7760 hc        1 NS3      0.046450
     34 H4A         2.9440    0.1020    1.8000 hc        1 NS3      0.046450
     35 H5          0.3590   -0.1740    3.2810 hc        1 NS3      0.044950
     36 H5A         1.4450   -1.4690    2.6470 hc        1 NS3      0.044950
     37 H1          0.3710   -1.5850    0.5790 hc        1 NS3      0.085700
     38 H6         -1.7980   -0.1190    2.2830 h2        1 NS3      0.070700
     39 HN2        -2.4400   -0.2350   -0.0150 hn        1 NS3      0.448800
     40 HN1        -1.7130   -2.0080    3.4470 hn        1 NS3      0.462800
     41 H9         -2.9850   -5.6150    0.4890 ha        1 NS3      0.172000
     42 H12        -3.8830   -1.2140   -1.6620 ha        1 NS3      0.141000
     43 H13        -4.6990   -3.8850   -3.7540 hc        1 NS3      0.070700
     44 H13A       -5.1020   -2.1700   -3.3200 hc        1 NS3      0.070700
     45 H13B       -6.1240   -3.5370   -2.6890 hc        1 NS3      0.070700
     46 H14        -2.2300   -7.3120   -1.5480 h1        1 NS3      0.057450
     47 H14A       -1.5130   -6.3150   -2.9090 h1        1 NS3      0.057450
     48 H15        -0.9570   -8.6050   -3.3450 h1        1 NS3      0.041700
     49 H15A       -2.6360   -9.2040   -2.9630 h1        1 NS3      0.041700
     50 H18        -1.0770   -9.7880   -5.4290 h1        1 NS3      0.034033
     51 H18A       -2.3010   -9.2680   -6.6770 h1        1 NS3      0.034033
     52 H18B       -2.8200  -10.2960   -5.2630 h1        1 NS3      0.034033
     53 H16        -4.4960   -8.4140   -4.8520 h1        1 NS3      0.041700
     54 H16A       -3.7550   -7.4220   -6.1890 h1        1 NS3      0.041700
     55 H17        -5.0280   -6.1140   -4.4070 h1        1 NS3      0.057450
     56 H17A       -3.3210   -5.5470   -4.7580 h1        1 NS3      0.057450
@<TRIPOS>BOND
     1    1    2 1   
     2    1    5 1   
     3    1   29 1   
     4    1   30 1   
     5    2    3 1   
     6    2   31 1   
     7    2   32 1   
     8    3    4 1   
     9    3   33 1   
    10    3   34 1   
    11    4    5 1   
    12    4   35 1   
    13    4   36 1   
    14    5    6 1   
    15    5   37 1   
    16    6    7 1   
    17    6    8 1   
    18    6   38 1   
    19    7   14 1   
    20    7   39 1   
    21    8    9 1   
    22    8   40 1   
    23    9   10 2   
    24    9   11 2   
    25    9   12 1   
    26   12   13 ar  
    27   12   14 ar  
    28   13   18 ar  
    29   13   41 1   
    30   14   15 ar  
    31   15   16 ar  
    32   15   42 1   
    33   16   17 1   
    34   16   18 ar  
    35   17   43 1   
    36   17   44 1   
    37   17   45 1   
    38   18   19 1   
    39   19   20 2   
    40   19   21 2   
    41   19   22 1   
    42   22   23 1   
    43   22   28 1   
    44   23   24 1   
    45   23   46 1   
    46   23   47 1   
    47   24   25 1   
    48   24   48 1   
    49   24   49 1   
    50   25   26 1   
    51   25   27 1   
    52   26   50 1   
    53   26   51 1   
    54   26   52 1   
    55   27   28 1   
    56   27   53 1   
    57   27   54 1   
    58   28   55 1   
    59   28   56 1   
@<TRIPOS>SUBSTRUCTURE
     1 NS3         1 TEMP              0 ****  ****    0 ROOT
