@<TRIPOS>MOLECULE
NS3
   56    59     1     0     0
SMALL
bcc


@<TRIPOS>ATOM
      1 C2          0.0740    0.5670    0.3530 c3        1 NS3     -0.074900
      2 C3          1.4220    1.2020    0.6700 c3        1 NS3     -0.079400
      3 C4          1.9330    0.5650    1.9570 c3        1 NS3     -0.079400
      4 C5          0.9290   -0.5020    2.3730 c3        1 NS3     -0.074900
      5 C1         -0.0060   -0.7130    1.1830 c3        1 NS3     -0.108700
      6 C6         -1.4630   -1.0060    1.6560 c3        1 NS3      0.530700
      7 N2         -2.3930   -1.0620    0.5200 nu        1 NS3     -0.784600
      8 N1         -1.5390   -2.1850    2.4870 n7        1 NS3     -0.911100
      9 S1         -1.5490   -3.6950    1.8750 sy        1 NS3      1.538200
     10 O1         -2.1030   -4.5700    2.8240 o         1 NS3     -0.651800
     11 O2         -0.2730   -4.0480    1.4050 o         1 NS3     -0.651800
     12 C7         -2.5750   -3.4970    0.5610 ca        1 NS3     -0.488500
     13 C9         -3.1640   -4.6300   -0.0030 ca        1 NS3      0.134000
     14 C8         -2.8540   -2.2320   -0.0320 ca        1 NS3      0.347600
     15 C12        -3.6710   -2.1860   -1.1960 ca        1 NS3     -0.261000
     16 C11        -4.2160   -3.3400   -1.7360 ca        1 NS3      0.140700
     17 C13        -5.0750   -3.2240   -2.9410 c3        1 NS3     -0.100800
     18 C10        -3.9710   -4.6000   -1.1390 ca        1 NS3     -0.451500
     19 S2         -4.6210   -6.0550   -1.6990 sy        1 NS3      1.517200
     20 O3         -4.5410   -6.9900   -0.6420 o         1 NS3     -0.656800
     21 O4         -5.9100   -5.8270   -2.2330 o         1 NS3     -0.656800
     22 N3         -3.6070   -6.4910   -2.8940 n3        1 NS3     -0.818500
     23 C14        -2.3120   -7.0690   -2.6360 c3        1 NS3      0.224300
     24 C15        -2.0490   -8.3690   -3.4260 c3        1 NS3      0.155300
     25 N4         -2.3510   -8.2400   -4.8450 n3        1 NS3     -0.730600
     26 C18        -2.1320   -9.4730   -5.5680 c3        1 NS3      0.156100
     27 C16        -3.6750   -7.6840   -5.0850 c3        1 NS3      0.155300
     28 C17        -3.9320   -6.3840   -4.2930 c3        1 NS3      0.224300
     29 H2         -0.0190    0.3430   -0.7380 hc        1 NS3      0.044950
     30 H2A        -0.7500    1.2730    0.6290 hc        1 NS3      0.044950
     31 H3          1.3190    2.3090    0.7840 hc        1 NS3      0.046450
     32 H3A         2.1430    1.0180   -0.1660 hc        1 NS3      0.046450
     33 H4          2.9410    0.1080    1.7910 hc        1 NS3      0.046450
     34 H4A         2.0450    1.3330    2.7630 hc        1 NS3      0.046450
     35 H5          0.3550   -0.1610    3.2720 hc        1 NS3      0.044950
     36 H5A         1.4410   -1.4580    2.6420 hc        1 NS3      0.044950
     37 H1          0.3680   -1.5810    0.5740 hc        1 NS3      0.085700
     38 H6         -1.8010   -0.1090    2.2730 h2        1 NS3      0.070700
     39 HN2        -2.4420   -0.2320   -0.0260 hn        1 NS3      0.448800
     40 HN1        -1.7180   -1.9940    3.4420 hn        1 NS3      0.462800
     41 H9         -2.9870   -5.6100    0.4940 ha        1 NS3      0.172000
     42 H12        -3.8840   -1.2160   -1.6710 ha        1 NS3      0.141000
     43 H13        -5.1010   -2.1760   -3.3270 hc        1 NS3      0.070700
     44 H13A       -4.6980   -3.8920   -3.7560 hc        1 NS3      0.070700
     45 H13B       -6.1230   -3.5420   -2.6930 hc        1 NS3      0.070700
     46 H14        -1.5110   -6.3200   -2.9000 h1        1 NS3      0.057450
     47 H14A       -2.2300   -7.3130   -1.5380 h1        1 NS3      0.057450
     48 H15        -2.6330   -9.2090   -2.9480 h1        1 NS3      0.041700
     49 H15A       -0.9540   -8.6100   -3.3300 h1        1 NS3      0.041700
     50 H18        -2.2940   -9.2820   -6.6610 h1        1 NS3      0.034033
     51 H18A       -1.0710   -9.7990   -5.4110 h1        1 NS3      0.034033
     52 H18B       -2.8140  -10.3070   -5.2460 h1        1 NS3      0.034033
     53 H16        -3.7490   -7.4360   -6.1800 h1        1 NS3      0.041700
     54 H16A       -4.4910   -8.4250   -4.8410 h1        1 NS3      0.041700
     55 H17        -3.3170   -5.5570   -4.7530 h1        1 NS3      0.057450
     56 H17A       -5.0250   -6.1240   -4.4030 h1        1 NS3      0.057450
@<TRIPOS>BOND
     1    1    2 1   
     2    1    5 1   
     3    1   29 1   
     4    1   30 1   
     5    2    3 1   
     6    2   31 1   
     7    2   32 1   
     8    3    4 1   
     9    3   33 1   
    10    3   34 1   
    11    4    5 1   
    12    4   35 1   
    13    4   36 1   
    14    5    6 1   
    15    5   37 1   
    16    6    7 1   
    17    6    8 1   
    18    6   38 1   
    19    7   14 1   
    20    7   39 1   
    21    8    9 1   
    22    8   40 1   
    23    9   10 2   
    24    9   11 2   
    25    9   12 1   
    26   12   13 ar  
    27   12   14 ar  
    28   13   18 ar  
    29   13   41 1   
    30   14   15 ar  
    31   15   16 ar  
    32   15   42 1   
    33   16   17 1   
    34   16   18 ar  
    35   17   43 1   
    36   17   44 1   
    37   17   45 1   
    38   18   19 1   
    39   19   20 2   
    40   19   21 2   
    41   19   22 1   
    42   22   23 1   
    43   22   28 1   
    44   23   24 1   
    45   23   46 1   
    46   23   47 1   
    47   24   25 1   
    48   24   48 1   
    49   24   49 1   
    50   25   26 1   
    51   25   27 1   
    52   26   50 1   
    53   26   51 1   
    54   26   52 1   
    55   27   28 1   
    56   27   53 1   
    57   27   54 1   
    58   28   55 1   
    59   28   56 1   
@<TRIPOS>SUBSTRUCTURE
     1 NS3         1 TEMP              0 ****  ****    0 ROOT
