@<TRIPOS>MOLECULE
NS4
   39    40     1     0     0
SMALL
bcc


@<TRIPOS>ATOM
      1 C1         -1.0550   -0.1610   -0.1210 ca        1 NS4      0.206600
      2 N1         -1.6150    1.1140   -0.1900 nh        1 NS4     -0.764500
      3 O1         -3.2160    2.9280   -0.6050 o         1 NS4     -0.642800
      4 S1         -3.1890    1.5630   -0.2660 s6        1 NS4      1.470900
      5 C2          0.3050   -0.3290    0.2860 ca        1 NS4      0.058100
      6 N2          0.7300   -4.0700    0.1480 no        1 NS4      0.318200
      7 O2         -3.9370    0.6820   -1.0640 o         1 NS4     -0.642800
      8 C3          0.8840   -1.5920    0.3760 ca        1 NS4     -0.089000
      9 O3          1.8850   -4.1640    0.4680 o         1 NS4     -0.209000
     10 C4          0.1180   -2.7220    0.0540 ca        1 NS4     -0.189200
     11 O4          0.0560   -5.0340   -0.0990 o         1 NS4     -0.209000
     12 C5         -1.2160   -2.5860   -0.3560 ca        1 NS4     -0.047000
     13 O5          0.9960    0.8080    0.6690 os        1 NS4     -0.347900
     14 C6         -1.7910   -1.3240   -0.4410 ca        1 NS4     -0.192000
     15 C7         -3.7110    1.3940    1.3380 c3        1 NS4     -0.377300
     16 C8          2.3200    0.9490    0.1010 c3        1 NS4      0.140100
     17 C9          3.3260    0.8610    1.2420 c3        1 NS4     -0.091400
     18 C10         4.7200    1.1820    0.7460 c3        1 NS4     -0.076900
     19 C11         4.7690    2.5380    0.0700 c3        1 NS4     -0.081400
     20 C12         3.7590    2.6280   -1.0560 c3        1 NS4     -0.076900
     21 C13         2.3590    2.3190   -0.5700 c3        1 NS4     -0.091400
     22 HN1        -0.9170    1.8330   -0.1370 hn        1 NS4      0.472800
     23 H3          1.9340   -1.6970    0.7040 ha        1 NS4      0.180000
     24 H5         -1.8120   -3.4790   -0.6170 ha        1 NS4      0.177000
     25 H6         -2.8370   -1.2470   -0.7930 ha        1 NS4      0.185000
     26 H7         -3.1670    2.0530    2.0590 h1        1 NS4      0.122367
     27 H7A        -4.7940    1.6710    1.4270 h1        1 NS4      0.122367
     28 H7B        -3.6290    0.3530    1.7350 h1        1 NS4      0.122367
     29 H8          2.5150    0.1420   -0.6560 h1        1 NS4      0.059700
     30 H9          3.0280    1.5790    2.0500 hc        1 NS4      0.053950
     31 H9A         3.3030   -0.1700    1.6830 hc        1 NS4      0.053950
     32 H10         5.4320    1.1680    1.6110 hc        1 NS4      0.046700
     33 H10A        5.0520    0.3910    0.0230 hc        1 NS4      0.046700
     34 H11         4.5590    3.3400    0.8250 hc        1 NS4      0.045700
     35 H11A        5.7980    2.7170   -0.3360 hc        1 NS4      0.045700
     36 H12         3.7770    3.6590   -1.4960 hc        1 NS4      0.046700
     37 H12A        4.0400    1.9090   -1.8710 hc        1 NS4      0.046700
     38 H13         1.6390    2.3350   -1.4280 hc        1 NS4      0.053950
     39 H13A        2.0260    3.0970    0.1660 hc        1 NS4      0.053950
@<TRIPOS>BOND
     1    1    2 1   
     2    1    5 ar  
     3    1   14 ar  
     4    2    4 1   
     5    2   22 1   
     6    3    4 2   
     7    4    7 2   
     8    4   15 1   
     9    5    8 ar  
    10    5   13 1   
    11    6    9 1   
    12    6   10 1   
    13    6   11 1   
    14    8   10 ar  
    15    8   23 1   
    16   10   12 ar  
    17   12   14 ar  
    18   12   24 1   
    19   13   16 1   
    20   14   25 1   
    21   15   26 1   
    22   15   27 1   
    23   15   28 1   
    24   16   17 1   
    25   16   21 1   
    26   16   29 1   
    27   17   18 1   
    28   17   30 1   
    29   17   31 1   
    30   18   19 1   
    31   18   32 1   
    32   18   33 1   
    33   19   20 1   
    34   19   34 1   
    35   19   35 1   
    36   20   21 1   
    37   20   36 1   
    38   20   37 1   
    39   21   38 1   
    40   21   39 1   
@<TRIPOS>SUBSTRUCTURE
     1 NS4         1 TEMP              0 ****  ****    0 ROOT
