@<TRIPOS>MOLECULE
NS4
   39    40     1     0     0
SMALL
bcc


@<TRIPOS>ATOM
      1 C1          0.2210    0.2840    0.1130 ca        1 NS4      0.206600
      2 N1         -0.3040    0.3400   -1.1770 nu        1 NS4     -0.764500
      3 O1         -1.8830    0.1800   -3.0500 o         1 NS4     -0.642800
      4 S1         -1.8660    0.4380   -1.6670 s6        1 NS4      1.470900
      5 C2          1.6080    0.5530    0.3370 ca        1 NS4      0.058100
      6 N2          1.9070    0.1650    4.0730 no        1 NS4      0.318200
      7 O2         -2.7090   -0.3350   -0.8540 o         1 NS4     -0.642800
      8 C3          2.1550    0.5170    1.6180 ca        1 NS4     -0.089000
      9 O3          3.0840    0.3700    4.2130 o         1 NS4     -0.209000
     10 C4          1.3290    0.2040    2.7070 ca        1 NS4     -0.189200
     11 O4          1.1850   -0.0720    5.0050 o         1 NS4     -0.209000
     12 C5         -0.0320   -0.0710    2.5150 ca        1 NS4     -0.047000
     13 O5          2.3630    0.9330   -0.7580 os        1 NS4     -0.347900
     14 C6         -0.5750   -0.0310    1.2370 ca        1 NS4     -0.192000
     15 C7         -2.2420    2.0710   -1.4160 c3        1 NS4     -0.377300
     16 C8          3.6350    0.2560   -0.8990 c3        1 NS4      0.140100
     17 C9          4.7370    1.2940   -0.7170 c3        1 NS4     -0.091400
     18 C10         6.0890    0.6910   -1.0320 c3        1 NS4     -0.076900
     19 C11         6.1190    0.0920   -2.4240 c3        1 NS4     -0.081400
     20 C12         5.0160   -0.9300   -2.6060 c3        1 NS4     -0.076900
     21 C13         3.6560   -0.3370   -2.3050 c3        1 NS4     -0.091400
     22 HN1         0.4160    0.3680   -1.8740 hn        1 NS4      0.472800
     23 H3          3.2270    0.7390    1.7670 ha        1 NS4      0.180000
     24 H5         -0.6760   -0.3260    3.3760 ha        1 NS4      0.177000
     25 H6         -1.6450   -0.2790    1.1150 ha        1 NS4      0.185000
     26 H7         -2.1540    2.3990   -0.3510 h1        1 NS4      0.122367
     27 H7A        -3.3040    2.2760   -1.7120 h1        1 NS4      0.122367
     28 H7B        -1.6150    2.7750   -2.0180 h1        1 NS4      0.122367
     29 H8          3.7370   -0.5610   -0.1340 h1        1 NS4      0.059700
     30 H9          4.7210    1.6760    0.3360 hc        1 NS4      0.053950
     31 H9A         4.5340    2.1640   -1.3940 hc        1 NS4      0.053950
     32 H10         6.8750    1.4860   -0.9480 hc        1 NS4      0.046700
     33 H10A        6.3310   -0.1020   -0.2770 hc        1 NS4      0.046700
     34 H11         6.0020    0.9080   -3.1850 hc        1 NS4      0.045700
     35 H11A        7.1130   -0.3950   -2.6000 hc        1 NS4      0.045700
     36 H12         5.2010   -1.8060   -1.9300 hc        1 NS4      0.046700
     37 H12A        5.0260   -1.3110   -3.6610 hc        1 NS4      0.046700
     38 H13         3.4140    0.4690   -3.0460 hc        1 NS4      0.053950
     39 H13A        2.8630   -1.1240   -2.3890 hc        1 NS4      0.053950
@<TRIPOS>BOND
     1    1    2 1   
     2    1    5 ar  
     3    1   14 ar  
     4    2    4 1   
     5    2   22 1   
     6    3    4 2   
     7    4    7 2   
     8    4   15 1   
     9    5    8 ar  
    10    5   13 1   
    11    6    9 1   
    12    6   10 1   
    13    6   11 1   
    14    8   10 ar  
    15    8   23 1   
    16   10   12 ar  
    17   12   14 ar  
    18   12   24 1   
    19   13   16 1   
    20   14   25 1   
    21   15   26 1   
    22   15   27 1   
    23   15   28 1   
    24   16   17 1   
    25   16   21 1   
    26   16   29 1   
    27   17   18 1   
    28   17   30 1   
    29   17   31 1   
    30   18   19 1   
    31   18   32 1   
    32   18   33 1   
    33   19   20 1   
    34   19   34 1   
    35   19   35 1   
    36   20   21 1   
    37   20   36 1   
    38   20   37 1   
    39   21   38 1   
    40   21   39 1   
@<TRIPOS>SUBSTRUCTURE
     1 NS4         1 TEMP              0 ****  ****    0 ROOT
