@<TRIPOS>MOLECULE
NS4
   39    36     1     0     0
SMALL
bcc


@<TRIPOS>ATOM
      1 C1         -1.6690    0.0430    0.7200 c1        1 NS4      0.118000
      2 N1         -2.2320    0.0130   -0.5840 n3        1 NS4     -0.816000
      3 O1         -3.2910   -2.3010   -0.5240 o         1 NS4     -0.530400
      4 S1         -3.5380   -0.9360   -0.8950 s4        1 NS4      2.042800
      5 C2         -0.2940    0.1160    0.8810 c1        1 NS4      0.035000
      6 N2         -0.0530   -0.0740    4.5760 n2        1 NS4      0.572000
      7 O2         -4.6390   -0.6070   -0.0320 o         1 NS4     -0.530400
      8 C3          0.2550    0.1240    2.1540 c1        1 NS4     -0.120000
      9 O3          0.0580   -1.1810    5.0790 o         1 NS4     -0.355000
     10 C4         -0.5700    0.0590    3.2650 c2        1 NS4     -0.133000
     11 O4          0.3380    1.0340    5.2710 os        1 NS4     -0.363000
     12 C5         -1.9450   -0.0130    3.1040 c2        1 NS4     -0.057000
     13 O5          0.5450    0.1040   -0.2450 os        1 NS4     -0.230000
     14 C6         -2.4940   -0.0220    1.8320 c1        1 NS4     -0.187000
     15 C7         -3.9990   -0.8060   -2.6040 c2        1 NS4     -0.954000
     16 C8          1.4120    0.9840   -0.1240 c3        1 NS4      0.036000
     17 C9          1.8430    1.6070   -1.5540 c3        1 NS4     -0.170000
     18 C10         2.2950    0.5610   -2.5410 c3        1 NS4     -0.153000
     19 C11         2.6390   -0.6030   -1.9170 c3        1 NS4     -0.158000
     20 C12         3.3020   -0.6920   -0.7360 c3        1 NS4     -0.153000
     21 C13         2.8350    0.3700    0.2470 c3        1 NS4     -0.170000
     22 HN1        -1.8770    0.5320   -1.2450 hn        1 NS4      0.270000
     23 H3          1.2220    0.1750    2.2670 ha        1 NS4      0.179000
     24 H5         -2.5260   -0.0590    3.8870 ha        1 NS4      0.177000
     25 H6         -3.4620   -0.0730    1.7190 ha        1 NS4      0.184000
     26 H7         -3.7510    0.0800   -2.9420 ha        1 NS4      0.160333
     27 H7A        -3.5320   -1.4960   -3.1210 ha        1 NS4      0.160333
     28 H7B        -4.9670   -0.9300   -2.6910 ha        1 NS4      0.160333
     29 H8          1.1430    1.6820    0.5070 h1        1 NS4      0.094000
     30 H9          1.0790    2.0860   -1.9320 hc        1 NS4      0.095750
     31 H9A         2.5740    2.2420   -1.4120 hc        1 NS4      0.095750
     32 H10         3.0710    0.9010   -3.0340 hc        1 NS4      0.085750
     33 H10A        1.5680    0.3820   -3.1720 hc        1 NS4      0.085750
     34 H11         3.1750   -1.1080   -2.5650 hc        1 NS4      0.082500
     35 H11A        1.8020   -1.1000   -1.7940 hc        1 NS4      0.082500
     36 H12         3.1450   -1.5780   -0.3480 hc        1 NS4      0.085750
     37 H12A        4.2610   -0.5780   -0.8980 hc        1 NS4      0.085750
     38 H13         2.7820   -0.0290    1.1380 hc        1 NS4      0.095750
     39 H13A        3.4950    1.0930    0.2650 hc        1 NS4      0.095750
@<TRIPOS>BOND
     1    1    2 1   
     2    1    5 1   
     3    2    4 1   
     4    2   22 1   
     5    3    4 1   
     6    4    7 1   
     7    5   13 1   
     8    6    9 1   
     9    6   10 1   
    10    8   10 1   
    11    8   23 1   
    12   10   12 1   
    13   12   14 1   
    14   12   24 1   
    15   13   16 1   
    16   14   25 1   
    17   15   26 1   
    18   15   27 1   
    19   15   28 1   
    20   16   17 1   
    21   16   21 1   
    22   16   29 1   
    23   17   18 1   
    24   17   30 1   
    25   17   31 1   
    26   18   19 1   
    27   18   32 1   
    28   18   33 1   
    29   19   20 1   
    30   19   34 1   
    31   19   35 1   
    32   20   21 1   
    33   20   36 1   
    34   20   37 1   
    35   21   38 1   
    36   21   39 1   
@<TRIPOS>SUBSTRUCTURE
     1 NS4         1 TEMP              0 ****  ****    0 ROOT
