@<TRIPOS>MOLECULE
NS4
   39    40     1     0     0
SMALL
bcc


@<TRIPOS>ATOM
      1 C1          0.2210    0.2900    0.1170 ca        1 NS4      0.206600
      2 N1         -0.3080    0.3780   -1.1690 nh        1 NS4     -0.764500
      3 O1         -1.8950    0.2730   -3.0400 o         1 NS4     -0.642800
      4 S1         -1.8700    0.5020   -1.6520 s6        1 NS4      1.470900
      5 C2          1.6110    0.5410    0.3420 ca        1 NS4      0.058100
      6 N2          1.9200    0.0700    4.0670 no        1 NS4      0.318200
      7 O2         -2.7180   -0.2810   -0.8520 o         1 NS4     -0.642800
      8 C3          2.1630    0.4730    1.6190 ca        1 NS4     -0.089000
      9 O3          3.0990    0.2620    4.2070 o         1 NS4     -0.209000
     10 C4          1.3380    0.1440    2.7050 ca        1 NS4     -0.189200
     11 O4          1.1990   -0.1800    4.9960 o         1 NS4     -0.209000
     12 C5         -0.0270   -0.1140    2.5120 ca        1 NS4     -0.048000
     13 O5          2.3660    0.9380   -0.7480 os        1 NS4     -0.347900
     14 C6         -0.5730   -0.0410    1.2370 ca        1 NS4     -0.192000
     15 C7         -2.2300    2.1330   -1.3650 c3        1 NS4     -0.377300
     16 C8          3.6320    0.2520   -0.9070 c3        1 NS4      0.140100
     17 C9          4.7430    1.2770   -0.7070 c3        1 NS4     -0.091400
     18 C10         6.0890    0.6690   -1.0400 c3        1 NS4     -0.076900
     19 C11         6.1090    0.1000   -2.4430 c3        1 NS4     -0.081400
     20 C12         4.9970   -0.9090   -2.6440 c3        1 NS4     -0.076900
     21 C13         3.6430   -0.3100   -2.3260 c3        1 NS4     -0.091400
     22 HN1         0.4100    0.4140   -1.8690 hn        1 NS4      0.472800
     23 H3          3.2370    0.6820    1.7690 ha        1 NS4      0.180000
     24 H5         -0.6690   -0.3810    3.3700 ha        1 NS4      0.177000
     25 H6         -1.6470   -0.2770    1.1130 ha        1 NS4      0.185000
     26 H7         -2.1340    2.4370   -0.2940 h1        1 NS4      0.122367
     27 H7A        -1.5990    2.8420   -1.9550 h1        1 NS4      0.122367
     28 H7B        -3.2910    2.3540   -1.6530 h1        1 NS4      0.122367
     29 H8          3.7290   -0.5810   -0.1600 h1        1 NS4      0.059700
     30 H9          4.7340    1.6370    0.3540 hc        1 NS4      0.053950
     31 H9A         4.5460    2.1640   -1.3650 hc        1 NS4      0.053950
     32 H10         6.8830    1.4550   -0.9410 hc        1 NS4      0.046700
     33 H10A        6.3270   -0.1420   -0.3020 hc        1 NS4      0.046700
     34 H11         7.0990   -0.3920   -2.6340 hc        1 NS4      0.045700
     35 H11A        5.9970    0.9320   -3.1870 hc        1 NS4      0.045700
     36 H12         5.1760   -1.8010   -1.9880 hc        1 NS4      0.046700
     37 H12A        5.0000   -1.2670   -3.7070 hc        1 NS4      0.046700
     38 H13         3.4060    0.5140   -3.0490 hc        1 NS4      0.053950
     39 H13A        2.8430   -1.0880   -2.4250 hc        1 NS4      0.053950
@<TRIPOS>BOND
     1    1    2 1   
     2    1    5 ar  
     3    1   14 ar  
     4    2    4 1   
     5    2   22 1   
     6    3    4 2   
     7    4    7 2   
     8    4   15 1   
     9    5    8 ar  
    10    5   13 1   
    11    6    9 1   
    12    6   10 1   
    13    6   11 1   
    14    8   10 ar  
    15    8   23 1   
    16   10   12 ar  
    17   12   14 ar  
    18   12   24 1   
    19   13   16 1   
    20   14   25 1   
    21   15   26 1   
    22   15   27 1   
    23   15   28 1   
    24   16   17 1   
    25   16   21 1   
    26   16   29 1   
    27   17   18 1   
    28   17   30 1   
    29   17   31 1   
    30   18   19 1   
    31   18   32 1   
    32   18   33 1   
    33   19   20 1   
    34   19   34 1   
    35   19   35 1   
    36   20   21 1   
    37   20   36 1   
    38   20   37 1   
    39   21   38 1   
    40   21   39 1   
@<TRIPOS>SUBSTRUCTURE
     1 NS4         1 TEMP              0 ****  ****    0 ROOT
