@<TRIPOS>MOLECULE
NS4
   39    40     1     0     0
SMALL
bcc


@<TRIPOS>ATOM
      1 C1          0.2230    0.2830    0.1170 ca        1 NS4      0.206600
      2 N1         -0.3050    0.3570   -1.1710 nh        1 NS4     -0.764500
      3 O1         -1.8870    0.2240   -3.0440 o         1 NS4     -0.642800
      4 S1         -1.8670    0.4640   -1.6580 s6        1 NS4      1.470900
      5 C2          1.6100    0.5450    0.3410 ca        1 NS4      0.058100
      6 N2          1.9170    0.1050    4.0710 no        1 NS4      0.318200
      7 O2         -2.7100   -0.3190   -0.8530 o         1 NS4     -0.642800
      8 C3          2.1600    0.4920    1.6200 ca        1 NS4     -0.089000
      9 O3          3.0940    0.3070    4.2120 o         1 NS4     -0.209000
     10 C4          1.3360    0.1650    2.7070 ca        1 NS4     -0.189200
     11 O4          1.1960   -0.1430    5.0010 o         1 NS4     -0.209000
     12 C5         -0.0260   -0.1050    2.5140 ca        1 NS4     -0.047000
     13 O5          2.3640    0.9400   -0.7500 os        1 NS4     -0.347900
     14 C6         -0.5710   -0.0460    1.2380 ca        1 NS4     -0.192000
     15 C7         -2.2410    2.0940   -1.3840 c3        1 NS4     -0.377300
     16 C8          3.6330    0.2600   -0.9040 c3        1 NS4      0.140100
     17 C9          4.7390    1.2920   -0.7120 c3        1 NS4     -0.091400
     18 C10         6.0880    0.6880   -1.0390 c3        1 NS4     -0.076900
     19 C11         6.1120    0.1080   -2.4380 c3        1 NS4     -0.081400
     20 C12         5.0040   -0.9080   -2.6310 c3        1 NS4     -0.076900
     21 C13         3.6480   -0.3140   -2.3180 c3        1 NS4     -0.091400
     22 HN1         0.4140    0.3930   -1.8700 hn        1 NS4      0.472800
     23 H3          3.2320    0.7090    1.7700 ha        1 NS4      0.180000
     24 H5         -0.6680   -0.3700    3.3730 ha        1 NS4      0.177000
     25 H6         -1.6430   -0.2910    1.1140 ha        1 NS4      0.185000
     26 H7         -2.1510    2.4070   -0.3150 h1        1 NS4      0.122367
     27 H7A        -1.6140    2.8040   -1.9770 h1        1 NS4      0.122367
     28 H7B        -3.3030    2.3050   -1.6760 h1        1 NS4      0.122367
     29 H8          3.7350   -0.5670   -0.1500 h1        1 NS4      0.059700
     30 H9          4.5370    2.1720   -1.3760 hc        1 NS4      0.053950
     31 H9A         4.7290    1.6590    0.3470 hc        1 NS4      0.053950
     32 H10         6.8780    1.4790   -0.9470 hc        1 NS4      0.046700
     33 H10A        6.3300   -0.1160   -0.2960 hc        1 NS4      0.046700
     34 H11         5.9950    0.9340   -3.1880 hc        1 NS4      0.045700
     35 H11A        7.1040   -0.3800   -2.6250 hc        1 NS4      0.045700
     36 H12         5.0100   -1.2750   -3.6910 hc        1 NS4      0.046700
     37 H12A        5.1880   -1.7940   -1.9680 hc        1 NS4      0.046700
     38 H13         3.4070    0.5030   -3.0470 hc        1 NS4      0.053950
     39 H13A        2.8520   -1.0970   -2.4110 hc        1 NS4      0.053950
@<TRIPOS>BOND
     1    1    2 1   
     2    1    5 ar  
     3    1   14 ar  
     4    2    4 1   
     5    2   22 1   
     6    3    4 2   
     7    4    7 2   
     8    4   15 1   
     9    5    8 ar  
    10    5   13 1   
    11    6    9 1   
    12    6   10 1   
    13    6   11 1   
    14    8   10 ar  
    15    8   23 1   
    16   10   12 ar  
    17   12   14 ar  
    18   12   24 1   
    19   13   16 1   
    20   14   25 1   
    21   15   26 1   
    22   15   27 1   
    23   15   28 1   
    24   16   17 1   
    25   16   21 1   
    26   16   29 1   
    27   17   18 1   
    28   17   30 1   
    29   17   31 1   
    30   18   19 1   
    31   18   32 1   
    32   18   33 1   
    33   19   20 1   
    34   19   34 1   
    35   19   35 1   
    36   20   21 1   
    37   20   36 1   
    38   20   37 1   
    39   21   38 1   
    40   21   39 1   
@<TRIPOS>SUBSTRUCTURE
     1 NS4         1 TEMP              0 ****  ****    0 ROOT
