@<TRIPOS>MOLECULE
NS5
  100    99     1     0     0
SMALL
bcc


@<TRIPOS>ATOM
      1 C1          0.0130    3.3500    0.2960 c3        1 NS5     -0.067700
      2 CM1         0.2850    4.8250    0.0900 c3        1 NS5     -0.089600
      3 CM2        -0.3560    3.0850    1.7420 c3        1 NS5     -0.089600
      4 C2         -1.0920    2.8540   -0.6250 c3        1 NS5     -0.076400
      5 C3         -0.6230    2.7030   -2.0560 c3        1 NS5     -0.076400
      6 C4         -1.7370    2.1700   -2.9390 c3        1 NS5     -0.041200
      7 C5         -1.3130    2.0710   -4.3640 c2        1 NS5     -0.120400
      8 C6         -1.0760    3.3500   -5.0750 c3        1 NS5     -0.058900
      9 C7         -1.1630    0.8810   -4.9680 c2        1 NS5     -0.177200
     10 C8         -0.7600    0.7300   -6.3860 c3        1 NS5     -0.043200
     11 C9         -0.4750   -0.7180   -6.7440 c3        1 NS5     -0.044200
     12 C10        -0.1140   -0.8660   -8.1830 c2        1 NS5     -0.097400
     13 C11        -1.2230   -0.7180   -9.1550 c3        1 NS5     -0.063900
     14 C12         1.1550   -1.1340   -8.5510 ce        1 NS5     -0.148000
     15 C13         1.5910   -1.3070   -9.9180 ce        1 NS5     -0.121000
     16 C14         2.8700   -1.5780  -10.2400 cf        1 NS5     -0.130000
     17 C15         3.3630   -1.7680  -11.5960 cf        1 NS5     -0.064200
     18 C16         2.4230   -1.4760  -12.7050 c3        1 NS5     -0.062900
     19 C17         4.6350   -2.1930  -11.7790 ce        1 NS5     -0.133000
     20 C18         5.2560   -2.4680  -13.0500 ce        1 NS5     -0.122000
     21 C19         6.5810   -2.6060  -13.2580 cf        1 NS5     -0.124000
     22 C20         7.6040   -2.4410  -12.2560 cf        1 NS5     -0.131000
     23 C21         8.8900   -2.8500  -12.3640 ce        1 NS5     -0.066200
     24 C22         9.4270   -3.5830  -13.5360 c3        1 NS5     -0.062900
     25 C23         9.8140   -2.5670  -11.2760 ce        1 NS5     -0.127000
     26 C24        11.1420   -2.7860  -11.3190 cf        1 NS5     -0.123000
     27 C25        12.0140   -2.4790  -10.2100 cf        1 NS5     -0.141000
     28 C26        13.3480   -2.6960  -10.2030 ce        1 NS5     -0.065200
     29 C27        14.0740   -3.2580  -11.3680 c3        1 NS5     -0.062900
     30 C28        14.1310   -2.3310   -9.0280 ce        1 NS5     -0.131000
     31 C29        15.0330   -3.0950   -8.3910 cf        1 NS5     -0.118000
     32 C30        15.3700   -4.4590   -8.7300 cf        1 NS5     -0.150000
     33 C31        16.3720   -5.1580   -8.1640 c2        1 NS5     -0.098400
     34 C32        17.2630   -4.5950   -7.1210 c3        1 NS5     -0.063900
     35 C33        16.6290   -6.5740   -8.5540 c3        1 NS5     -0.044200
     36 C34        17.8770   -6.7020   -9.4080 c3        1 NS5     -0.042200
     37 C35        18.1670   -8.1120   -9.7590 c2        1 NS5     -0.179200
     38 C36        19.2710   -8.4960  -10.4200 c2        1 NS5     -0.122400
     39 CM3        20.3100   -7.5300  -10.8510 c3        1 NS5     -0.058400
     40 CM4        19.5240   -9.9170  -10.7580 c3        1 NS5     -0.058400
     41 H1          0.9560    2.7780    0.0610 hc        1 NS5      0.046700
     42 HM11        0.5940    5.0240   -0.9640 hc        1 NS5      0.033033
     43 HM12        1.1050    5.1650    0.7690 hc        1 NS5      0.033033
     44 HM13       -0.6280    5.4280    0.3110 hc        1 NS5      0.033033
     45 HM21       -0.4890    1.9900    1.9170 hc        1 NS5      0.033033
     46 HM22       -1.3100    3.6030    2.0030 hc        1 NS5      0.033033
     47 HM23        0.4470    3.4580    2.4220 hc        1 NS5      0.033033
     48 H21        -1.4610    1.8610   -0.2540 hc        1 NS5      0.039700
     49 H22        -1.9580    3.5660   -0.5850 hc        1 NS5      0.039700
     50 H31        -0.2740    3.6930   -2.4520 hc        1 NS5      0.043200
     51 H32         0.2530    2.0020   -2.0960 hc        1 NS5      0.043200
     52 H41        -2.0620    1.1660   -2.5570 hc        1 NS5      0.044200
     53 H42        -2.6260    2.8540   -2.8690 hc        1 NS5      0.044200
     54 H61         0.0190    3.4910   -5.2580 hc        1 NS5      0.041367
     55 H62        -1.5940    3.3500   -6.0670 hc        1 NS5      0.041367
     56 H63        -1.4480    4.2210   -4.4820 hc        1 NS5      0.041367
     57 H7         -1.3430   -0.0550   -4.4140 ha        1 NS5      0.122000
     58 H81         0.1540    1.3530   -6.5890 hc        1 NS5      0.050700
     59 H82        -1.5760    1.1280   -7.0500 hc        1 NS5      0.050700
     60 H91        -1.3850   -1.3420   -6.5290 hc        1 NS5      0.048700
     61 H92         0.3530   -1.1020   -6.0900 hc        1 NS5      0.048700
     62 H111       -1.3650   -1.6670   -9.7310 hc        1 NS5      0.044033
     63 H112       -2.1840   -0.4730   -8.6410 hc        1 NS5      0.044033
     64 H113       -0.9990    0.1000   -9.8850 hc        1 NS5      0.044033
     65 H12         1.9380   -1.2360   -7.7780 ha        1 NS5      0.124000
     66 H13         0.8160   -1.2110  -10.6970 ha        1 NS5      0.125000
     67 H14         3.6280   -1.6790   -9.4410 ha        1 NS5      0.123000
     68 H161        1.6250   -2.2590  -12.7450 hc        1 NS5      0.044700
     69 H162        1.9330   -0.4830  -12.5440 hc        1 NS5      0.044700
     70 H163        2.9370   -1.4460  -13.6960 hc        1 NS5      0.044700
     71 H17         5.2690   -2.3670  -10.8900 ha        1 NS5      0.125000
     72 H18         4.5760   -2.5960  -13.9120 ha        1 NS5      0.123000
     73 H19         6.9270   -2.8440  -14.2800 ha        1 NS5      0.123000
     74 H20         7.2890   -1.9170  -11.3340 ha        1 NS5      0.125000
     75 H221       10.0020   -4.4820  -13.1980 hc        1 NS5      0.045033
     76 H222       10.1190   -2.9210  -14.1160 hc        1 NS5      0.045033
     77 H223        8.6190   -3.9330  -14.2210 hc        1 NS5      0.045033
     78 H23         9.3590   -2.1320  -10.3680 ha        1 NS5      0.123000
     79 H24        11.6200   -3.2120  -12.2180 ha        1 NS5      0.126000
     80 H25        11.5300   -2.0450   -9.3160 ha        1 NS5      0.124000
     81 H271       13.9120   -2.6170  -12.2710 hc        1 NS5      0.046033
     82 H272       13.7030   -4.2880  -11.6020 hc        1 NS5      0.046033
     83 H273       15.1730   -3.3160  -11.1710 hc        1 NS5      0.046033
     84 H28        13.9250   -1.3140   -8.6450 ha        1 NS5      0.125000
     85 H29        15.5610   -2.6730   -7.5160 ha        1 NS5      0.122000
     86 H30        14.7360   -4.9340   -9.5010 ha        1 NS5      0.129000
     87 H321       17.7420   -3.6490   -7.4790 hc        1 NS5      0.044033
     88 H322       16.6780   -4.3610   -6.1970 hc        1 NS5      0.044033
     89 H323       18.0740   -5.3140   -6.8480 hc        1 NS5      0.044033
     90 H331       16.7480   -7.1940   -7.6240 hc        1 NS5      0.049200
     91 H332       15.7520   -6.9900   -9.1180 hc        1 NS5      0.049200
     92 H341       17.7490   -6.1010  -10.3510 hc        1 NS5      0.050200
     93 H342       18.7550   -6.2600   -8.8610 hc        1 NS5      0.050200
     94 H351       17.4130   -8.8540   -9.4490 ha        1 NS5      0.123000
     95 HM31       19.8480   -6.6950  -11.4360 hc        1 NS5      0.040700
     96 HM32       21.0840   -8.0230  -11.4880 hc        1 NS5      0.040700
     97 HM33       20.8170   -7.0850   -9.9580 hc        1 NS5      0.040700
     98 HM41       19.5880  -10.0410  -11.8680 hc        1 NS5      0.040700
     99 HM42       20.4970  -10.2490  -10.3150 hc        1 NS5      0.040700
    100 HM43       18.7150  -10.5850  -10.3740 hc        1 NS5      0.040700
@<TRIPOS>BOND
     1    1    2 1   
     2    1    3 1   
     3    1    4 1   
     4    1   41 1   
     5    2   42 1   
     6    2   43 1   
     7    2   44 1   
     8    3   45 1   
     9    3   46 1   
    10    3   47 1   
    11    4    5 1   
    12    4   48 1   
    13    4   49 1   
    14    5    6 1   
    15    5   50 1   
    16    5   51 1   
    17    6    7 1   
    18    6   52 1   
    19    6   53 1   
    20    7    8 1   
    21    7    9 2   
    22    8   54 1   
    23    8   55 1   
    24    8   56 1   
    25    9   10 1   
    26    9   57 1   
    27   10   11 1   
    28   10   58 1   
    29   10   59 1   
    30   11   12 1   
    31   11   60 1   
    32   11   61 1   
    33   12   13 1   
    34   12   14 2   
    35   13   62 1   
    36   13   63 1   
    37   13   64 1   
    38   14   15 1   
    39   14   65 1   
    40   15   16 2   
    41   15   66 1   
    42   16   17 1   
    43   16   67 1   
    44   17   18 1   
    45   17   19 2   
    46   18   68 1   
    47   18   69 1   
    48   18   70 1   
    49   19   20 1   
    50   19   71 1   
    51   20   21 2   
    52   20   72 1   
    53   21   22 1   
    54   21   73 1   
    55   22   23 2   
    56   22   74 1   
    57   23   24 1   
    58   23   25 1   
    59   24   75 1   
    60   24   76 1   
    61   24   77 1   
    62   25   26 2   
    63   25   78 1   
    64   26   27 1   
    65   26   79 1   
    66   27   28 2   
    67   27   80 1   
    68   28   29 1   
    69   28   30 1   
    70   29   81 1   
    71   29   82 1   
    72   29   83 1   
    73   30   31 2   
    74   30   84 1   
    75   31   32 1   
    76   31   85 1   
    77   32   33 2   
    78   32   86 1   
    79   33   34 1   
    80   33   35 1   
    81   34   87 1   
    82   34   88 1   
    83   34   89 1   
    84   35   36 1   
    85   35   90 1   
    86   35   91 1   
    87   36   37 1   
    88   36   92 1   
    89   36   93 1   
    90   37   38 2   
    91   37   94 1   
    92   38   39 1   
    93   38   40 1   
    94   39   95 1   
    95   39   96 1   
    96   39   97 1   
    97   40   98 1   
    98   40   99 1   
    99   40  100 1   
@<TRIPOS>SUBSTRUCTURE
     1 NS5         1 TEMP              0 ****  ****    0 ROOT
