@<TRIPOS>MOLECULE
NS5
  100    99     1     0     0
SMALL
bcc


@<TRIPOS>ATOM
      1 C1          0.0810    3.2390    0.3560 c3        1 NS5     -0.067700
      2 CM1         0.3450    4.7170    0.1640 c3        1 NS5     -0.089600
      3 CM2        -0.2740    2.9560    1.8020 c3        1 NS5     -0.089600
      4 C2         -1.0300    2.7480   -0.5610 c3        1 NS5     -0.076400
      5 C3         -0.5730    2.6150   -1.9980 c3        1 NS5     -0.076400
      6 C4         -1.6930    2.0880   -2.8760 c3        1 NS5     -0.041200
      7 C5         -1.2810    2.0050   -4.3060 c2        1 NS5     -0.119400
      8 C6         -1.0550    3.2920   -5.0050 c3        1 NS5     -0.058900
      9 C7         -1.1310    0.8210   -4.9230 c2        1 NS5     -0.177200
     10 C8         -0.7400    0.6870   -6.3460 c3        1 NS5     -0.043200
     11 C9         -0.4510   -0.7550   -6.7210 c3        1 NS5     -0.044200
     12 C10        -0.1000   -0.8880   -8.1640 c2        1 NS5     -0.098400
     13 C11        -1.2180   -0.7370   -9.1260 c3        1 NS5     -0.063900
     14 C12         1.1670   -1.1450   -8.5440 ce        1 NS5     -0.148000
     15 C13         1.5940   -1.3020   -9.9160 ce        1 NS5     -0.121000
     16 C14         2.8720   -1.5600  -10.2510 cf        1 NS5     -0.130000
     17 C15         3.3550   -1.7350  -11.6130 cf        1 NS5     -0.064200
     18 C16         2.4030   -1.4450  -12.7120 c3        1 NS5     -0.062900
     19 C17         4.6300   -2.1450  -11.8090 ce        1 NS5     -0.133000
     20 C18         5.2440   -2.4040  -13.0880 ce        1 NS5     -0.122000
     21 C19         6.5680   -2.5270  -13.3060 cf        1 NS5     -0.124000
     22 C20         7.5970   -2.3580  -12.3110 cf        1 NS5     -0.131000
     23 C21         8.8840   -2.7620  -12.4250 ce        1 NS5     -0.066200
     24 C22         9.4170   -3.4940  -13.6000 c3        1 NS5     -0.062900
     25 C23         9.8130   -2.4750  -11.3430 ce        1 NS5     -0.127000
     26 C24        11.1390   -2.7040  -11.3870 cf        1 NS5     -0.123000
     27 C25        12.0160   -2.3930  -10.2830 cf        1 NS5     -0.141000
     28 C26        13.3480   -2.6250  -10.2750 ce        1 NS5     -0.065200
     29 C27        14.0660   -3.2100  -11.4340 c3        1 NS5     -0.062900
     30 C28        14.1370   -2.2530   -9.1060 ce        1 NS5     -0.131000
     31 C29        15.0290   -3.0190   -8.4590 cf        1 NS5     -0.118000
     32 C30        15.3480   -4.3920   -8.7790 cf        1 NS5     -0.150000
     33 C31        16.3400   -5.0970   -8.2020 c2        1 NS5     -0.098400
     34 C32        17.2380   -4.5320   -7.1660 c3        1 NS5     -0.063900
     35 C33        16.5770   -6.5220   -8.5720 c3        1 NS5     -0.044200
     36 C34        17.8250   -6.6790   -9.4230 c3        1 NS5     -0.042200
     37 C35        18.0950   -8.0970   -9.7540 c2        1 NS5     -0.179200
     38 C36        19.1970   -8.5070  -10.4040 c2        1 NS5     -0.122400
     39 CM3        20.2520   -7.5620  -10.8430 c3        1 NS5     -0.058400
     40 CM4        19.4310   -9.9360  -10.7220 c3        1 NS5     -0.058400
     41 H1          1.0240    2.6730    0.1060 hc        1 NS5      0.046700
     42 HM11        0.6430    4.9290   -0.8900 hc        1 NS5      0.033033
     43 HM12        1.1700    5.0530    0.8390 hc        1 NS5      0.033033
     44 HM13       -0.5690    5.3140    0.4010 hc        1 NS5      0.033033
     45 HM21       -0.4010    1.8590    1.9660 hc        1 NS5      0.033033
     46 HM22       -1.2280    3.4670    2.0780 hc        1 NS5      0.033033
     47 HM23        0.5340    3.3250    2.4790 hc        1 NS5      0.033033
     48 H21        -1.3920    1.7500   -0.1980 hc        1 NS5      0.039700
     49 H22        -1.8990    3.4560   -0.5050 hc        1 NS5      0.039700
     50 H31        -0.2320    3.6100   -2.3850 hc        1 NS5      0.043200
     51 H32         0.3050    1.9180   -2.0520 hc        1 NS5      0.043200
     52 H41        -2.0110    1.0780   -2.5020 hc        1 NS5      0.044200
     53 H42        -2.5840    2.7670   -2.7920 hc        1 NS5      0.044200
     54 H61         0.0390    3.4390   -5.1960 hc        1 NS5      0.041367
     55 H62        -1.5810    3.3010   -5.9930 hc        1 NS5      0.041367
     56 H63        -1.4250    4.1550   -4.4000 hc        1 NS5      0.041367
     57 H7         -1.3040   -0.1210   -4.3780 ha        1 NS5      0.122000
     58 H81         0.1690    1.3170   -6.5510 hc        1 NS5      0.050700
     59 H82        -1.5640    1.0870   -6.9990 hc        1 NS5      0.050700
     60 H91        -1.3550   -1.3870   -6.5050 hc        1 NS5      0.048700
     61 H92         0.3840   -1.1430   -6.0770 hc        1 NS5      0.048700
     62 H111       -1.3610   -1.6830   -9.7080 hc        1 NS5      0.044033
     63 H112       -2.1760   -0.5020   -8.6020 hc        1 NS5      0.044033
     64 H113       -1.0040    0.0880   -9.8510 hc        1 NS5      0.044033
     65 H12         1.9570   -1.2480   -7.7790 ha        1 NS5      0.124000
     66 H13         0.8110   -1.2050  -10.6890 ha        1 NS5      0.125000
     67 H14         3.6360   -1.6620   -9.4600 ha        1 NS5      0.123000
     68 H161        1.6100   -2.2340  -12.7490 hc        1 NS5      0.044700
     69 H162        1.9070   -0.4570  -12.5420 hc        1 NS5      0.044700
     70 H163        2.9070   -1.4060  -13.7070 hc        1 NS5      0.044700
     71 H17         5.2740   -2.3190  -10.9270 ha        1 NS5      0.125000
     72 H18         4.5590   -2.5320  -13.9450 ha        1 NS5      0.123000
     73 H19         6.9100   -2.7540  -14.3320 ha        1 NS5      0.123000
     74 H20         7.2850   -1.8350  -11.3870 ha        1 NS5      0.125000
     75 H221        9.9830   -4.4000  -13.2650 hc        1 NS5      0.045033
     76 H222       10.1170   -2.8360  -14.1750 hc        1 NS5      0.045033
     77 H223        8.6070   -3.8330  -14.2900 hc        1 NS5      0.045033
     78 H23         9.3640   -2.0290  -10.4370 ha        1 NS5      0.123000
     79 H24        11.6120   -3.1430  -12.2830 ha        1 NS5      0.126000
     80 H25        11.5380   -1.9430   -9.3950 ha        1 NS5      0.124000
     81 H271       13.9110   -2.5770  -12.3440 hc        1 NS5      0.046033
     82 H272       13.6820   -4.2380  -11.6550 hc        1 NS5      0.046033
     83 H273       15.1640   -3.2780  -11.2370 hc        1 NS5      0.046033
     84 H28        13.9440   -1.2280   -8.7380 ha        1 NS5      0.125000
     85 H29        15.5640   -2.5920   -7.5910 ha        1 NS5      0.122000
     86 H30        14.7090   -4.8690   -9.5440 ha        1 NS5      0.129000
     87 H321       17.7300   -3.5980   -7.5370 hc        1 NS5      0.044033
     88 H322       16.6540   -4.2760   -6.2460 hc        1 NS5      0.044033
     89 H323       18.0380   -5.2590   -6.8820 hc        1 NS5      0.044033
     90 H331       16.6860   -7.1310   -7.6340 hc        1 NS5      0.049200
     91 H332       15.6950   -6.9330   -9.1330 hc        1 NS5      0.049200
     92 H341       17.7070   -6.0900  -10.3740 hc        1 NS5      0.050200
     93 H342       18.7080   -6.2420   -8.8800 hc        1 NS5      0.050200
     94 H351       17.3300   -8.8240   -9.4370 ha        1 NS5      0.123000
     95 HM31       19.8050   -6.7260  -11.4380 hc        1 NS5      0.040700
     96 HM32       21.0190   -8.0740  -11.4730 hc        1 NS5      0.040700
     97 HM33       20.7640   -7.1150   -9.9540 hc        1 NS5      0.040700
     98 HM41       19.4960  -10.0750  -11.8310 hc        1 NS5      0.040700
     99 HM42       20.3960  -10.2760  -10.2710 hc        1 NS5      0.040700
    100 HM43       18.6100  -10.5860  -10.3330 hc        1 NS5      0.040700
@<TRIPOS>BOND
     1    1    2 1   
     2    1    3 1   
     3    1    4 1   
     4    1   41 1   
     5    2   42 1   
     6    2   43 1   
     7    2   44 1   
     8    3   45 1   
     9    3   46 1   
    10    3   47 1   
    11    4    5 1   
    12    4   48 1   
    13    4   49 1   
    14    5    6 1   
    15    5   50 1   
    16    5   51 1   
    17    6    7 1   
    18    6   52 1   
    19    6   53 1   
    20    7    8 1   
    21    7    9 2   
    22    8   54 1   
    23    8   55 1   
    24    8   56 1   
    25    9   10 1   
    26    9   57 1   
    27   10   11 1   
    28   10   58 1   
    29   10   59 1   
    30   11   12 1   
    31   11   60 1   
    32   11   61 1   
    33   12   13 1   
    34   12   14 2   
    35   13   62 1   
    36   13   63 1   
    37   13   64 1   
    38   14   15 1   
    39   14   65 1   
    40   15   16 2   
    41   15   66 1   
    42   16   17 1   
    43   16   67 1   
    44   17   18 1   
    45   17   19 2   
    46   18   68 1   
    47   18   69 1   
    48   18   70 1   
    49   19   20 1   
    50   19   71 1   
    51   20   21 2   
    52   20   72 1   
    53   21   22 1   
    54   21   73 1   
    55   22   23 2   
    56   22   74 1   
    57   23   24 1   
    58   23   25 1   
    59   24   75 1   
    60   24   76 1   
    61   24   77 1   
    62   25   26 2   
    63   25   78 1   
    64   26   27 1   
    65   26   79 1   
    66   27   28 2   
    67   27   80 1   
    68   28   29 1   
    69   28   30 1   
    70   29   81 1   
    71   29   82 1   
    72   29   83 1   
    73   30   31 2   
    74   30   84 1   
    75   31   32 1   
    76   31   85 1   
    77   32   33 2   
    78   32   86 1   
    79   33   34 1   
    80   33   35 1   
    81   34   87 1   
    82   34   88 1   
    83   34   89 1   
    84   35   36 1   
    85   35   90 1   
    86   35   91 1   
    87   36   37 1   
    88   36   92 1   
    89   36   93 1   
    90   37   38 2   
    91   37   94 1   
    92   38   39 1   
    93   38   40 1   
    94   39   95 1   
    95   39   96 1   
    96   39   97 1   
    97   40   98 1   
    98   40   99 1   
    99   40  100 1   
@<TRIPOS>SUBSTRUCTURE
     1 NS5         1 TEMP              0 ****  ****    0 ROOT
