@<TRIPOS>MOLECULE
NS5
  100    99     1     0     0
SMALL
bcc


@<TRIPOS>ATOM
      1 C1          8.9290    7.1200    0.4800 c3        1 NS5     -0.067700
      2 CM1         8.9890    7.3480    1.9760 c3        1 NS5     -0.089600
      3 CM2         9.3670    8.3700   -0.2550 c3        1 NS5     -0.089600
      4 C2          9.7930    5.9380    0.0630 c3        1 NS5     -0.076400
      5 C3          9.1640    4.6100    0.4230 c3        1 NS5     -0.076400
      6 C4         10.0310    3.4550   -0.0410 c3        1 NS5     -0.041200
      7 C5          9.4580    2.1380    0.3570 c2        1 NS5     -0.119400
      8 C6          9.4570    1.8290    1.8080 c3        1 NS5     -0.058900
      9 C7          8.9760    1.2790   -0.5560 c2        1 NS5     -0.177200
     10 C8          8.4130   -0.0470   -0.2110 c3        1 NS5     -0.043200
     11 C9          7.7640   -0.7170   -1.4090 c3        1 NS5     -0.044200
     12 C10         7.2390   -2.0690   -1.0640 c2        1 NS5     -0.097400
     13 C11         8.2510   -3.1340   -0.8670 c3        1 NS5     -0.063900
     14 C12         5.9130   -2.2880   -0.9600 ce        1 NS5     -0.149000
     15 C13         5.3170   -3.5660   -0.6440 ce        1 NS5     -0.121000
     16 C14         3.9850   -3.7400   -0.5520 cf        1 NS5     -0.130000
     17 C15         3.3310   -5.0030   -0.2440 cf        1 NS5     -0.064200
     18 C16         4.2000   -6.1350    0.1590 c3        1 NS5     -0.062900
     19 C17         1.9830   -5.0840   -0.3360 ce        1 NS5     -0.133000
     20 C18         1.1940   -6.2690   -0.1070 ce        1 NS5     -0.121000
     21 C19        -0.1390   -6.2920    0.0900 cf        1 NS5     -0.124000
     22 C20        -0.9920   -5.1320    0.1650 cf        1 NS5     -0.130000
     23 C21        -2.3430   -5.1370    0.0770 ce        1 NS5     -0.067200
     24 C22        -3.1490   -6.3590   -0.1580 c3        1 NS5     -0.062900
     25 C23        -3.0640   -3.8810    0.2190 ce        1 NS5     -0.125000
     26 C24        -4.4030   -3.7690    0.3200 cf        1 NS5     -0.124000
     27 C25        -5.0580   -2.4920    0.4610 cf        1 NS5     -0.132000
     28 C26        -6.3850   -2.2870    0.6320 ce        1 NS5     -0.064200
     29 C27        -7.3870   -3.3760    0.7240 c3        1 NS5     -0.061900
     30 C28        -6.8790   -0.9210    0.7310 ce        1 NS5     -0.130000
     31 C29        -8.1790   -0.5720    0.7210 cf        1 NS5     -0.121000
     32 C30        -8.6140    0.8030    0.8170 cf        1 NS5     -0.149000
     33 C31        -9.9020    1.1990    0.7870 c2        1 NS5     -0.097400
     34 C32       -11.0360    0.2530    0.6520 c3        1 NS5     -0.063900
     35 C33       -10.2590    2.6420    0.9080 c3        1 NS5     -0.044200
     36 C34       -10.7350    3.2130   -0.4160 c3        1 NS5     -0.042200
     37 C35       -11.1340    4.6340   -0.2940 c2        1 NS5     -0.179200
     38 C36       -11.4640    5.4000   -1.3460 c2        1 NS5     -0.121400
     39 CM3       -11.4470    4.8840   -2.7360 c3        1 NS5     -0.058400
     40 CM4       -11.8640    6.8190   -1.1850 c3        1 NS5     -0.058400
     41 H1          7.8610    6.8970    0.1960 hc        1 NS5      0.046700
     42 HM11        8.6330    6.4430    2.5260 hc        1 NS5      0.033033
     43 HM12       10.0350    7.5690    2.2980 hc        1 NS5      0.033033
     44 HM13        8.3410    8.2120    2.2610 hc        1 NS5      0.033033
     45 HM21       10.4360    8.6020   -0.0310 hc        1 NS5      0.033033
     46 HM22        9.2580    8.2340   -1.3580 hc        1 NS5      0.033033
     47 HM23        8.7430    9.2420    0.0570 hc        1 NS5      0.033033
     48 H21         9.9560    5.9760   -1.0480 hc        1 NS5      0.039700
     49 H22        10.8010    6.0230    0.5480 hc        1 NS5      0.039700
     50 H31         9.0180    4.5440    1.5340 hc        1 NS5      0.043200
     51 H32         8.1500    4.5300   -0.0500 hc        1 NS5      0.043200
     52 H41        10.1490    3.5080   -1.1570 hc        1 NS5      0.044200
     53 H42        11.0570    3.5560    0.4050 hc        1 NS5      0.044200
     54 H61        10.0780    2.5600    2.3810 hc        1 NS5      0.041700
     55 H62         8.4120    1.8640    2.2070 hc        1 NS5      0.041700
     56 H63         9.8610    0.8010    1.9900 hc        1 NS5      0.041700
     57 H7          8.9870    1.5370   -1.6270 ha        1 NS5      0.122000
     58 H81         9.2300   -0.7070    0.1910 hc        1 NS5      0.050700
     59 H82         7.6540    0.0650    0.6120 hc        1 NS5      0.050700
     60 H91         6.9370   -0.0610   -1.7940 hc        1 NS5      0.048700
     61 H92         8.5190   -0.8170   -2.2360 hc        1 NS5      0.048700
     62 H111        8.1550   -3.5830    0.1530 hc        1 NS5      0.044033
     63 H112        8.1110   -3.9490   -1.6210 hc        1 NS5      0.044033
     64 H113        9.2890   -2.7330   -0.9750 hc        1 NS5      0.044033
     65 H12         5.2080   -1.4530   -1.1210 ha        1 NS5      0.124000
     66 H13         6.0130   -4.4070   -0.4840 ha        1 NS5      0.125000
     67 H14         3.3070   -2.8840   -0.7240 ha        1 NS5      0.123000
     68 H161        4.9230   -5.8050    0.9480 hc        1 NS5      0.045033
     69 H162        3.6140   -6.9910    0.5720 hc        1 NS5      0.045033
     70 H163        4.7860   -6.5000   -0.7230 hc        1 NS5      0.045033
     71 H17         1.4160   -4.1810   -0.6260 ha        1 NS5      0.125000
     72 H18         1.7370   -7.2310   -0.1170 ha        1 NS5      0.123000
     73 H19        -0.6300   -7.2720    0.2280 ha        1 NS5      0.123000
     74 H20        -0.4740   -4.1680    0.3230 ha        1 NS5      0.125000
     75 H221       -3.6960   -6.6420    0.7760 hc        1 NS5      0.045033
     76 H222       -3.9030   -6.1750   -0.9650 hc        1 NS5      0.045033
     77 H223       -2.5190   -7.2250   -0.4740 hc        1 NS5      0.045033
     78 H23        -2.4330   -2.9740    0.2520 ha        1 NS5      0.123000
     79 H24        -5.0420   -4.6680    0.2940 ha        1 NS5      0.127000
     80 H25        -4.3870   -1.6130    0.4140 ha        1 NS5      0.122000
     81 H271       -8.0700   -3.1990    1.5930 hc        1 NS5      0.044367
     82 H272       -8.0060   -3.4030   -0.2080 hc        1 NS5      0.044367
     83 H273       -6.9150   -4.3780    0.8600 hc        1 NS5      0.044367
     84 H28        -6.1010   -0.1400    0.8090 ha        1 NS5      0.123000
     85 H29        -8.9720   -1.3350    0.6350 ha        1 NS5      0.125000
     86 H30        -7.8130    1.5560    0.9210 ha        1 NS5      0.124000
     87 H321      -11.0570   -0.4560    1.5180 hc        1 NS5      0.044033
     88 H322      -12.0140    0.7930    0.6190 hc        1 NS5      0.044033
     89 H323      -10.9370   -0.3480   -0.2860 hc        1 NS5      0.044033
     90 H331      -11.0710    2.7540    1.6770 hc        1 NS5      0.048700
     91 H332       -9.3760    3.2350    1.2690 hc        1 NS5      0.048700
     92 H341       -9.9170    3.1130   -1.1820 hc        1 NS5      0.050700
     93 H342      -11.6070    2.6100   -0.7930 hc        1 NS5      0.050700
     94 H351      -11.1530    5.0480    0.7270 ha        1 NS5      0.122000
     95 HM31      -12.0340    3.9340   -2.8090 hc        1 NS5      0.040700
     96 HM32      -11.8820    5.6250   -3.4510 hc        1 NS5      0.040700
     97 HM33      -10.3960    4.6630   -3.0520 hc        1 NS5      0.040700
     98 HM41      -11.8200    7.1420   -0.1170 hc        1 NS5      0.040700
     99 HM42      -11.1870    7.4780   -1.7830 hc        1 NS5      0.040700
    100 HM43      -12.9100    6.9660   -1.5560 hc        1 NS5      0.040700
@<TRIPOS>BOND
     1    1    2 1   
     2    1    3 1   
     3    1    4 1   
     4    1   41 1   
     5    2   42 1   
     6    2   43 1   
     7    2   44 1   
     8    3   45 1   
     9    3   46 1   
    10    3   47 1   
    11    4    5 1   
    12    4   48 1   
    13    4   49 1   
    14    5    6 1   
    15    5   50 1   
    16    5   51 1   
    17    6    7 1   
    18    6   52 1   
    19    6   53 1   
    20    7    8 1   
    21    7    9 2   
    22    8   54 1   
    23    8   55 1   
    24    8   56 1   
    25    9   10 1   
    26    9   57 1   
    27   10   11 1   
    28   10   58 1   
    29   10   59 1   
    30   11   12 1   
    31   11   60 1   
    32   11   61 1   
    33   12   13 1   
    34   12   14 2   
    35   13   62 1   
    36   13   63 1   
    37   13   64 1   
    38   14   15 1   
    39   14   65 1   
    40   15   16 2   
    41   15   66 1   
    42   16   17 1   
    43   16   67 1   
    44   17   18 1   
    45   17   19 2   
    46   18   68 1   
    47   18   69 1   
    48   18   70 1   
    49   19   20 1   
    50   19   71 1   
    51   20   21 2   
    52   20   72 1   
    53   21   22 1   
    54   21   73 1   
    55   22   23 2   
    56   22   74 1   
    57   23   24 1   
    58   23   25 1   
    59   24   75 1   
    60   24   76 1   
    61   24   77 1   
    62   25   26 2   
    63   25   78 1   
    64   26   27 1   
    65   26   79 1   
    66   27   28 2   
    67   27   80 1   
    68   28   29 1   
    69   28   30 1   
    70   29   81 1   
    71   29   82 1   
    72   29   83 1   
    73   30   31 2   
    74   30   84 1   
    75   31   32 1   
    76   31   85 1   
    77   32   33 2   
    78   32   86 1   
    79   33   34 1   
    80   33   35 1   
    81   34   87 1   
    82   34   88 1   
    83   34   89 1   
    84   35   36 1   
    85   35   90 1   
    86   35   91 1   
    87   36   37 1   
    88   36   92 1   
    89   36   93 1   
    90   37   38 2   
    91   37   94 1   
    92   38   39 1   
    93   38   40 1   
    94   39   95 1   
    95   39   96 1   
    96   39   97 1   
    97   40   98 1   
    98   40   99 1   
    99   40  100 1   
@<TRIPOS>SUBSTRUCTURE
     1 NS5         1 TEMP              0 ****  ****    0 ROOT
