@<TRIPOS>MOLECULE
NS5
  100    88     1     0     0
SMALL
bcc


@<TRIPOS>ATOM
      1 C1         -6.3300   -0.4620    8.2260 c3        1 NS5     -0.107000
      2 CM1        -6.5430   -0.4140    9.7290 c3        1 NS5     -0.208000
      3 CM2        -5.7360   -1.7970    7.8440 c3        1 NS5     -0.208000
      4 C2         -5.3710    0.6660    7.8090 c3        1 NS5     -0.155000
      5 C3         -5.9090    1.3580    6.5440 c3        1 NS5     -0.153000
      6 C4         -4.8950    2.4100    6.0650 c3        1 NS5     -0.128000
      7 C5         -5.3640    3.0050    4.7220 c2        1 NS5     -0.113000
      8 C6         -6.6290    3.8850    4.6690 c3        1 NS5     -0.180000
      9 C7         -4.6410    2.7480    3.5510 c1        1 NS5     -0.169000
     10 C8         -3.3600    1.8580    3.6020 c2        1 NS5     -0.126000
     11 C9         -2.7660    1.7160    2.1570 c3        1 NS5     -0.128000
     12 C10        -1.4870    0.8140    2.2010 c2        1 NS5     -0.093000
     13 C11        -0.2740    1.2460    3.0210 c3        1 NS5     -0.184000
     14 C12        -1.4550   -0.3660    1.4980 c1        1 NS5     -0.145000
     15 C13        -2.6540   -0.7930    0.6840 c1        1 NS5     -0.125000
     16 C14        -2.5310   -1.7960   -0.2530 c1        1 NS5     -0.125000
     17 C15        -1.1860   -2.4740   -0.4690 c1        1 NS5     -0.067000
     18 C16        -0.0870   -2.3440    0.5830 c3        1 NS5     -0.183000
     19 C17        -0.9600   -3.2070   -1.6160 c1        1 NS5     -0.137000
     20 C18        -2.0610   -3.3390   -2.6720 c1        1 NS5     -0.125000
     21 C19        -1.7360   -3.6830   -3.9730 c1        1 NS5     -0.125000
     22 C20        -0.2740   -3.9310   -4.3580 c1        1 NS5     -0.136500
     23 C21         0.0770   -4.0590   -5.6880 c1        1 NS5     -0.069500
     24 C22        -1.0040   -3.9530   -6.7840 c2        1 NS5     -0.183500
     25 C23         1.5610   -4.3110   -6.0820 c2        1 NS5     -0.125500
     26 C24         2.4450   -3.2440   -6.1780 c1        1 NS5     -0.123000
     27 C25         1.9680   -1.8360   -5.8990 c1        1 NS5     -0.136500
     28 C26         2.4620   -0.7800   -6.6380 c1        1 NS5     -0.069500
     29 C27         3.4990   -1.0350   -7.7490 c2        1 NS5     -0.183500
     30 C28         1.9780    0.6510   -6.3520 c2        1 NS5     -0.125500
     31 C29         2.8100    1.5470   -5.6980 c1        1 NS5     -0.123000
     32 C30         4.2140    1.1110   -5.2580 c1        1 NS5     -0.149000
     33 C31         5.0370    1.9990   -4.6120 c1        1 NS5     -0.092000
     34 C32         4.5630    3.3980   -4.3370 c2        1 NS5     -0.183500
     35 C33         6.4400    1.5660   -4.1730 c3        1 NS5     -0.126000
     36 C34         6.5880    1.7710   -2.6580 c3        1 NS5     -0.125000
     37 C35         7.7530    0.9150   -2.1350 c2        1 NS5     -0.175000
     38 C36         8.2810    1.1600   -0.8860 c1        1 NS5     -0.114000
     39 CM3         7.7070    2.2800   -0.0210 c2        1 NS5     -0.183500
     40 CM4         9.4430    0.3070   -0.3640 c3        1 NS5     -0.179000
     41 H1         -7.1910   -0.3440    7.7700 hc        1 NS5      0.085000
     42 HM11       -6.9570    0.4320    9.9710 hc        1 NS5      0.072667
     43 HM12       -5.6850   -0.4960   10.1800 hc        1 NS5      0.072667
     44 HM13       -7.1290   -1.1560   10.0010 hc        1 NS5      0.072667
     45 HM21       -5.7470   -1.8930    6.8690 hc        1 NS5      0.072667
     46 HM22       -6.2630   -2.5170    8.2490 hc        1 NS5      0.072667
     47 HM23       -4.8040   -1.8490    8.1690 hc        1 NS5      0.072667
     48 H21        -5.3010    1.3190    8.5330 hc        1 NS5      0.079000
     49 H22        -4.4850    0.2880    7.6230 hc        1 NS5      0.079000
     50 H31        -6.0450    0.6960    5.8450 hc        1 NS5      0.082000
     51 H32        -6.7580    1.7940    6.7480 hc        1 NS5      0.082000
     52 H41        -4.0220    1.9890    5.9460 hc        1 NS5      0.084500
     53 H42        -4.8260    3.1200    6.7280 hc        1 NS5      0.084500
     54 H61        -6.3870    4.7900    4.3670 hc        1 NS5      0.079667
     55 H62        -7.0310    3.9350    5.5650 hc        1 NS5      0.079667
     56 H63        -7.2710    3.4950    4.0460 hc        1 NS5      0.079667
     57 H7         -4.9410    3.1280    2.6940 ha        1 NS5      0.121000
     58 H81        -3.5930    0.9670    3.9500 ha        1 NS5      0.092000
     59 H82        -2.7000    2.2720    4.1860 ha        1 NS5      0.092000
     60 H91        -2.5260    2.6120    1.8090 hc        1 NS5      0.087500
     61 H92        -3.4350    1.3050    1.5690 hc        1 NS5      0.087500
     62 H111        0.2100    1.9510    2.5430 hc        1 NS5      0.082000
     63 H112       -0.5690    1.5830    3.8850 hc        1 NS5      0.082000
     64 H113        0.3230    0.4710    3.1570 hc        1 NS5      0.082000
     65 H12        -0.6560   -0.9300    1.5240 ha        1 NS5      0.129000
     66 H13        -3.5120   -0.3610    0.8220 ha        1 NS5      0.124250
     67 H14        -3.2980   -2.0680   -0.7730 ha        1 NS5      0.124250
     68 H161        0.5180   -1.6080    0.3370 hc        1 NS5      0.084667
     69 H162       -0.4890   -2.1580    1.4530 hc        1 NS5      0.084667
     70 H163        0.4220   -3.1850    0.6310 hc        1 NS5      0.084667
     71 H17        -0.0900   -3.6460   -1.7550 ha        1 NS5      0.129000
     72 H18        -2.9860   -3.1820   -2.4290 ha        1 NS5      0.124250
     73 H19        -2.4390   -3.7670   -4.6450 ha        1 NS5      0.124250
     74 H20         0.4150   -3.9990   -3.6580 ha        1 NS5      0.133500
     75 H221       -1.5550   -3.1610   -6.6230 ha        1 NS5      0.082667
     76 H222       -0.5760   -3.8780   -7.6560 ha        1 NS5      0.082667
     77 H223       -1.5660   -4.7490   -6.7650 ha        1 NS5      0.082667
     78 H23         1.8700   -5.2180   -6.2620 ha        1 NS5      0.125000
     79 H24         3.3760   -3.4030   -6.4260 ha        1 NS5      0.121500
     80 H25         1.3110   -1.6740   -5.1940 ha        1 NS5      0.133500
     81 H271        4.3200   -1.3950   -7.3540 ha        1 NS5      0.082667
     82 H272        3.6990   -0.1910   -8.2090 ha        1 NS5      0.082667
     83 H273        3.1350   -1.6810   -8.3940 ha        1 NS5      0.082667
     84 H28         1.0890    0.9280   -6.6300 ha        1 NS5      0.125000
     85 H29         2.5040    2.4510   -5.5180 ha        1 NS5      0.121500
     86 H30         4.5230    0.1980   -5.4380 ha        1 NS5      0.129000
     87 H321        4.1640    3.7740   -5.1500 ha        1 NS5      0.082667
     88 H322        3.8900    3.3820   -3.6190 ha        1 NS5      0.082667
     89 H323        5.3210    3.9510   -4.0600 ha        1 NS5      0.082667
     90 H331        7.1100    2.1060   -4.6420 hc        1 NS5      0.087500
     91 H332        6.5710    0.6330   -4.3870 hc        1 NS5      0.087500
     92 H341        5.7650    1.5050   -2.2120 hc        1 NS5      0.090000
     93 H342        6.7700    2.7140   -2.4730 hc        1 NS5      0.090000
     94 H351        8.1200    0.1980   -2.6890 ha        1 NS5      0.122000
     95 HM31        6.7410    2.1700    0.0540 ha        1 NS5      0.082667
     96 HM32        8.1100    2.2430    0.8720 ha        1 NS5      0.082667
     97 HM33        7.9060    3.1500   -0.4360 ha        1 NS5      0.082667
     98 HM41        9.7690    0.6810    0.4890 hc        1 NS5      0.079667
     99 HM42        9.1320   -0.6200   -0.2200 hc        1 NS5      0.079667
    100 HM43       10.1710    0.3090   -1.0210 hc        1 NS5      0.079667
@<TRIPOS>BOND
     1    1    2 1   
     2    1    3 1   
     3    1    4 1   
     4    1   41 1   
     5    2   42 1   
     6    2   43 1   
     7    2   44 1   
     8    3   45 1   
     9    3   46 1   
    10    3   47 1   
    11    4    5 1   
    12    4   48 1   
    13    4   49 1   
    14    5    6 1   
    15    5   50 1   
    16    5   51 1   
    17    6    7 1   
    18    6   52 1   
    19    6   53 1   
    20    7    8 1   
    21    7    9 1   
    22    8   54 1   
    23    8   55 1   
    24    8   56 1   
    25    9   57 1   
    26   10   11 1   
    27   10   58 1   
    28   10   59 1   
    29   11   12 1   
    30   11   60 1   
    31   11   61 1   
    32   12   13 1   
    33   12   14 1   
    34   13   62 1   
    35   13   63 1   
    36   13   64 1   
    37   14   65 1   
    38   15   16 1   
    39   15   66 1   
    40   16   67 1   
    41   17   18 1   
    42   17   19 1   
    43   18   68 1   
    44   18   69 1   
    45   18   70 1   
    46   19   71 1   
    47   20   21 1   
    48   20   72 1   
    49   21   73 1   
    50   22   23 1   
    51   22   74 1   
    52   23   25 1   
    53   24   75 1   
    54   24   76 1   
    55   24   77 1   
    56   25   26 1   
    57   25   78 1   
    58   26   79 1   
    59   27   28 1   
    60   27   80 1   
    61   28   30 1   
    62   29   81 1   
    63   29   82 1   
    64   29   83 1   
    65   30   31 1   
    66   30   84 1   
    67   31   85 1   
    68   32   33 1   
    69   32   86 1   
    70   33   35 1   
    71   34   87 1   
    72   34   88 1   
    73   34   89 1   
    74   35   36 1   
    75   35   90 1   
    76   35   91 1   
    77   36   37 1   
    78   36   92 1   
    79   36   93 1   
    80   37   38 1   
    81   37   94 1   
    82   38   40 1   
    83   39   95 1   
    84   39   96 1   
    85   39   97 1   
    86   40   98 1   
    87   40   99 1   
    88   40  100 1   
@<TRIPOS>SUBSTRUCTURE
     1 NS5         1 TEMP              0 ****  ****    0 ROOT
