@<TRIPOS>MOLECULE
NS6
   54    54     1     0     0
SMALL
bcc


@<TRIPOS>ATOM
      1 C2          1.9540   -5.9680   -0.7080 c3        1 NS6     -0.160000
      2 C3          1.9440   -6.2000   -2.0290 c3        1 NS6     -0.162500
      3 C4          3.2450   -5.5140   -2.5730 c3        1 NS6     -0.162500
      4 C5          3.7870   -4.6130   -1.3770 c3        1 NS6     -0.160000
      5 C1          2.7990   -4.5850   -0.4920 c3        1 NS6     -0.107000
      6 C6          1.8610   -3.3080   -0.7520 c3        1 NS6      0.048000
      7 C9          1.6140   -2.6310    0.5950 c3        1 NS6     -0.180000
      8 N1          2.4580   -2.5430   -1.7570 n3        1 NS6     -0.891000
      9 S1          1.8200   -1.1830   -2.1210 s4        1 NS6      2.080800
     10 O2          0.7740   -1.4120   -3.0670 o         1 NS6     -0.540400
     11 O1          2.7970   -0.3610   -2.7050 o         1 NS6     -0.540400
     12 C7          1.1820   -0.3340   -0.6860 c1        1 NS6     -0.824000
     13 C10         0.6140    0.9380   -0.7810 c2        1 NS6      0.095000
     14 C8          1.1780   -1.0320    0.5760 c2        1 NS6      0.100000
     15 C13         0.6010   -0.4310    1.7100 c2        1 NS6     -0.186000
     16 C12         0.0280    0.8520    1.6130 c1        1 NS6      0.035000
     17 C11         0.0310    1.5430    0.3670 c1        1 NS6     -0.835000
     18 S2         -0.6820    3.1780    0.2550 s4        1 NS6      2.065800
     19 O3         -1.1770    3.4470   -1.0700 o         1 NS6     -0.536900
     20 O4          0.3180    4.1880    0.3890 o         1 NS6     -0.536900
     21 N2         -1.9050    3.3610    1.4160 n2        1 NS6     -0.840000
     22 C14        -3.2560    3.0060    1.0960 c3        1 NS6     -0.015500
     23 C15        -4.0810    4.1920    0.7120 c3        1 NS6     -0.080000
     24 N3         -4.0010    5.2490    1.6790 n3        1 NS6     -0.256000
     25 C18        -4.6970    6.3930    1.1950 c3        1 NS6     -0.120000
     26 C16        -2.6560    5.6040    1.9960 c3        1 NS6     -0.080000
     27 C17        -1.8250    4.4130    2.3800 c3        1 NS6     -0.015500
     28 H2          1.0160   -5.8560   -0.3720 hc        1 NS6      0.089000
     29 H2A         2.4160   -6.7440   -0.2180 hc        1 NS6      0.089000
     30 H3          1.1550   -5.7990   -2.4370 hc        1 NS6      0.085500
     31 H3A         1.9700   -7.1900   -2.2090 hc        1 NS6      0.085500
     32 H4          3.9030   -6.1860   -2.8120 hc        1 NS6      0.085500
     33 H4A         3.0370   -4.9630   -3.3390 hc        1 NS6      0.085500
     34 H5          3.9890   -3.6960   -1.6990 hc        1 NS6      0.089000
     35 H5A         4.5850   -5.0180   -0.9830 hc        1 NS6      0.089000
     36 H1          3.1780   -4.5520    0.4500 hc        1 NS6      0.098000
     37 H6          0.9810   -3.6350   -1.0960 h1        1 NS6      0.100000
     38 H9          0.9030   -3.1290    1.0570 hc        1 NS6      0.116500
     39 H9A         2.4090   -2.7090    1.1090 hc        1 NS6      0.116500
     40 HN1         3.0920   -2.9340   -2.3300 hn        1 NS6      0.261000
     41 H10         0.6170    1.4280   -1.6650 ha        1 NS6      0.163000
     42 H13         0.5980   -0.9170    2.5890 ha        1 NS6      0.145000
     43 H12        -0.3820    1.2780    2.4190 ha        1 NS6      0.161000
     44 H14        -3.6870    2.5530    1.9200 h1        1 NS6      0.099500
     45 H14A       -3.2490    2.3520    0.3310 h1        1 NS6      0.099500
     46 H15        -4.9830    3.9220    0.6260 h1        1 NS6      0.081500
     47 H15A       -3.7750    4.5210   -0.1330 h1        1 NS6      0.081500
     48 H18        -4.7300    7.0970    1.9150 h1        1 NS6      0.073667
     49 H18A       -5.5950    6.1410    0.9510 h1        1 NS6      0.073667
     50 H18B       -4.2270    6.7560    0.3980 h1        1 NS6      0.073667
     51 H16        -2.2570    6.0280    1.2300 h1        1 NS6      0.081500
     52 H16A       -2.6640    6.2340    2.7370 h1        1 NS6      0.081500
     53 H17        -2.1330    4.0780    3.2360 h1        1 NS6      0.099500
     54 H17A       -0.8960    4.6930    2.4650 h1        1 NS6      0.099500
@<TRIPOS>BOND
     1    1    2 1   
     2    1    5 1   
     3    1   28 1   
     4    1   29 1   
     5    2    3 1   
     6    2   30 1   
     7    2   31 1   
     8    3    4 1   
     9    3   32 1   
    10    3   33 1   
    11    4    5 1   
    12    4   34 1   
    13    4   35 1   
    14    5    6 1   
    15    5   36 1   
    16    6    7 1   
    17    6    8 1   
    18    6   37 1   
    19    7   14 1   
    20    7   38 1   
    21    7   39 1   
    22    8    9 1   
    23    8   40 1   
    24    9   10 1   
    25    9   11 1   
    26   12   13 1   
    27   12   14 1   
    28   13   17 1   
    29   13   41 1   
    30   14   15 1   
    31   15   16 1   
    32   15   42 1   
    33   16   43 1   
    34   17   18 1   
    35   18   19 1   
    36   18   20 1   
    37   21   22 1   
    38   21   27 1   
    39   22   23 1   
    40   22   44 1   
    41   22   45 1   
    42   23   24 1   
    43   23   46 1   
    44   23   47 1   
    45   24   25 1   
    46   24   26 1   
    47   25   48 1   
    48   25   49 1   
    49   25   50 1   
    50   26   27 1   
    51   26   51 1   
    52   26   52 1   
    53   27   53 1   
    54   27   54 1   
@<TRIPOS>SUBSTRUCTURE
     1 NS6         1 TEMP              0 ****  ****    0 ROOT
