@<TRIPOS>MOLECULE
NS6
   54    57     1     0     0
SMALL
bcc


@<TRIPOS>ATOM
      1 C2          0.0600   -0.4320   -0.0640 c3        1 NS6     -0.081400
      2 C3          0.9440    0.7560    0.2880 c3        1 NS6     -0.083900
      3 C4          1.4480    0.5460    1.7100 c3        1 NS6     -0.083900
      4 C5          0.7860   -0.7140    2.2540 c3        1 NS6     -0.081400
      5 C1         -0.2650   -1.1640    1.2390 c3        1 NS6     -0.067700
      6 C6         -1.7140   -0.8910    1.6860 c3        1 NS6      0.245500
      7 C9         -2.0860   -1.8590    2.8260 c3        1 NS6     -0.094100
      8 N1         -1.9660    0.4810    2.0350 n3        1 NS6     -0.918100
      9 S1         -3.4410    0.9860    2.4330 sy        1 NS6      1.525200
     10 O2         -3.3490    2.1570    3.2060 o         1 NS6     -0.652800
     11 O1         -4.2820    1.0760    1.3110 o         1 NS6     -0.652800
     12 C7         -4.0060   -0.3010    3.3960 ca        1 NS6     -0.379500
     13 C10        -5.1950   -0.0900    4.1040 ca        1 NS6      0.095000
     14 C8         -3.3790   -1.5530    3.4980 ca        1 NS6      0.092700
     15 C13        -3.9560   -2.5590    4.2860 ca        1 NS6     -0.186000
     16 C12        -5.1450   -2.3280    4.9650 ca        1 NS6      0.035000
     17 C11        -5.7880   -1.0850    4.8810 ca        1 NS6     -0.390500
     18 S2         -7.2240   -0.8000    5.7390 sy        1 NS6      1.510200
     19 O3         -7.3200   -1.7870    6.7470 o         1 NS6     -0.649300
     20 O4         -7.2210    0.5470    6.1570 o         1 NS6     -0.649300
     21 N2         -8.3790   -1.0320    4.6250 n3        1 NS6     -0.820500
     22 C14        -9.0430   -2.2950    4.4300 c3        1 NS6      0.221300
     23 C15       -10.5820   -2.1770    4.3890 c3        1 NS6      0.156800
     24 N3        -11.0460   -1.1380    3.4810 n3        1 NS6     -0.730600
     25 C18       -12.4860   -1.0170    3.4720 c3        1 NS6      0.156100
     26 C16       -10.3820    0.1380    3.7060 c3        1 NS6      0.156800
     27 C17        -8.8440    0.0160    3.7500 c3        1 NS6      0.221300
     28 H2          0.6060   -1.1260   -0.7530 hc        1 NS6      0.049700
     29 H2A        -0.8670   -0.0990   -0.5920 hc        1 NS6      0.049700
     30 H3          0.3590    1.7080    0.2200 hc        1 NS6      0.046200
     31 H3A         1.7970    0.8400   -0.4290 hc        1 NS6      0.046200
     32 H4          2.5610    0.4380    1.7220 hc        1 NS6      0.046200
     33 H4A         1.1960    1.4290    2.3490 hc        1 NS6      0.046200
     34 H5          0.3390   -0.5240    3.2610 hc        1 NS6      0.049700
     35 H5A         1.5500   -1.5240    2.3810 hc        1 NS6      0.049700
     36 H1         -0.1890   -2.2740    1.0800 hc        1 NS6      0.058700
     37 H6         -2.3840   -1.1450    0.8020 h1        1 NS6      0.060700
     38 H9         -1.2800   -1.8510    3.6120 hc        1 NS6      0.077200
     39 H9A        -2.1220   -2.8970    2.3960 hc        1 NS6      0.077200
     40 HN1        -1.1550    1.0520    2.0950 hn        1 NS6      0.465800
     41 H10        -5.6750    0.9090    4.0580 ha        1 NS6      0.163000
     42 H13        -3.4580   -3.5380    4.3680 ha        1 NS6      0.145000
     43 H12        -5.5870   -3.1230    5.5940 ha        1 NS6      0.161000
     44 H14        -8.7730   -2.9930    5.2740 h1        1 NS6      0.060200
     45 H14A       -8.6930   -2.7510    3.4580 h1        1 NS6      0.060200
     46 H15       -10.9610   -2.0150    5.4410 h1        1 NS6      0.042200
     47 H15A      -10.9890   -3.1600    4.0230 h1        1 NS6      0.042200
     48 H18       -12.9130   -0.6890    4.4600 h1        1 NS6      0.034367
     49 H18A      -12.9300   -2.0110    3.2040 h1        1 NS6      0.034367
     50 H18B      -12.7790   -0.2680    2.6900 h1        1 NS6      0.034367
     51 H16       -10.7350    0.6310    4.6590 h1        1 NS6      0.042200
     52 H16A      -10.6450    0.8170    2.8470 h1        1 NS6      0.042200
     53 H17        -8.4300    1.0040    4.1020 h1        1 NS6      0.060200
     54 H17A       -8.4690   -0.1810    2.7040 h1        1 NS6      0.060200
@<TRIPOS>BOND
     1    1    2 1   
     2    1    5 1   
     3    1   28 1   
     4    1   29 1   
     5    2    3 1   
     6    2   30 1   
     7    2   31 1   
     8    3    4 1   
     9    3   32 1   
    10    3   33 1   
    11    4    5 1   
    12    4   34 1   
    13    4   35 1   
    14    5    6 1   
    15    5   36 1   
    16    6    7 1   
    17    6    8 1   
    18    6   37 1   
    19    7   14 1   
    20    7   38 1   
    21    7   39 1   
    22    8    9 1   
    23    8   40 1   
    24    9   10 2   
    25    9   11 2   
    26    9   12 1   
    27   12   13 ar  
    28   12   14 ar  
    29   13   17 ar  
    30   13   41 1   
    31   14   15 ar  
    32   15   16 ar  
    33   15   42 1   
    34   16   17 ar  
    35   16   43 1   
    36   17   18 1   
    37   18   19 2   
    38   18   20 2   
    39   18   21 1   
    40   21   22 1   
    41   21   27 1   
    42   22   23 1   
    43   22   44 1   
    44   22   45 1   
    45   23   24 1   
    46   23   46 1   
    47   23   47 1   
    48   24   25 1   
    49   24   26 1   
    50   25   48 1   
    51   25   49 1   
    52   25   50 1   
    53   26   27 1   
    54   26   51 1   
    55   26   52 1   
    56   27   53 1   
    57   27   54 1   
@<TRIPOS>SUBSTRUCTURE
     1 NS6         1 TEMP              0 ****  ****    0 ROOT
