@<TRIPOS>MOLECULE
NS6
   54    57     1     0     0
SMALL
bcc


@<TRIPOS>ATOM
      1 C2          0.0590   -0.4380   -0.0670 c3        1 NS6     -0.081400
      2 C3          0.9410    0.7530    0.2810 c3        1 NS6     -0.083900
      3 C4          1.4450    0.5500    1.7030 c3        1 NS6     -0.083900
      4 C5          0.7860   -0.7080    2.2520 c3        1 NS6     -0.081400
      5 C1         -0.2650   -1.1650    1.2400 c3        1 NS6     -0.067700
      6 C6         -1.7140   -0.8920    1.6860 c3        1 NS6      0.245500
      7 C9         -2.0840   -1.8560    2.8300 c3        1 NS6     -0.094100
      8 N1         -1.9680    0.4810    2.0290 n3        1 NS6     -0.918100
      9 S1         -3.4440    0.9850    2.4250 sy        1 NS6      1.525200
     10 O2         -3.3540    2.1600    3.1930 o         1 NS6     -0.652800
     11 O1         -4.2850    1.0690    1.3030 o         1 NS6     -0.652800
     12 C7         -4.0070   -0.2980    3.3930 ca        1 NS6     -0.379500
     13 C10        -5.1960   -0.0860    4.1010 ca        1 NS6      0.095000
     14 C8         -3.3780   -1.5490    3.5010 ca        1 NS6      0.092700
     15 C13        -3.9530   -2.5520    4.2940 ca        1 NS6     -0.186000
     16 C12        -5.1420   -2.3200    4.9720 ca        1 NS6      0.035000
     17 C11        -5.7870   -1.0780    4.8830 ca        1 NS6     -0.390500
     18 S2         -7.2240   -0.7920    5.7400 sy        1 NS6      1.510200
     19 O3         -7.3180   -1.7750    6.7520 o         1 NS6     -0.649300
     20 O4         -7.2220    0.5570    6.1520 o         1 NS6     -0.649300
     21 N2         -8.3780   -1.0310    4.6270 n3        1 NS6     -0.820500
     22 C14        -9.0400   -2.2960    4.4380 c3        1 NS6      0.221300
     23 C15       -10.5790   -2.1800    4.3970 c3        1 NS6      0.156800
     24 N3        -11.0450   -1.1470    3.4840 n3        1 NS6     -0.730600
     25 C18       -12.4850   -1.0280    3.4740 c3        1 NS6      0.156100
     26 C16       -10.3830    0.1320    3.7030 c3        1 NS6      0.156800
     27 C17        -8.8450    0.0120    3.7480 c3        1 NS6      0.221300
     28 H2          0.6060   -1.1340   -0.7530 hc        1 NS6      0.049700
     29 H2A        -0.8690   -0.1090   -0.5960 hc        1 NS6      0.049700
     30 H3          0.3540    1.7040    0.2080 hc        1 NS6      0.046200
     31 H3A         1.7940    0.8350   -0.4380 hc        1 NS6      0.046200
     32 H4          2.5590    0.4440    1.7160 hc        1 NS6      0.046200
     33 H4A         1.1920    1.4360    2.3390 hc        1 NS6      0.046200
     34 H5          0.3390   -0.5140    3.2590 hc        1 NS6      0.049700
     35 H5A         1.5510   -1.5160    2.3830 hc        1 NS6      0.049700
     36 H1         -0.1860   -2.2750    1.0860 hc        1 NS6      0.058700
     37 H6         -2.3840   -1.1510    0.8030 h1        1 NS6      0.060700
     38 H9         -1.2780   -1.8430    3.6160 hc        1 NS6      0.077200
     39 H9A        -2.1190   -2.8950    2.4050 hc        1 NS6      0.077200
     40 HN1        -1.1590    1.0540    2.0860 hn        1 NS6      0.465800
     41 H10        -5.6770    0.9120    4.0510 ha        1 NS6      0.163000
     42 H13        -3.4540   -3.5300    4.3800 ha        1 NS6      0.145000
     43 H12        -5.5820   -3.1120    5.6050 ha        1 NS6      0.161000
     44 H14        -8.7690   -2.9890    5.2850 h1        1 NS6      0.060200
     45 H14A       -8.6900   -2.7560    3.4690 h1        1 NS6      0.060200
     46 H15       -10.9590   -2.0140    5.4470 h1        1 NS6      0.042200
     47 H15A      -10.9850   -3.1660    4.0340 h1        1 NS6      0.042200
     48 H18       -12.9130   -0.6960    4.4600 h1        1 NS6      0.034367
     49 H18A      -12.7790   -0.2820    2.6890 h1        1 NS6      0.034367
     50 H18B      -12.9270   -2.0240    3.2100 h1        1 NS6      0.034367
     51 H16       -10.7370    0.6290    4.6540 h1        1 NS6      0.042200
     52 H16A      -10.6470    0.8060    2.8410 h1        1 NS6      0.042200
     53 H17        -8.4330    1.0030    4.0950 h1        1 NS6      0.060200
     54 H17A       -8.4700   -0.1890    2.7030 h1        1 NS6      0.060200
@<TRIPOS>BOND
     1    1    2 1   
     2    1    5 1   
     3    1   28 1   
     4    1   29 1   
     5    2    3 1   
     6    2   30 1   
     7    2   31 1   
     8    3    4 1   
     9    3   32 1   
    10    3   33 1   
    11    4    5 1   
    12    4   34 1   
    13    4   35 1   
    14    5    6 1   
    15    5   36 1   
    16    6    7 1   
    17    6    8 1   
    18    6   37 1   
    19    7   14 1   
    20    7   38 1   
    21    7   39 1   
    22    8    9 1   
    23    8   40 1   
    24    9   10 2   
    25    9   11 2   
    26    9   12 1   
    27   12   13 ar  
    28   12   14 ar  
    29   13   17 ar  
    30   13   41 1   
    31   14   15 ar  
    32   15   16 ar  
    33   15   42 1   
    34   16   17 ar  
    35   16   43 1   
    36   17   18 1   
    37   18   19 2   
    38   18   20 2   
    39   18   21 1   
    40   21   22 1   
    41   21   27 1   
    42   22   23 1   
    43   22   44 1   
    44   22   45 1   
    45   23   24 1   
    46   23   46 1   
    47   23   47 1   
    48   24   25 1   
    49   24   26 1   
    50   25   48 1   
    51   25   49 1   
    52   25   50 1   
    53   26   27 1   
    54   26   51 1   
    55   26   52 1   
    56   27   53 1   
    57   27   54 1   
@<TRIPOS>SUBSTRUCTURE
     1 NS6         1 TEMP              0 ****  ****    0 ROOT
