@<TRIPOS>MOLECULE
NS6
   54    57     1     0     0
SMALL
bcc


@<TRIPOS>ATOM
      1 C2          0.0600   -0.4410   -0.0670 c3        1 NS6     -0.081400
      2 C3          0.9420    0.7510    0.2790 c3        1 NS6     -0.083900
      3 C4          1.4460    0.5500    1.7020 c3        1 NS6     -0.083900
      4 C5          0.7860   -0.7070    2.2530 c3        1 NS6     -0.081400
      5 C1         -0.2640   -1.1650    1.2410 c3        1 NS6     -0.067700
      6 C6         -1.7140   -0.8920    1.6860 c3        1 NS6      0.245500
      7 C9         -2.0840   -1.8530    2.8320 c3        1 NS6     -0.094100
      8 N1         -1.9680    0.4820    2.0260 n7        1 NS6     -0.918100
      9 S1         -3.4440    0.9870    2.4210 sy        1 NS6      1.525200
     10 O2         -3.3540    2.1630    3.1870 o         1 NS6     -0.652800
     11 O1         -4.2850    1.0680    1.2990 o         1 NS6     -0.652800
     12 C7         -4.0070   -0.2950    3.3920 ca        1 NS6     -0.379500
     13 C10        -5.1960   -0.0810    4.0990 ca        1 NS6      0.095000
     14 C8         -3.3780   -1.5450    3.5020 ca        1 NS6      0.092700
     15 C13        -3.9530   -2.5470    4.2970 ca        1 NS6     -0.186000
     16 C12        -5.1420   -2.3130    4.9740 ca        1 NS6      0.035000
     17 C11        -5.7870   -1.0720    4.8820 ca        1 NS6     -0.390500
     18 S2         -7.2240   -0.7840    5.7390 sy        1 NS6      1.510200
     19 O3         -7.3170   -1.7630    6.7550 o         1 NS6     -0.649300
     20 O4         -7.2250    0.5660    6.1460 o         1 NS6     -0.649300
     21 N2         -8.3790   -1.0290    4.6270 n3        1 NS6     -0.820500
     22 C14        -9.0390   -2.2960    4.4420 c3        1 NS6      0.221300
     23 C15       -10.5780   -2.1830    4.4020 c3        1 NS6      0.156800
     24 N3        -11.0450   -1.1540    3.4850 n3        1 NS6     -0.730600
     25 C18       -12.4860   -1.0370    3.4750 c3        1 NS6      0.156100
     26 C16       -10.3860    0.1270    3.6990 c3        1 NS6      0.156800
     27 C17        -8.8480    0.0100    3.7440 c3        1 NS6      0.221300
     28 H2          0.6070   -1.1380   -0.7510 hc        1 NS6      0.049700
     29 H2A        -0.8680   -0.1130   -0.5970 hc        1 NS6      0.049700
     30 H3          1.7950    0.8320   -0.4390 hc        1 NS6      0.046200
     31 H3A         0.3560    1.7020    0.2050 hc        1 NS6      0.046200
     32 H4          1.1920    1.4380    2.3360 hc        1 NS6      0.046200
     33 H4A         2.5590    0.4450    1.7160 hc        1 NS6      0.046200
     34 H5          1.5510   -1.5140    2.3860 hc        1 NS6      0.049700
     35 H5A         0.3390   -0.5110    3.2590 hc        1 NS6      0.049700
     36 H1         -0.1860   -2.2760    1.0890 hc        1 NS6      0.058700
     37 H6         -2.3830   -1.1520    0.8040 h1        1 NS6      0.060700
     38 H9         -1.2780   -1.8390    3.6180 hc        1 NS6      0.077200
     39 H9A        -2.1190   -2.8930    2.4090 hc        1 NS6      0.077200
     40 HN1        -1.1580    1.0550    2.0830 hn        1 NS6      0.465800
     41 H10        -5.6770    0.9170    4.0470 ha        1 NS6      0.163000
     42 H13        -3.4540   -3.5240    4.3860 ha        1 NS6      0.145000
     43 H12        -5.5830   -3.1050    5.6090 ha        1 NS6      0.161000
     44 H14        -8.7660   -2.9860    5.2930 h1        1 NS6      0.060200
     45 H14A       -8.6870   -2.7590    3.4750 h1        1 NS6      0.060200
     46 H15       -10.9570   -2.0140    5.4520 h1        1 NS6      0.042200
     47 H15A      -10.9820   -3.1710    4.0430 h1        1 NS6      0.042200
     48 H18       -12.9260   -2.0350    3.2150 h1        1 NS6      0.034367
     49 H18A      -12.7810   -0.2950    2.6870 h1        1 NS6      0.034367
     50 H18B      -12.9140   -0.7030    4.4600 h1        1 NS6      0.034367
     51 H16       -10.6510    0.7970    2.8340 h1        1 NS6      0.042200
     52 H16A      -10.7400    0.6260    4.6480 h1        1 NS6      0.042200
     53 H17        -8.4720   -0.1950    2.6990 h1        1 NS6      0.060200
     54 H17A       -8.4370    1.0030    4.0870 h1        1 NS6      0.060200
@<TRIPOS>BOND
     1    1    2 1   
     2    1    5 1   
     3    1   28 1   
     4    1   29 1   
     5    2    3 1   
     6    2   30 1   
     7    2   31 1   
     8    3    4 1   
     9    3   32 1   
    10    3   33 1   
    11    4    5 1   
    12    4   34 1   
    13    4   35 1   
    14    5    6 1   
    15    5   36 1   
    16    6    7 1   
    17    6    8 1   
    18    6   37 1   
    19    7   14 1   
    20    7   38 1   
    21    7   39 1   
    22    8    9 1   
    23    8   40 1   
    24    9   10 2   
    25    9   11 2   
    26    9   12 1   
    27   12   13 ar  
    28   12   14 ar  
    29   13   17 ar  
    30   13   41 1   
    31   14   15 ar  
    32   15   16 ar  
    33   15   42 1   
    34   16   17 ar  
    35   16   43 1   
    36   17   18 1   
    37   18   19 2   
    38   18   20 2   
    39   18   21 1   
    40   21   22 1   
    41   21   27 1   
    42   22   23 1   
    43   22   44 1   
    44   22   45 1   
    45   23   24 1   
    46   23   46 1   
    47   23   47 1   
    48   24   25 1   
    49   24   26 1   
    50   25   48 1   
    51   25   49 1   
    52   25   50 1   
    53   26   27 1   
    54   26   51 1   
    55   26   52 1   
    56   27   53 1   
    57   27   54 1   
@<TRIPOS>SUBSTRUCTURE
     1 NS6         1 TEMP              0 ****  ****    0 ROOT
