@<TRIPOS>MOLECULE
NS6
   54    57     1     0     0
SMALL
bcc


@<TRIPOS>ATOM
      1 C2         -5.8890    0.8120    1.7300 c3        1 NS6     -0.081400
      2 C3         -6.7600    1.1230    0.5200 c3        1 NS6     -0.083900
      3 C4         -6.7790   -0.1180   -0.3610 c3        1 NS6     -0.083900
      4 C5         -5.8380   -1.1410    0.2600 c3        1 NS6     -0.081400
      5 C1         -5.0980   -0.4580    1.4100 c3        1 NS6     -0.067700
      6 C6         -3.6260   -0.1330    1.0940 c3        1 NS6      0.245500
      7 C9         -2.8120   -1.4410    1.0620 c3        1 NS6     -0.094100
      8 N1         -3.4460    0.6480   -0.1010 n3        1 NS6     -0.918100
      9 S1         -1.9920    1.1710   -0.5470 sy        1 NS6      1.525200
     10 O2         -1.9850    1.4290   -1.9300 o         1 NS6     -0.652800
     11 O1         -1.5480    2.2320    0.2600 o         1 NS6     -0.652800
     12 C7         -1.0110   -0.1790   -0.2040 ca        1 NS6     -0.379500
     13 C10         0.3030   -0.1490   -0.6880 ca        1 NS6      0.095000
     14 C8         -1.4220   -1.2900    0.5480 ca        1 NS6      0.092700
     15 C13        -0.5170   -2.3300    0.8090 ca        1 NS6     -0.186000
     16 C12         0.7850   -2.2660    0.3310 ca        1 NS6      0.035000
     17 C11         1.2180   -1.1680   -0.4260 ca        1 NS6     -0.390500
     18 S2          2.8020   -1.1130   -1.0340 sy        1 NS6      1.510200
     19 O3          3.3170   -2.4290   -0.9970 o         1 NS6     -0.649300
     20 O4          2.7640   -0.4730   -2.2890 o         1 NS6     -0.649300
     21 N2          3.5830   -0.1820    0.0400 n3        1 NS6     -0.820500
     22 C14         4.3030   -0.7150    1.1680 c3        1 NS6      0.221300
     23 C15         5.7310   -0.1450    1.3060 c3        1 NS6      0.156800
     24 N3          5.7690    1.3080    1.2360 n3        1 NS6     -0.730600
     25 C18         7.1130    1.8310    1.3380 c3        1 NS6      0.156100
     26 C16         5.0580    1.8310    0.0780 c3        1 NS6      0.156800
     27 C17         3.6320    1.2550   -0.0600 c3        1 NS6      0.221300
     28 H2         -5.2130    1.6700    1.9680 hc        1 NS6      0.049700
     29 H2A        -6.5310    0.6330    2.6300 hc        1 NS6      0.049700
     30 H3         -7.7940    1.4020    0.8410 hc        1 NS6      0.046200
     31 H3A        -6.3420    1.9950   -0.0450 hc        1 NS6      0.046200
     32 H4         -7.8150   -0.5350   -0.4340 hc        1 NS6      0.046200
     33 H4A        -6.4530    0.1360   -1.4020 hc        1 NS6      0.046200
     34 H5         -6.4230   -2.0090    0.6590 hc        1 NS6      0.049700
     35 H5A        -5.1320   -1.5480   -0.5060 hc        1 NS6      0.049700
     36 H1         -5.0850   -1.1330    2.3080 hc        1 NS6      0.058700
     37 H6         -3.2300    0.4840    1.9640 h1        1 NS6      0.060700
     38 H9         -2.7830   -1.8520    2.1070 hc        1 NS6      0.077200
     39 H9A        -3.3360   -2.2010    0.4180 hc        1 NS6      0.077200
     40 HN1        -4.2620    0.7540   -0.6560 hn        1 NS6      0.465800
     41 H10         0.6220    0.7080   -1.3160 ha        1 NS6      0.163000
     42 H13        -0.8450   -3.2020    1.3950 ha        1 NS6      0.145000
     43 H12         1.4890   -3.0950    0.5310 ha        1 NS6      0.161000
     44 H14         3.7320   -0.4850    2.1140 h1        1 NS6      0.060200
     45 H14A        4.3880   -1.8350    1.0610 h1        1 NS6      0.060200
     46 H15         6.1230   -0.4490    2.3170 h1        1 NS6      0.042200
     47 H15A        6.3890   -0.6210    0.5220 h1        1 NS6      0.042200
     48 H18         7.7780    1.5250    0.4830 h1        1 NS6      0.034367
     49 H18A        7.0630    2.9510    1.3680 h1        1 NS6      0.034367
     50 H18B        7.5700    1.4640    2.2940 h1        1 NS6      0.034367
     51 H16         4.9630    2.9450    0.2080 h1        1 NS6      0.042200
     52 H16A        5.6210    1.6390   -0.8820 h1        1 NS6      0.042200
     53 H17         3.2290    1.5720   -1.0650 h1        1 NS6      0.060200
     54 H17A        2.9830    1.7050    0.7470 h1        1 NS6      0.060200
@<TRIPOS>BOND
     1    1    2 1   
     2    1    5 1   
     3    1   28 1   
     4    1   29 1   
     5    2    3 1   
     6    2   30 1   
     7    2   31 1   
     8    3    4 1   
     9    3   32 1   
    10    3   33 1   
    11    4    5 1   
    12    4   34 1   
    13    4   35 1   
    14    5    6 1   
    15    5   36 1   
    16    6    7 1   
    17    6    8 1   
    18    6   37 1   
    19    7   14 1   
    20    7   38 1   
    21    7   39 1   
    22    8    9 1   
    23    8   40 1   
    24    9   10 2   
    25    9   11 2   
    26    9   12 1   
    27   12   13 ar  
    28   12   14 ar  
    29   13   17 ar  
    30   13   41 1   
    31   14   15 ar  
    32   15   16 ar  
    33   15   42 1   
    34   16   17 ar  
    35   16   43 1   
    36   17   18 1   
    37   18   19 2   
    38   18   20 2   
    39   18   21 1   
    40   21   22 1   
    41   21   27 1   
    42   22   23 1   
    43   22   44 1   
    44   22   45 1   
    45   23   24 1   
    46   23   46 1   
    47   23   47 1   
    48   24   25 1   
    49   24   26 1   
    50   25   48 1   
    51   25   49 1   
    52   25   50 1   
    53   26   27 1   
    54   26   51 1   
    55   26   52 1   
    56   27   53 1   
    57   27   54 1   
@<TRIPOS>SUBSTRUCTURE
     1 NS6         1 TEMP              0 ****  ****    0 ROOT
