@<TRIPOS>MOLECULE
NS7
   57    57     1     0     0
SMALL
bcc


@<TRIPOS>ATOM
      1 C2          5.1440   -0.4070   -2.5260 c3        1 NS7     -0.156500
      2 C3          6.4860   -0.4890   -2.6550 c3        1 NS7     -0.158000
      3 C4          6.9280   -1.6060   -1.6390 c3        1 NS7     -0.158000
      4 C5          5.6510   -1.8850   -0.7270 c3        1 NS7     -0.156500
      5 C1          4.8030   -0.8920   -1.0020 c3        1 NS7     -0.111000
      6 C6          3.3120   -1.4070   -0.9120 c3        1 NS7      0.047000
      7 C9          2.8740   -1.3160    0.5650 c3        1 NS7     -0.178000
      8 N1          2.5620   -0.7020   -1.8520 n3        1 NS7     -0.892000
      9 S1          1.0380   -0.9300   -1.8910 s4        1 NS7      2.084800
     10 O1          0.7670   -2.0790   -2.7020 o         1 NS7     -0.540400
     11 O2          0.4130    0.2140   -2.4810 o         1 NS7     -0.540400
     12 C7          0.3510   -1.1550   -0.2650 c1        1 NS7     -0.835000
     13 C10        -1.0210   -0.9720   -0.0320 c2        1 NS7      0.090000
     14 C8          1.2790   -1.2700    0.8710 c2        1 NS7      0.102000
     15 C13         0.7920   -1.1970    2.1810 c2        1 NS7     -0.195000
     16 C12        -0.6040   -1.0110    2.4140 c1        1 NS7      0.116000
     17 C14        -1.1440   -0.9750    3.8520 c3        1 NS7     -0.218000
     18 C11        -1.5140   -0.8980    1.3010 c1        1 NS7     -0.839000
     19 S2         -3.2770   -0.4820    1.6010 s4        1 NS7      2.064800
     20 O3         -4.1380   -1.5350    1.1660 o         1 NS7     -0.537400
     21 O4         -3.5750   -0.4440    3.0210 o         1 NS7     -0.537400
     22 N2         -3.6710    0.9890    0.8560 n2        1 NS7     -0.837000
     23 C15        -3.7770    2.0240    1.6230 c3        1 NS7     -0.036000
     24 C16        -4.9400    2.9130    1.2120 c3        1 NS7     -0.076500
     25 N3         -5.9840    2.1810    0.3400 n3        1 NS7     -0.255000
     26 C19        -7.0050    3.1370   -0.1020 c3        1 NS7     -0.121000
     27 C17        -5.0190    1.8720   -0.8270 c3        1 NS7     -0.076500
     28 C18        -3.8440    0.9760   -0.4110 c3        1 NS7     -0.036000
     29 H2          4.7050   -0.9990   -3.1760 hc        1 NS7      0.086500
     30 H2A         4.8530    0.5080   -2.6570 hc        1 NS7      0.086500
     31 H3          6.9060    0.3700   -2.4220 hc        1 NS7      0.085000
     32 H3A         6.7210   -0.7450   -3.5570 hc        1 NS7      0.085000
     33 H4          7.6880   -1.2810   -1.0780 hc        1 NS7      0.085000
     34 H4A         7.1840   -2.4160   -2.1190 hc        1 NS7      0.085000
     35 H5          5.8960   -1.8690    0.2050 hc        1 NS7      0.086500
     36 H5A         5.2490   -2.7520   -0.9600 hc        1 NS7      0.086500
     37 H1          4.9380   -0.1650   -0.3890 hc        1 NS7      0.093000
     38 H6          3.3030   -2.3370   -1.1640 h1        1 NS7      0.107000
     39 H9          3.2460   -2.0870    1.0350 hc        1 NS7      0.115500
     40 H9A         3.2710   -0.5150    0.9440 hc        1 NS7      0.115500
     41 HN1         2.9290    0.0140   -2.2880 hn        1 NS7      0.255000
     42 H10        -1.6420   -0.8950   -0.7890 ha        1 NS7      0.166000
     43 H13         1.4170   -1.3260    2.9570 ha        1 NS7      0.143000
     44 H14        -1.3330   -0.0350    4.1110 hc        1 NS7      0.110000
     45 H14A       -1.9790   -1.5070    3.9050 hc        1 NS7      0.110000
     46 H14B       -0.4680   -1.3570    4.4690 hc        1 NS7      0.110000
     47 H15        -2.9340    2.5500    1.5790 h1        1 NS7      0.093000
     48 H15A       -3.9170    1.7250    2.5360 h1        1 NS7      0.093000
     49 H16        -5.3930    3.2530    2.0390 h1        1 NS7      0.096500
     50 H16A       -4.5910    3.6750    0.7110 h1        1 NS7      0.096500
     51 H19        -7.6560    2.6790   -0.6860 h1        1 NS7      0.073000
     52 H19A       -6.5710    3.8760   -0.6060 h1        1 NS7      0.073000
     53 H19B       -7.4640    3.5010    0.6750 h1        1 NS7      0.073000
     54 H17        -4.6690    2.7040   -1.1680 h1        1 NS7      0.096500
     55 H17A       -5.5200    1.4240   -1.5420 h1        1 NS7      0.096500
     56 H18        -3.0330    1.2930   -0.8450 h1        1 NS7      0.093000
     57 H18A       -4.0240    0.0590   -0.6990 h1        1 NS7      0.093000
@<TRIPOS>BOND
     1    1    2 1   
     2    1    5 1   
     3    1   29 1   
     4    1   30 1   
     5    2    3 1   
     6    2   31 1   
     7    2   32 1   
     8    3    4 1   
     9    3   33 1   
    10    3   34 1   
    11    4    5 1   
    12    4   35 1   
    13    4   36 1   
    14    5    6 1   
    15    5   37 1   
    16    6    7 1   
    17    6    8 1   
    18    6   38 1   
    19    7   14 1   
    20    7   39 1   
    21    7   40 1   
    22    8    9 1   
    23    8   41 1   
    24    9   10 1   
    25    9   11 1   
    26   12   13 1   
    27   12   14 1   
    28   13   18 1   
    29   13   42 1   
    30   14   15 1   
    31   15   16 1   
    32   15   43 1   
    33   16   17 1   
    34   17   44 1   
    35   17   45 1   
    36   17   46 1   
    37   18   19 1   
    38   19   20 1   
    39   19   21 1   
    40   22   23 1   
    41   22   28 1   
    42   23   24 1   
    43   23   47 1   
    44   23   48 1   
    45   24   25 1   
    46   24   49 1   
    47   24   50 1   
    48   25   26 1   
    49   25   27 1   
    50   26   51 1   
    51   26   52 1   
    52   26   53 1   
    53   27   28 1   
    54   27   54 1   
    55   27   55 1   
    56   28   56 1   
    57   28   57 1   
@<TRIPOS>SUBSTRUCTURE
     1 NS7         1 TEMP              0 ****  ****    0 ROOT
