@<TRIPOS>MOLECULE
NS7
   57    60     1     0     0
SMALL
bcc


@<TRIPOS>ATOM
      1 C2         -0.3410    0.3910    0.1110 c3        1 NS7     -0.077900
      2 C3          1.1630    0.5640   -0.0520 c3        1 NS7     -0.079400
      3 C4          1.8290   -0.0230    1.1870 c3        1 NS7     -0.079400
      4 C5          0.7250   -0.5610    2.0880 c3        1 NS7     -0.077900
      5 C1         -0.5860    0.0390    1.5790 c3        1 NS7     -0.071700
      6 C6         -1.7660   -0.9290    1.7630 c3        1 NS7      0.244500
      7 C9         -1.9500   -1.2070    3.2690 c3        1 NS7     -0.093100
      8 N1         -2.9870   -0.4620    1.1600 n3        1 NS7     -0.919100
      9 S1         -4.3070   -1.3870    1.1510 sy        1 NS7      1.529200
     10 O1         -4.1910   -2.4400    0.2320 o         1 NS7     -0.652300
     11 O2         -5.4490   -0.5750    1.0040 o         1 NS7     -0.652300
     12 C7         -4.2860   -2.0360    2.7230 ca        1 NS7     -0.390500
     13 C10        -5.4300   -2.7150    3.1510 ca        1 NS7      0.086000
     14 C8         -3.2000   -1.9440    3.6090 ca        1 NS7      0.094700
     15 C13        -3.2880   -2.5270    4.8750 ca        1 NS7     -0.195000
     16 C12        -4.4440   -3.1950    5.2900 ca        1 NS7      0.109700
     17 C14        -4.4740   -3.7930    6.6460 c3        1 NS7     -0.099800
     18 C11        -5.5460   -3.2920    4.4200 ca        1 NS7     -0.395500
     19 S2         -6.9980   -4.1040    4.7900 sy        1 NS7      1.508200
     20 O3         -7.6080   -4.4360    3.5620 o         1 NS7     -0.649300
     21 O4         -6.7230   -5.1750    5.6680 o         1 NS7     -0.649300
     22 N2         -7.8760   -2.9760    5.5580 n3        1 NS7     -0.817500
     23 C15        -8.1240   -2.9860    6.9770 c3        1 NS7      0.224800
     24 C16        -7.8160   -1.6370    7.6600 c3        1 NS7      0.154300
     25 N3         -8.4320   -0.5060    6.9820 n3        1 NS7     -0.729600
     26 C19        -8.1110    0.7560    7.6070 c3        1 NS7      0.157100
     27 C17        -8.1800   -0.4980    5.5480 c3        1 NS7      0.154300
     28 C18        -8.4760   -1.8560    4.8770 c3        1 NS7      0.224800
     29 H2         -0.7100   -0.4300   -0.5550 hc        1 NS7      0.047200
     30 H2A        -0.8880    1.3250   -0.1700 hc        1 NS7      0.047200
     31 H3          1.5180    0.0470   -0.9780 hc        1 NS7      0.045700
     32 H3A         1.4230    1.6470   -0.1560 hc        1 NS7      0.045700
     33 H4          2.4190    0.7630    1.7210 hc        1 NS7      0.045700
     34 H4A         2.5400   -0.8400    0.9080 hc        1 NS7      0.045700
     35 H5          0.6930   -1.6790    2.0310 hc        1 NS7      0.047200
     36 H5A         0.9000   -0.2810    3.1560 hc        1 NS7      0.047200
     37 H1         -0.8020    0.9840    2.1500 hc        1 NS7      0.053700
     38 H6         -1.4920   -1.9100    1.2600 h1        1 NS7      0.067700
     39 H9         -1.9570   -0.2350    3.8340 hc        1 NS7      0.075700
     40 H9A        -1.0590   -1.7930    3.6220 hc        1 NS7      0.075700
     41 HN1        -2.9760    0.4790    0.8500 hn        1 NS7      0.458800
     42 H10        -6.2850   -2.8060    2.4470 ha        1 NS7      0.173000
     43 H13        -2.4280   -2.4580    5.5610 ha        1 NS7      0.143000
     44 H14        -4.5990   -4.9070    6.5740 hc        1 NS7      0.071033
     45 H14A       -3.5330   -3.5760    7.2100 hc        1 NS7      0.071033
     46 H14B       -5.3380   -3.3890    7.2330 hc        1 NS7      0.071033
     47 H15        -7.4950   -3.7850    7.4640 h1        1 NS7      0.062700
     48 H15A       -9.2100   -3.2380    7.1540 h1        1 NS7      0.062700
     49 H16        -6.6950   -1.5170    7.7420 h1        1 NS7      0.038700
     50 H16A       -8.2340   -1.6790    8.7050 h1        1 NS7      0.038700
     51 H19        -7.0160    1.0120    7.5590 h1        1 NS7      0.034033
     52 H19A       -8.4200    0.7150    8.6840 h1        1 NS7      0.034033
     53 H19B       -8.6900    1.5690    7.0950 h1        1 NS7      0.034033
     54 H17        -8.8650    0.2670    5.0860 h1        1 NS7      0.038700
     55 H17A       -7.1180   -0.1980    5.3130 h1        1 NS7      0.038700
     56 H18        -9.5940   -2.0060    4.8390 h1        1 NS7      0.062700
     57 H18A       -8.0900   -1.8170    3.8180 h1        1 NS7      0.062700
@<TRIPOS>BOND
     1    1    2 1   
     2    1    5 1   
     3    1   29 1   
     4    1   30 1   
     5    2    3 1   
     6    2   31 1   
     7    2   32 1   
     8    3    4 1   
     9    3   33 1   
    10    3   34 1   
    11    4    5 1   
    12    4   35 1   
    13    4   36 1   
    14    5    6 1   
    15    5   37 1   
    16    6    7 1   
    17    6    8 1   
    18    6   38 1   
    19    7   14 1   
    20    7   39 1   
    21    7   40 1   
    22    8    9 1   
    23    8   41 1   
    24    9   10 2   
    25    9   11 2   
    26    9   12 1   
    27   12   13 ar  
    28   12   14 ar  
    29   13   18 ar  
    30   13   42 1   
    31   14   15 ar  
    32   15   16 ar  
    33   15   43 1   
    34   16   17 1   
    35   16   18 ar  
    36   17   44 1   
    37   17   45 1   
    38   17   46 1   
    39   18   19 1   
    40   19   20 2   
    41   19   21 2   
    42   19   22 1   
    43   22   23 1   
    44   22   28 1   
    45   23   24 1   
    46   23   47 1   
    47   23   48 1   
    48   24   25 1   
    49   24   49 1   
    50   24   50 1   
    51   25   26 1   
    52   25   27 1   
    53   26   51 1   
    54   26   52 1   
    55   26   53 1   
    56   27   28 1   
    57   27   54 1   
    58   27   55 1   
    59   28   56 1   
    60   28   57 1   
@<TRIPOS>SUBSTRUCTURE
     1 NS7         1 TEMP              0 ****  ****    0 ROOT
