@<TRIPOS>MOLECULE
NS7
   57    60     1     0     0
SMALL
bcc


@<TRIPOS>ATOM
      1 C2         -0.3360    0.3810    0.1120 c3        1 NS7     -0.077900
      2 C3          1.1690    0.5510   -0.0510 c3        1 NS7     -0.079400
      3 C4          1.8330   -0.0350    1.1890 c3        1 NS7     -0.079400
      4 C5          0.7270   -0.5710    2.0900 c3        1 NS7     -0.077900
      5 C1         -0.5830    0.0310    1.5790 c3        1 NS7     -0.071700
      6 C6         -1.7640   -0.9350    1.7640 c3        1 NS7      0.244500
      7 C9         -1.9500   -1.2110    3.2700 c3        1 NS7     -0.093100
      8 N1         -2.9840   -0.4660    1.1590 n7        1 NS7     -0.919100
      9 S1         -4.3060   -1.3890    1.1510 sy        1 NS7      1.529200
     10 O1         -4.1910   -2.4420    0.2320 o         1 NS7     -0.652300
     11 O2         -5.4460   -0.5750    1.0020 o         1 NS7     -0.652300
     12 C7         -4.2870   -2.0370    2.7230 ca        1 NS7     -0.390500
     13 C10        -5.4320   -2.7130    3.1510 ca        1 NS7      0.086000
     14 C8         -3.2010   -1.9450    3.6090 ca        1 NS7      0.094700
     15 C13        -3.2910   -2.5270    4.8760 ca        1 NS7     -0.195000
     16 C12        -4.4490   -3.1930    5.2910 ca        1 NS7      0.109700
     17 C14        -4.4790   -3.7910    6.6480 c3        1 NS7     -0.099800
     18 C11        -5.5500   -3.2890    4.4200 ca        1 NS7     -0.395500
     19 S2         -7.0030   -4.0980    4.7900 sy        1 NS7      1.508200
     20 O3         -7.6140   -4.4300    3.5630 o         1 NS7     -0.649300
     21 O4         -6.7310   -5.1690    5.6690 o         1 NS7     -0.649300
     22 N2         -7.8800   -2.9680    5.5570 n3        1 NS7     -0.817500
     23 C15        -8.1290   -2.9770    6.9760 c3        1 NS7      0.224800
     24 C16        -7.8180   -1.6280    7.6590 c3        1 NS7      0.154300
     25 N3         -8.4330   -0.4970    6.9800 n3        1 NS7     -0.729600
     26 C19        -8.1090    0.7650    7.6050 c3        1 NS7      0.157100
     27 C17        -8.1800   -0.4900    5.5470 c3        1 NS7      0.154300
     28 C18        -8.4770   -1.8470    4.8750 c3        1 NS7      0.224800
     29 H2         -0.8800    1.3160   -0.1710 hc        1 NS7      0.047200
     30 H2A        -0.7060   -0.4400   -0.5540 hc        1 NS7      0.047200
     31 H3          1.4310    1.6340   -0.1570 hc        1 NS7      0.045700
     32 H3A         1.5240    0.0310   -0.9760 hc        1 NS7      0.045700
     33 H4          2.5430   -0.8540    0.9120 hc        1 NS7      0.045700
     34 H4A         2.4230    0.7510    1.7230 hc        1 NS7      0.045700
     35 H5          0.9020   -0.2910    3.1570 hc        1 NS7      0.047200
     36 H5A         0.6940   -1.6890    2.0340 hc        1 NS7      0.047200
     37 H1         -0.7970    0.9770    2.1500 hc        1 NS7      0.053700
     38 H6         -1.4920   -1.9160    1.2620 h1        1 NS7      0.067700
     39 H9         -1.9550   -0.2380    3.8340 hc        1 NS7      0.075700
     40 H9A        -1.0600   -1.7980    3.6230 hc        1 NS7      0.075700
     41 HN1        -2.9710    0.4750    0.8490 hn        1 NS7      0.458800
     42 H10        -6.2870   -2.8030    2.4470 ha        1 NS7      0.173000
     43 H13        -2.4310   -2.4590    5.5620 ha        1 NS7      0.143000
     44 H14        -3.5390   -3.5740    7.2110 hc        1 NS7      0.071033
     45 H14A       -5.3440   -3.3840    7.2330 hc        1 NS7      0.071033
     46 H14B       -4.6070   -4.9040    6.5770 hc        1 NS7      0.071033
     47 H15        -9.2150   -3.2270    7.1530 h1        1 NS7      0.062700
     48 H15A       -7.5010   -3.7770    7.4640 h1        1 NS7      0.062700
     49 H16        -8.2370   -1.6690    8.7030 h1        1 NS7      0.038700
     50 H16A       -6.6980   -1.5100    7.7410 h1        1 NS7      0.038700
     51 H19        -8.4190    0.7240    8.6820 h1        1 NS7      0.034033
     52 H19A       -7.0140    1.0190    7.5570 h1        1 NS7      0.034033
     53 H19B       -8.6870    1.5790    7.0920 h1        1 NS7      0.034033
     54 H17        -7.1160   -0.1910    5.3120 h1        1 NS7      0.038700
     55 H17A       -8.8630    0.2760    5.0830 h1        1 NS7      0.038700
     56 H18        -9.5950   -1.9950    4.8370 h1        1 NS7      0.062700
     57 H18A       -8.0900   -1.8100    3.8160 h1        1 NS7      0.062700
@<TRIPOS>BOND
     1    1    2 1   
     2    1    5 1   
     3    1   29 1   
     4    1   30 1   
     5    2    3 1   
     6    2   31 1   
     7    2   32 1   
     8    3    4 1   
     9    3   33 1   
    10    3   34 1   
    11    4    5 1   
    12    4   35 1   
    13    4   36 1   
    14    5    6 1   
    15    5   37 1   
    16    6    7 1   
    17    6    8 1   
    18    6   38 1   
    19    7   14 1   
    20    7   39 1   
    21    7   40 1   
    22    8    9 1   
    23    8   41 1   
    24    9   10 2   
    25    9   11 2   
    26    9   12 1   
    27   12   13 ar  
    28   12   14 ar  
    29   13   18 ar  
    30   13   42 1   
    31   14   15 ar  
    32   15   16 ar  
    33   15   43 1   
    34   16   17 1   
    35   16   18 ar  
    36   17   44 1   
    37   17   45 1   
    38   17   46 1   
    39   18   19 1   
    40   19   20 2   
    41   19   21 2   
    42   19   22 1   
    43   22   23 1   
    44   22   28 1   
    45   23   24 1   
    46   23   47 1   
    47   23   48 1   
    48   24   25 1   
    49   24   49 1   
    50   24   50 1   
    51   25   26 1   
    52   25   27 1   
    53   26   51 1   
    54   26   52 1   
    55   26   53 1   
    56   27   28 1   
    57   27   54 1   
    58   27   55 1   
    59   28   56 1   
    60   28   57 1   
@<TRIPOS>SUBSTRUCTURE
     1 NS7         1 TEMP              0 ****  ****    0 ROOT
