@<TRIPOS>MOLECULE
NS7
   57    60     1     0     0
SMALL
bcc


@<TRIPOS>ATOM
      1 C2         -0.3360    0.3850    0.1150 c3        1 NS7     -0.077900
      2 C3          1.1690    0.5610   -0.0450 c3        1 NS7     -0.079400
      3 C4          1.8320   -0.0210    1.1970 c3        1 NS7     -0.079400
      4 C5          0.7270   -0.5580    2.0960 c3        1 NS7     -0.077900
      5 C1         -0.5840    0.0380    1.5830 c3        1 NS7     -0.071700
      6 C6         -1.7620   -0.9320    1.7680 c3        1 NS7      0.244500
      7 C9         -1.9490   -1.2060    3.2740 c3        1 NS7     -0.093100
      8 N1         -2.9830   -0.4690    1.1600 n3        1 NS7     -0.919100
      9 S1         -4.3010   -1.3970    1.1510 sy        1 NS7      1.529200
     10 O1         -4.1810   -2.4520    0.2350 o         1 NS7     -0.652300
     11 O2         -5.4440   -0.5880    0.9980 o         1 NS7     -0.652300
     12 C7         -4.2820   -2.0410    2.7250 ca        1 NS7     -0.390500
     13 C10        -5.4260   -2.7200    3.1530 ca        1 NS7      0.086000
     14 C8         -3.1980   -1.9440    3.6130 ca        1 NS7      0.094700
     15 C13        -3.2880   -2.5230    4.8810 ca        1 NS7     -0.195000
     16 C12        -4.4450   -3.1920    5.2960 ca        1 NS7      0.109700
     17 C14        -4.4760   -3.7860    6.6530 c3        1 NS7     -0.099800
     18 C11        -5.5440   -3.2930    4.4230 ca        1 NS7     -0.395500
     19 S2         -6.9960   -4.1060    4.7920 sy        1 NS7      1.508200
     20 O3         -7.6030   -4.4430    3.5650 o         1 NS7     -0.649300
     21 O4         -6.7210   -5.1740    5.6750 o         1 NS7     -0.649300
     22 N2         -7.8770   -2.9770    5.5550 n3        1 NS7     -0.817500
     23 C15        -8.1280   -2.9820    6.9730 c3        1 NS7      0.224800
     24 C16        -7.8230   -1.6300    7.6520 c3        1 NS7      0.154300
     25 N3         -8.4400   -0.5030    6.9690 n3        1 NS7     -0.729600
     26 C19        -8.1220    0.7620    7.5900 c3        1 NS7      0.157100
     27 C17        -8.1860   -0.5000    5.5360 c3        1 NS7      0.154300
     28 C18        -8.4780   -1.8610    4.8680 c3        1 NS7      0.224800
     29 H2         -0.8830    1.3170   -0.1710 hc        1 NS7      0.047200
     30 H2A        -0.7010   -0.4390   -0.5500 hc        1 NS7      0.047200
     31 H3          1.5270    0.0410   -0.9690 hc        1 NS7      0.045700
     32 H3A         1.4270    1.6440   -0.1530 hc        1 NS7      0.045700
     33 H4          2.4190    0.7680    1.7300 hc        1 NS7      0.045700
     34 H4A         2.5460   -0.8380    0.9220 hc        1 NS7      0.045700
     35 H5          0.6980   -1.6770    2.0430 hc        1 NS7      0.047200
     36 H5A         0.8990   -0.2750    3.1640 hc        1 NS7      0.047200
     37 H1         -0.8020    0.9830    2.1510 hc        1 NS7      0.053700
     38 H6         -1.4850   -1.9140    1.2680 h1        1 NS7      0.067700
     39 H9         -1.0580   -1.7900    3.6300 hc        1 NS7      0.075700
     40 H9A        -1.9590   -0.2320    3.8360 hc        1 NS7      0.075700
     41 HN1        -2.9730    0.4710    0.8470 hn        1 NS7      0.458800
     42 H10        -6.2800   -2.8140    2.4470 ha        1 NS7      0.173000
     43 H13        -2.4300   -2.4510    5.5680 ha        1 NS7      0.143000
     44 H14        -5.3420   -3.3810    7.2370 hc        1 NS7      0.071033
     45 H14A       -3.5370   -3.5660    7.2180 hc        1 NS7      0.071033
     46 H14B       -4.6000   -4.9000    6.5850 hc        1 NS7      0.071033
     47 H15        -9.2140   -3.2350    7.1500 h1        1 NS7      0.062450
     48 H15A       -7.4980   -3.7790    7.4650 h1        1 NS7      0.062450
     49 H16        -8.2420   -1.6690    8.6960 h1        1 NS7      0.038700
     50 H16A       -6.7020   -1.5080    7.7350 h1        1 NS7      0.038700
     51 H19        -8.4330    0.7240    8.6660 h1        1 NS7      0.034033
     52 H19A       -7.0270    1.0200    7.5420 h1        1 NS7      0.034033
     53 H19B       -8.7010    1.5720    7.0740 h1        1 NS7      0.034033
     54 H17        -8.8710    0.2620    5.0690 h1        1 NS7      0.038700
     55 H17A       -7.1230   -0.1980    5.3010 h1        1 NS7      0.038700
     56 H18        -9.5950   -2.0120    4.8300 h1        1 NS7      0.062450
     57 H18A       -8.0900   -1.8250    3.8100 h1        1 NS7      0.062450
@<TRIPOS>BOND
     1    1    2 1   
     2    1    5 1   
     3    1   29 1   
     4    1   30 1   
     5    2    3 1   
     6    2   31 1   
     7    2   32 1   
     8    3    4 1   
     9    3   33 1   
    10    3   34 1   
    11    4    5 1   
    12    4   35 1   
    13    4   36 1   
    14    5    6 1   
    15    5   37 1   
    16    6    7 1   
    17    6    8 1   
    18    6   38 1   
    19    7   14 1   
    20    7   39 1   
    21    7   40 1   
    22    8    9 1   
    23    8   41 1   
    24    9   10 2   
    25    9   11 2   
    26    9   12 1   
    27   12   13 ar  
    28   12   14 ar  
    29   13   18 ar  
    30   13   42 1   
    31   14   15 ar  
    32   15   16 ar  
    33   15   43 1   
    34   16   17 1   
    35   16   18 ar  
    36   17   44 1   
    37   17   45 1   
    38   17   46 1   
    39   18   19 1   
    40   19   20 2   
    41   19   21 2   
    42   19   22 1   
    43   22   23 1   
    44   22   28 1   
    45   23   24 1   
    46   23   47 1   
    47   23   48 1   
    48   24   25 1   
    49   24   49 1   
    50   24   50 1   
    51   25   26 1   
    52   25   27 1   
    53   26   51 1   
    54   26   52 1   
    55   26   53 1   
    56   27   28 1   
    57   27   54 1   
    58   27   55 1   
    59   28   56 1   
    60   28   57 1   
@<TRIPOS>SUBSTRUCTURE
     1 NS7         1 TEMP              0 ****  ****    0 ROOT
