@<TRIPOS>MOLECULE
NS7
   57    60     1     0     0
SMALL
bcc


@<TRIPOS>ATOM
      1 C2         -5.8650   -0.1680   -0.9360 c3        1 NS7     -0.077900
      2 C3         -7.1850   -0.8000   -0.5120 c3        1 NS7     -0.079400
      3 C4         -6.8710   -1.8440    0.5530 c3        1 NS7     -0.079400
      4 C5         -5.3650   -1.8290    0.7780 c3        1 NS7     -0.077900
      5 C1         -4.7540   -1.0700   -0.4010 c3        1 NS7     -0.071700
      6 C6         -3.5030   -0.2800    0.0170 c3        1 NS7      0.244500
      7 C9         -2.4340   -1.2710    0.5210 c3        1 NS7     -0.093100
      8 N1         -2.9870    0.5660   -1.0280 n3        1 NS7     -0.919100
      9 S1         -1.7460    1.5560   -0.7480 sy        1 NS7      1.529200
     10 O1         -2.1320    2.6570    0.0290 o         1 NS7     -0.652300
     11 O2         -1.1080    1.8650   -1.9660 o         1 NS7     -0.652300
     12 C7         -0.7200    0.5700    0.1820 ca        1 NS7     -0.390500
     13 C10         0.5780    1.0330    0.4110 ca        1 NS7      0.086000
     14 C8         -1.0900   -0.6660    0.7390 ca        1 NS7      0.094700
     15 C13        -0.1670   -1.3870    1.4990 ca        1 NS7     -0.195000
     16 C12         1.1320   -0.9120    1.7110 ca        1 NS7      0.109700
     17 C14         2.0630   -1.7250    2.5290 c3        1 NS7     -0.099800
     18 C11         1.5240    0.3200    1.1560 ca        1 NS7     -0.395500
     19 S2          3.0620    1.0250    1.3640 sy        1 NS7      1.508200
     20 O3          2.9140    2.4090    1.1390 o         1 NS7     -0.649300
     21 O4          3.5840    0.6420    2.6190 o         1 NS7     -0.649300
     22 N2          3.9460    0.3610    0.1760 n3        1 NS7     -0.817500
     23 C15         4.9560   -0.6410    0.3970 c3        1 NS7      0.224800
     24 C16         4.8060   -1.8720   -0.5220 c3        1 NS7      0.154300
     25 N3          4.6550   -1.5150   -1.9240 n3        1 NS7     -0.729600
     26 C19         4.4810   -2.6710   -2.7740 c3        1 NS7      0.157100
     27 C17         3.6340   -0.5020   -2.1450 c3        1 NS7      0.154300
     28 C18         3.7820    0.7180   -1.2110 c3        1 NS7      0.224800
     29 H2         -5.8010   -0.0760   -2.0490 hc        1 NS7      0.047200
     30 H2A        -5.7750    0.8620   -0.5060 hc        1 NS7      0.047200
     31 H3         -7.8810   -0.0210   -0.1130 hc        1 NS7      0.045700
     32 H3A        -7.6890   -1.2780   -1.3890 hc        1 NS7      0.045700
     33 H4         -7.4120   -1.6170    1.5050 hc        1 NS7      0.045700
     34 H4A        -7.2040   -2.8570    0.2140 hc        1 NS7      0.045700
     35 H5         -5.1260   -1.3140    1.7430 hc        1 NS7      0.047200
     36 H5A        -4.9530   -2.8660    0.8370 hc        1 NS7      0.047200
     37 H1         -4.4650   -1.8080   -1.1990 hc        1 NS7      0.053700
     38 H6         -3.7910    0.3910    0.8870 h1        1 NS7      0.067700
     39 H9         -2.8060   -1.7190    1.4810 hc        1 NS7      0.075700
     40 H9A        -2.3190   -2.1110   -0.2190 hc        1 NS7      0.075700
     41 HN1        -3.3810    0.4210   -1.9250 hn        1 NS7      0.458800
     42 H10         0.8710    2.0180   -0.0120 ha        1 NS7      0.173000
     43 H13        -0.4680   -2.3510    1.9400 ha        1 NS7      0.143000
     44 H14         2.9920   -1.9570    1.9470 hc        1 NS7      0.071033
     45 H14A        2.3670   -1.1570    3.4480 hc        1 NS7      0.071033
     46 H14B        1.5950   -2.6900    2.8440 hc        1 NS7      0.071033
     47 H15         5.9710   -0.1810    0.2170 h1        1 NS7      0.062700
     48 H15A        4.9150   -0.9890    1.4690 h1        1 NS7      0.062700
     49 H16         5.7440   -2.4880   -0.4240 h1        1 NS7      0.038700
     50 H16A        3.9420   -2.4990   -0.1530 h1        1 NS7      0.038700
     51 H19         3.5320   -3.2390   -2.5650 h1        1 NS7      0.034033
     52 H19A        4.4650   -2.3320   -3.8430 h1        1 NS7      0.034033
     53 H19B        5.3510   -3.3620   -2.6260 h1        1 NS7      0.034033
     54 H17         3.7400   -0.1350   -3.2040 h1        1 NS7      0.038700
     55 H17A        2.5930   -0.9260   -2.0300 h1        1 NS7      0.038700
     56 H18         2.8620    1.3610   -1.3210 h1        1 NS7      0.062700
     57 H18A        4.6760    1.3210   -1.5420 h1        1 NS7      0.062700
@<TRIPOS>BOND
     1    1    2 1   
     2    1    5 1   
     3    1   29 1   
     4    1   30 1   
     5    2    3 1   
     6    2   31 1   
     7    2   32 1   
     8    3    4 1   
     9    3   33 1   
    10    3   34 1   
    11    4    5 1   
    12    4   35 1   
    13    4   36 1   
    14    5    6 1   
    15    5   37 1   
    16    6    7 1   
    17    6    8 1   
    18    6   38 1   
    19    7   14 1   
    20    7   39 1   
    21    7   40 1   
    22    8    9 1   
    23    8   41 1   
    24    9   10 2   
    25    9   11 2   
    26    9   12 1   
    27   12   13 ar  
    28   12   14 ar  
    29   13   18 ar  
    30   13   42 1   
    31   14   15 ar  
    32   15   16 ar  
    33   15   43 1   
    34   16   17 1   
    35   16   18 ar  
    36   17   44 1   
    37   17   45 1   
    38   17   46 1   
    39   18   19 1   
    40   19   20 2   
    41   19   21 2   
    42   19   22 1   
    43   22   23 1   
    44   22   28 1   
    45   23   24 1   
    46   23   47 1   
    47   23   48 1   
    48   24   25 1   
    49   24   49 1   
    50   24   50 1   
    51   25   26 1   
    52   25   27 1   
    53   26   51 1   
    54   26   52 1   
    55   26   53 1   
    56   27   28 1   
    57   27   54 1   
    58   27   55 1   
    59   28   56 1   
    60   28   57 1   
@<TRIPOS>SUBSTRUCTURE
     1 NS7         1 TEMP              0 ****  ****    0 ROOT
