@<TRIPOS>MOLECULE
NS9
   55    57     1     0     0
SMALL
bcc


@<TRIPOS>ATOM
      1 N1          0.0290    0.2940    0.1040 nc        1 NS9     -0.590100
      2 N2          1.3720    0.2320    0.0090 na        1 NS9     -0.014800
      3 C3          2.3340    0.3320    1.0300 cc        1 NS9      0.307300
      4 C4          3.6780    0.2460    0.6500 cd        1 NS9     -0.420300
      5 C5          4.0450    0.0760   -0.7450 cd        1 NS9      0.696200
      6 N6          3.1320    0.0290   -1.7370 nc        1 NS9     -0.742000
      7 C7          1.8160    0.1030   -1.3680 cc        1 NS9      0.431500
      8 C8          0.6200    0.0770   -2.1320 cd        1 NS9     -0.288800
      9 C9         -0.4420    0.1980   -1.1640 cd        1 NS9      0.397500
     10 N10         1.9400    0.5750    2.3450 nu        1 NS9     -0.743600
     11 C11         2.8360    0.1920    3.4160 c3        1 NS9      0.248100
     12 C12         2.1330    0.0150    4.7300 ca        1 NS9     -0.117300
     13 C13         1.4050    1.0720    5.2870 ca        1 NS9     -0.113000
     14 C14         0.7800    0.9130    6.5230 ca        1 NS9     -0.130000
     15 C15         0.8810   -0.2990    7.2070 ca        1 NS9     -0.118000
     16 C16         1.6070   -1.3530    6.6530 ca        1 NS9     -0.130000
     17 C17         2.2290   -1.2000    5.4150 ca        1 NS9     -0.113000
     18 N18         5.4150   -0.1190   -1.0090 nu        1 NS9     -0.816900
     19 C19         5.9210   -0.0010   -2.3650 c3        1 NS9      0.198500
     20 C20         7.3130   -0.6790   -2.4860 c3        1 NS9      0.143100
     21 C21         7.2790   -2.1290   -1.9940 c3        1 NS9      0.098400
     22 O22         8.5310   -2.6960   -2.3550 oh        1 NS9     -0.619800
     23 C23         6.0490    1.4540   -2.8660 c3        1 NS9      0.097400
     24 O24         6.8550    2.1670   -1.9390 oh        1 NS9     -0.619800
     25 O25         7.6320   -0.6350   -3.8710 oh        1 NS9     -0.608800
     26 C26         0.4910   -0.0470   -3.5940 c3        1 NS9      0.017500
     27 C27        -0.2770   -1.3030   -3.9670 c3        1 NS9     -0.086100
     28 C28        -0.1880    1.1760   -4.1860 c3        1 NS9     -0.086100
     29 H4          4.4650    0.3200    1.4100 ha        1 NS9      0.157000
     30 H9         -1.5140    0.2140   -1.3750 h4        1 NS9      0.050800
     31 HN10        0.9650    0.5050    2.5560 hn        1 NS9      0.447800
     32 H11         3.3890   -0.7580    3.1520 h1        1 NS9      0.055700
     33 H11A        3.6050    1.0130    3.5240 h1        1 NS9      0.055700
     34 H13         1.3300    2.0300    4.7500 ha        1 NS9      0.139000
     35 H14         0.2070    1.7450    6.9580 ha        1 NS9      0.136500
     36 H15         0.3880   -0.4230    8.1830 ha        1 NS9      0.135000
     37 H16         1.6870   -2.3090    7.1910 ha        1 NS9      0.136500
     38 H17         2.7970   -2.0360    4.9800 ha        1 NS9      0.139000
     39 HN18        6.0000    0.3560   -0.3470 hn        1 NS9      0.414800
     40 H19         5.2240   -0.5350   -3.0760 h1        1 NS9      0.105700
     41 H20         8.0830   -0.0930   -1.9110 h1        1 NS9      0.060700
     42 H21         6.4410   -2.6870   -2.4880 h1        1 NS9      0.043200
     43 H21A        7.1560   -2.1690   -0.8800 h1        1 NS9      0.043200
     44 HO22        8.4640   -3.6430   -2.1950 ho        1 NS9      0.409000
     45 H23         6.5290    1.4440   -3.8810 h1        1 NS9      0.051200
     46 H23A        5.0360    1.9330   -2.9290 h1        1 NS9      0.051200
     47 HO24        7.0460    3.0220   -2.3410 ho        1 NS9      0.408000
     48 HO25        8.4320   -1.1660   -3.9860 ho        1 NS9      0.426000
     49 H26         1.5260   -0.1230   -4.0400 hc        1 NS9      0.066700
     50 H27        -1.3060   -1.2760   -3.5350 hc        1 NS9      0.032533
     51 H27A        0.2470   -2.2080   -3.5790 hc        1 NS9      0.032533
     52 H27B       -0.3590   -1.3850   -5.0780 hc        1 NS9      0.032533
     53 H28        -0.2700    1.0690   -5.2940 hc        1 NS9      0.032533
     54 H28A       -1.2140    1.2980   -3.7620 hc        1 NS9      0.032533
     55 H28B        0.4010    2.0960   -3.9580 hc        1 NS9      0.032533
@<TRIPOS>BOND
     1    1    2 1   
     2    1    9 2   
     3    2    3 1   
     4    2    7 1   
     5    3    4 2   
     6    3   10 1   
     7    4    5 1   
     8    4   29 1   
     9    5    6 2   
    10    5   18 1   
    11    6    7 1   
    12    7    8 2   
    13    8    9 1   
    14    8   26 1   
    15    9   30 1   
    16   10   11 1   
    17   10   31 1   
    18   11   12 1   
    19   11   32 1   
    20   11   33 1   
    21   12   13 ar  
    22   12   17 ar  
    23   13   14 ar  
    24   13   34 1   
    25   14   15 ar  
    26   14   35 1   
    27   15   16 ar  
    28   15   36 1   
    29   16   17 ar  
    30   16   37 1   
    31   17   38 1   
    32   18   19 1   
    33   18   39 1   
    34   19   20 1   
    35   19   23 1   
    36   19   40 1   
    37   20   21 1   
    38   20   25 1   
    39   20   41 1   
    40   21   22 1   
    41   21   42 1   
    42   21   43 1   
    43   22   44 1   
    44   23   24 1   
    45   23   45 1   
    46   23   46 1   
    47   24   47 1   
    48   25   48 1   
    49   26   27 1   
    50   26   28 1   
    51   26   49 1   
    52   27   50 1   
    53   27   51 1   
    54   27   52 1   
    55   28   53 1   
    56   28   54 1   
    57   28   55 1   
@<TRIPOS>SUBSTRUCTURE
     1 NS9         1 TEMP              0 ****  ****    0 ROOT
