@<TRIPOS>MOLECULE
NS9
   55    57     1     0     0
SMALL
bcc


@<TRIPOS>ATOM
      1 N1          0.0300    0.3040    0.1090 nc        1 NS9     -0.590100
      2 N2          1.3740    0.2370    0.0110 na        1 NS9     -0.014800
      3 C3          2.3380    0.3360    1.0310 cc        1 NS9      0.306300
      4 C4          3.6810    0.2460    0.6480 cd        1 NS9     -0.420300
      5 C5          4.0450    0.0730   -0.7470 cd        1 NS9      0.695200
      6 N6          3.1300    0.0270   -1.7370 nc        1 NS9     -0.742000
      7 C7          1.8150    0.1060   -1.3660 cc        1 NS9      0.431500
      8 C8          0.6170    0.0820   -2.1280 cd        1 NS9     -0.288800
      9 C9         -0.4430    0.2080   -1.1580 cd        1 NS9      0.397500
     10 N10         1.9460    0.5820    2.3460 nh        1 NS9     -0.743600
     11 C11         2.8420    0.1970    3.4160 c3        1 NS9      0.248100
     12 C12         2.1410    0.0230    4.7310 ca        1 NS9     -0.117300
     13 C13         1.4180    1.0830    5.2890 ca        1 NS9     -0.113000
     14 C14         0.7940    0.9260    6.5260 ca        1 NS9     -0.130000
     15 C15         0.8910   -0.2860    7.2100 ca        1 NS9     -0.118000
     16 C16         1.6120   -1.3430    6.6550 ca        1 NS9     -0.130000
     17 C17         2.2340   -1.1920    5.4160 ca        1 NS9     -0.113000
     18 N18         5.4140   -0.1270   -1.0130 nh        1 NS9     -0.816900
     19 C19         5.9180   -0.0110   -2.3700 c3        1 NS9      0.198500
     20 C20         7.3080   -0.6930   -2.4930 c3        1 NS9      0.143100
     21 C21         7.2710   -2.1420   -1.9980 c3        1 NS9      0.098400
     22 O22         8.5220   -2.7120   -2.3610 oh        1 NS9     -0.619800
     23 C23         6.0480    1.4420   -2.8730 c3        1 NS9      0.097400
     24 O24         6.8570    2.1550   -1.9490 oh        1 NS9     -0.619800
     25 O25         7.6240   -0.6520   -3.8780 oh        1 NS9     -0.608800
     26 C26         0.4850   -0.0440   -3.5890 c3        1 NS9      0.017500
     27 C27        -0.2860   -1.2990   -3.9590 c3        1 NS9     -0.086100
     28 C28        -0.1930    1.1800   -4.1810 c3        1 NS9     -0.086100
     29 H4          4.4700    0.3190    1.4070 ha        1 NS9      0.157000
     30 H9         -1.5150    0.2260   -1.3670 h4        1 NS9      0.050800
     31 HN10        0.9720    0.5160    2.5590 hn        1 NS9      0.447800
     32 H11         3.3930   -0.7550    3.1520 h1        1 NS9      0.055700
     33 H11A        3.6150    1.0160    3.5230 h1        1 NS9      0.055700
     34 H13         1.3460    2.0410    4.7530 ha        1 NS9      0.139000
     35 H14         0.2260    1.7610    6.9620 ha        1 NS9      0.136500
     36 H15         0.3990   -0.4080    8.1870 ha        1 NS9      0.135000
     37 H16         1.6890   -2.3000    7.1930 ha        1 NS9      0.136500
     38 H17         2.7970   -2.0310    4.9800 ha        1 NS9      0.139000
     39 HN18        6.0010    0.3470   -0.3530 hn        1 NS9      0.414800
     40 H19         5.2180   -0.5450   -3.0790 h1        1 NS9      0.105700
     41 H20         8.0800   -0.1080   -1.9200 h1        1 NS9      0.060700
     42 H21         7.1500   -2.1810   -0.8850 h1        1 NS9      0.043200
     43 H21A        6.4310   -2.6990   -2.4910 h1        1 NS9      0.043200
     44 HO22        8.4530   -3.6590   -2.1990 ho        1 NS9      0.409000
     45 H23         5.0350    1.9230   -2.9350 h1        1 NS9      0.051200
     46 H23A        6.5260    1.4300   -3.8890 h1        1 NS9      0.051200
     47 HO24        7.0490    3.0090   -2.3530 ho        1 NS9      0.408000
     48 HO25        8.4230   -1.1850   -3.9940 ho        1 NS9      0.426000
     49 H26         1.5190   -0.1230   -4.0370 hc        1 NS9      0.066700
     50 H27        -0.3700   -1.3830   -5.0690 hc        1 NS9      0.032533
     51 H27A        0.2370   -2.2050   -3.5710 hc        1 NS9      0.032533
     52 H27B       -1.3140   -1.2700   -3.5250 hc        1 NS9      0.032533
     53 H28        -1.2170    1.3040   -3.7560 hc        1 NS9      0.032533
     54 H28A        0.3990    2.0990   -3.9560 hc        1 NS9      0.032533
     55 H28B       -0.2780    1.0710   -5.2890 hc        1 NS9      0.032533
@<TRIPOS>BOND
     1    1    2 1   
     2    1    9 2   
     3    2    3 1   
     4    2    7 1   
     5    3    4 2   
     6    3   10 1   
     7    4    5 1   
     8    4   29 1   
     9    5    6 2   
    10    5   18 1   
    11    6    7 1   
    12    7    8 2   
    13    8    9 1   
    14    8   26 1   
    15    9   30 1   
    16   10   11 1   
    17   10   31 1   
    18   11   12 1   
    19   11   32 1   
    20   11   33 1   
    21   12   13 ar  
    22   12   17 ar  
    23   13   14 ar  
    24   13   34 1   
    25   14   15 ar  
    26   14   35 1   
    27   15   16 ar  
    28   15   36 1   
    29   16   17 ar  
    30   16   37 1   
    31   17   38 1   
    32   18   19 1   
    33   18   39 1   
    34   19   20 1   
    35   19   23 1   
    36   19   40 1   
    37   20   21 1   
    38   20   25 1   
    39   20   41 1   
    40   21   22 1   
    41   21   42 1   
    42   21   43 1   
    43   22   44 1   
    44   23   24 1   
    45   23   45 1   
    46   23   46 1   
    47   24   47 1   
    48   25   48 1   
    49   26   27 1   
    50   26   28 1   
    51   26   49 1   
    52   27   50 1   
    53   27   51 1   
    54   27   52 1   
    55   28   53 1   
    56   28   54 1   
    57   28   55 1   
@<TRIPOS>SUBSTRUCTURE
     1 NS9         1 TEMP              0 ****  ****    0 ROOT
