@<TRIPOS>MOLECULE
NS9
   55    57     1     0     0
SMALL
bcc


@<TRIPOS>ATOM
      1 N1          1.4910   -2.8090    0.0480 nc        1 NS9     -0.590100
      2 N2          0.7910   -1.6590    0.1200 na        1 NS9     -0.014800
      3 C3          1.2640   -0.3510    0.3350 cc        1 NS9      0.307300
      4 C4          0.3090    0.6710    0.3790 cd        1 NS9     -0.421300
      5 C5         -1.1040    0.3750    0.2250 cd        1 NS9      0.695200
      6 N6         -1.5700   -0.8810    0.0680 nc        1 NS9     -0.743000
      7 C7         -0.6400   -1.8830    0.0150 cc        1 NS9      0.432500
      8 C8         -0.7740   -3.2880   -0.1440 cd        1 NS9     -0.289800
      9 C9          0.5750   -3.7960   -0.1150 cd        1 NS9      0.397500
     10 N10         2.6200   -0.1230    0.5580 nh        1 NS9     -0.744600
     11 C11         3.1520    1.1970    0.2930 c3        1 NS9      0.248100
     12 C12         4.6360    1.1960    0.0740 ca        1 NS9     -0.118300
     13 C13         5.4930    0.7020    1.0640 ca        1 NS9     -0.113000
     14 C14         6.8730    0.7310    0.8690 ca        1 NS9     -0.129500
     15 C15         7.4020    1.2550   -0.3110 ca        1 NS9     -0.118000
     16 C16         6.5490    1.7480   -1.2980 ca        1 NS9     -0.129500
     17 C17         5.1680    1.7160   -1.1090 ca        1 NS9     -0.113000
     18 N18        -1.9710    1.4840    0.1620 nh        1 NS9     -0.813900
     19 C19        -3.4010    1.3020    0.3290 c3        1 NS9      0.168500
     20 C20        -4.1830    2.5280   -0.2280 c3        1 NS9      0.144100
     21 C21        -3.7370    2.8550   -1.6550 c3        1 NS9      0.099400
     22 O22        -4.8110    3.5510   -2.2690 oh        1 NS9     -0.606800
     23 C23        -3.8450    1.0790    1.7910 c3        1 NS9      0.098400
     24 O24        -3.3410    2.1540    2.5710 oh        1 NS9     -0.619800
     25 O25        -5.5660    2.2330   -0.1430 oh        1 NS9     -0.593800
     26 C26        -2.0190   -4.0580   -0.3030 c3        1 NS9      0.017500
     27 C27        -2.0410   -4.7860   -1.6370 c3        1 NS9     -0.086100
     28 C28        -2.1960   -5.0480    0.8350 c3        1 NS9     -0.086100
     29 H4          0.6280    1.7080    0.5470 ha        1 NS9      0.157000
     30 H9          0.8770   -4.8410   -0.2110 h4        1 NS9      0.050800
     31 HN10        3.2510   -0.8810    0.3950 hn        1 NS9      0.447800
     32 H11         2.6380    1.6610   -0.6000 h1        1 NS9      0.055700
     33 H11A        2.9190    1.8440    1.1920 h1        1 NS9      0.055700
     34 H13         5.0770    0.2940    1.9980 ha        1 NS9      0.139000
     35 H14         7.5450    0.3410    1.6480 ha        1 NS9      0.136500
     36 H15         8.4910    1.2780   -0.4640 ha        1 NS9      0.135000
     37 H16         6.9640    2.1600   -2.2300 ha        1 NS9      0.136500
     38 H17         4.4980    2.1020   -1.8930 ha        1 NS9      0.139000
     39 HN18       -1.6300    2.2590    0.7000 hn        1 NS9      0.414800
     40 H19        -3.7350    0.3950   -0.2580 h1        1 NS9      0.094700
     41 H20        -4.0310    3.4140    0.4510 h1        1 NS9      0.085700
     42 H21        -2.8160    3.4930   -1.6350 h1        1 NS9      0.040200
     43 H21A       -3.5240    1.9130   -2.2290 h1        1 NS9      0.040200
     44 HO22       -4.5120    3.7920   -3.1540 ho        1 NS9      0.407000
     45 H23        -4.9660    1.0530    1.8240 h1        1 NS9      0.050700
     46 H23A       -3.4290    0.1130    2.1810 h1        1 NS9      0.050700
     47 HO24       -3.8380    2.1520    3.3970 ho        1 NS9      0.409000
     48 HO25       -5.8740    1.9720   -1.0200 ho        1 NS9      0.417000
     49 H26        -2.8900   -3.3400   -0.2820 hc        1 NS9      0.065700
     50 H27        -1.1860   -5.5000   -1.7060 hc        1 NS9      0.032867
     51 H27A       -2.9940   -5.3580   -1.7440 hc        1 NS9      0.032867
     52 H27B       -1.9640   -4.0570   -2.4780 hc        1 NS9      0.032867
     53 H28        -3.1470   -5.6170    0.7030 hc        1 NS9      0.032867
     54 H28A       -1.3470   -5.7720    0.8600 hc        1 NS9      0.032867
     55 H28B       -2.2320   -4.5120    1.8130 hc        1 NS9      0.032867
@<TRIPOS>BOND
     1    1    2 1   
     2    1    9 2   
     3    2    3 1   
     4    2    7 1   
     5    3    4 2   
     6    3   10 1   
     7    4    5 1   
     8    4   29 1   
     9    5    6 2   
    10    5   18 1   
    11    6    7 1   
    12    7    8 2   
    13    8    9 1   
    14    8   26 1   
    15    9   30 1   
    16   10   11 1   
    17   10   31 1   
    18   11   12 1   
    19   11   32 1   
    20   11   33 1   
    21   12   13 ar  
    22   12   17 ar  
    23   13   14 ar  
    24   13   34 1   
    25   14   15 ar  
    26   14   35 1   
    27   15   16 ar  
    28   15   36 1   
    29   16   17 ar  
    30   16   37 1   
    31   17   38 1   
    32   18   19 1   
    33   18   39 1   
    34   19   20 1   
    35   19   23 1   
    36   19   40 1   
    37   20   21 1   
    38   20   25 1   
    39   20   41 1   
    40   21   22 1   
    41   21   42 1   
    42   21   43 1   
    43   22   44 1   
    44   23   24 1   
    45   23   45 1   
    46   23   46 1   
    47   24   47 1   
    48   25   48 1   
    49   26   27 1   
    50   26   28 1   
    51   26   49 1   
    52   27   50 1   
    53   27   51 1   
    54   27   52 1   
    55   28   53 1   
    56   28   54 1   
    57   28   55 1   
@<TRIPOS>SUBSTRUCTURE
     1 NS9         1 TEMP              0 ****  ****    0 ROOT
