@<TRIPOS>MOLECULE
NS9
   57    59     1     0     0
SMALL
bcc


@<TRIPOS>ATOM
      1 N1         -0.1690    0.0920   -0.0640 nc        1 NS9     -0.518100
      2 N2          1.1250   -0.2000   -0.2010 na        1 NS9     -0.001800
      3 C3          2.1500   -0.1750    0.7520 cc        1 NS9      0.119300
      4 C4          3.4320   -0.5300    0.3690 cd        1 NS9     -0.224300
      5 C5          3.6550   -0.9340   -1.0100 cd        1 NS9      0.465200
      6 N6          2.7120   -0.9620   -1.9540 nc        1 NS9     -0.526000
      7 C7          1.4510   -0.6060   -1.5820 cc        1 NS9      0.321500
      8 C8          0.2160   -0.5280   -2.2800 cd        1 NS9     -0.085800
      9 C9         -0.7410   -0.0920   -1.2850 cd        1 NS9      0.417500
     10 N10         1.7970    0.2360    2.1220 n4        1 NS9     -0.657400
     11 C11         2.9440    0.2030    3.1150 c3        1 NS9      0.194100
     12 C12         2.4410    0.6090    4.4500 ca        1 NS9     -0.220300
     13 C13         2.4950    1.9560    4.8390 ca        1 NS9     -0.091500
     14 C14         2.0710    2.3260    6.1130 ca        1 NS9     -0.114500
     15 C15         1.5910    1.3590    7.0000 ca        1 NS9     -0.054000
     16 C16         1.5360    0.0180    6.6140 ca        1 NS9     -0.114500
     17 C17         1.9590   -0.3600    5.3420 ca        1 NS9     -0.091500
     18 N18         5.0200   -1.3560   -1.3830 n4        1 NS9     -0.738700
     19 C19         5.8670   -0.2280   -1.9350 c3        1 NS9      0.087500
     20 C20         7.2050   -0.8280   -2.4300 c3        1 NS9      0.119100
     21 C21         8.0160    0.1880   -3.2480 c3        1 NS9      0.107400
     22 O22         9.2290   -0.4870   -3.5210 oh        1 NS9     -0.604800
     23 C23         6.0930    0.8490   -0.8480 c3        1 NS9      0.126400
     24 O24         6.3800    0.2580    0.3980 oh        1 NS9     -0.629800
     25 O25         7.8920   -1.2440   -1.2630 oh        1 NS9     -0.644800
     26 C26        -0.0460   -0.8270   -3.7020 c3        1 NS9     -0.022500
     27 C27        -1.0320   -1.9780   -3.8290 c3        1 NS9     -0.097100
     28 C28        -0.5770    0.4060   -4.4160 c3        1 NS9     -0.097100
     29 H4          4.2890   -0.4940    1.0670 ha        1 NS9      0.213000
     30 H9         -1.8150    0.0850   -1.4430 h4        1 NS9      0.108800
     31 HN10        1.0460   -0.3830    2.4760 hn        1 NS9      0.481800
     32 H11         3.3460   -0.8500    3.1330 hx        1 NS9      0.108200
     33 H11A        3.7380    0.9110    2.7420 hx        1 NS9      0.108200
     34 H13         2.8890    2.7200    4.1510 ha        1 NS9      0.139000
     35 H14         2.1200    3.3830    6.4230 ha        1 NS9      0.171000
     36 H15         1.2600    1.6550    8.0110 ha        1 NS9      0.174000
     37 H16         1.1640   -0.7450    7.3190 ha        1 NS9      0.171000
     38 H17         1.9310   -1.4210    5.0500 ha        1 NS9      0.139000
     39 HN18        4.9810   -2.1160   -2.0790 hn        1 NS9      0.484800
     40 H19         5.3190    0.2270   -2.8110 hx        1 NS9      0.129700
     41 H20         7.0220   -1.7290   -3.0890 h1        1 NS9      0.078700
     42 H21         7.4730    0.4470   -4.1940 h1        1 NS9      0.054200
     43 H21A        8.2250    1.1190   -2.6580 h1        1 NS9      0.054200
     44 HO22        9.7490    0.0710   -4.1150 ho        1 NS9      0.451000
     45 H23         6.9120    1.5360   -1.1870 h1        1 NS9      0.088200
     46 H23A        5.1490    1.4380   -0.6890 h1        1 NS9      0.088200
     47 HO24        7.3260    0.0390    0.4250 ho        1 NS9      0.461000
     48 HO25        8.8130   -1.4350   -1.5120 ho        1 NS9      0.480000
     49 H26         0.9230   -1.1330   -4.1940 hc        1 NS9      0.077700
     50 H27        -0.6310   -2.8990   -3.3450 hc        1 NS9      0.057367
     51 H27A       -2.0090   -1.7160   -3.3560 hc        1 NS9      0.057367
     52 H27B       -1.2100   -2.1930   -4.9120 hc        1 NS9      0.057367
     53 H28        -1.5400    0.7430   -3.9620 hc        1 NS9      0.057367
     54 H28A        0.1590    1.2430   -4.3630 hc        1 NS9      0.057367
     55 H28B       -0.7600    0.1600   -5.4910 hc        1 NS9      0.057367
     56 H102        1.4140    1.1960    2.0970 hn        1 NS9      0.481800
     57 H182        5.5010   -1.7010   -0.5340 hn        1 NS9      0.484800
@<TRIPOS>BOND
     1    1    2 1   
     2    1    9 2   
     3    2    3 1   
     4    2    7 1   
     5    3    4 2   
     6    3   10 1   
     7    4    5 1   
     8    4   29 1   
     9    5    6 2   
    10    5   18 1   
    11    6    7 1   
    12    7    8 2   
    13    8    9 1   
    14    8   26 1   
    15    9   30 1   
    16   10   11 1   
    17   10   31 1   
    18   10   56 1   
    19   11   12 1   
    20   11   32 1   
    21   11   33 1   
    22   12   13 ar  
    23   12   17 ar  
    24   13   14 ar  
    25   13   34 1   
    26   14   15 ar  
    27   14   35 1   
    28   15   16 ar  
    29   15   36 1   
    30   16   17 ar  
    31   16   37 1   
    32   17   38 1   
    33   18   19 1   
    34   18   39 1   
    35   18   57 1   
    36   19   20 1   
    37   19   23 1   
    38   19   40 1   
    39   20   21 1   
    40   20   25 1   
    41   20   41 1   
    42   21   22 1   
    43   21   42 1   
    44   21   43 1   
    45   22   44 1   
    46   23   24 1   
    47   23   45 1   
    48   23   46 1   
    49   24   47 1   
    50   25   48 1   
    51   26   27 1   
    52   26   28 1   
    53   26   49 1   
    54   27   50 1   
    55   27   51 1   
    56   27   52 1   
    57   28   53 1   
    58   28   54 1   
    59   28   55 1   
@<TRIPOS>SUBSTRUCTURE
     1 NS9         1 TEMP              0 ****  ****    0 ROOT
