@<TRIPOS>MOLECULE
NS9
   55    49     1     0     0
SMALL
bcc


@<TRIPOS>ATOM
      1 N1         -3.0150   -0.1510    0.1600 n2        1 NS9     -0.124000
      2 N2         -1.6220   -0.1400    0.2020 n2        1 NS9     -0.132000
      3 C3         -0.7390   -0.1600    1.2570 c1        1 NS9      0.252000
      4 C4          0.6120   -0.0550    1.0220 c1        1 NS9     -0.360000
      5 C5          1.0820    0.0710   -0.2800 c1        1 NS9      0.178000
      6 N6          0.2080    0.0900   -1.3150 n1        1 NS9     -0.217000
      7 C7         -1.1630   -0.0160   -1.0730 c1        1 NS9      0.082000
      8 C8         -2.2860    0.0520   -1.9370 c1        1 NS9     -0.198000
      9 C9         -3.4100   -0.0310   -1.1700 c1        1 NS9     -0.105000
     10 N10        -1.2430   -0.0850    2.6060 n3        1 NS9     -0.300000
     11 C11        -1.0840   -1.1920    3.4930 c3        1 NS9      0.005000
     12 C12        -1.5760   -0.7920    4.8890 c2        1 NS9     -0.107000
     13 C13        -2.9350   -0.6810    5.1410 c2        1 NS9     -0.121000
     14 C14        -3.3880   -0.4350    6.4380 c1        1 NS9     -0.127000
     15 C15        -2.4810   -0.3020    7.4760 c1        1 NS9     -0.124000
     16 C16        -1.1200   -0.4120    7.2260 c1        1 NS9     -0.124000
     17 C17        -0.6670   -0.6580    5.9260 c1        1 NS9     -0.109000
     18 N18         2.4780    0.0840   -0.5260 n3        1 NS9     -0.275000
     19 C19         2.9660    0.3880   -1.8220 c3        1 NS9     -0.025000
     20 C20         4.1260   -0.5060   -2.1550 c3        1 NS9      0.024000
     21 C21         4.0460   -0.9120   -3.6870 c3        1 NS9     -0.065000
     22 O22         5.3320   -1.2820   -4.1510 oh        1 NS9     -0.347000
     23 C23         3.4300    1.8720   -1.8700 c3        1 NS9     -0.032000
     24 O24         3.7660    2.1930   -3.1150 oh        1 NS9     -0.329000
     25 O25         5.3000    0.1600   -1.9130 oh        1 NS9     -0.349000
     26 C26        -2.2350    0.4590   -3.4080 c2        1 NS9     -0.026000
     27 C27        -2.8390   -0.6620   -4.2760 c3        1 NS9     -0.204000
     28 C28        -3.0330    1.7500   -3.6080 c3        1 NS9     -0.204000
     29 H4          1.2670   -0.0720    1.8010 ha        1 NS9      0.155000
     30 H9         -4.3240    0.0600   -1.4860 DU        1 NS9      0.180000
     31 HN10       -1.7570    0.6370    2.8640 hn        1 NS9      0.244000
     32 H11        -1.6080   -1.9530    3.1670 h1        1 NS9      0.095500
     33 H11A       -0.0850   -1.4580    3.5430 h1        1 NS9      0.095500
     34 H13        -3.5870   -0.7730    4.4000 ha        1 NS9      0.137000
     35 H14        -4.3680   -0.3550    6.6170 ha        1 NS9      0.137000
     36 H15        -2.8120   -0.1240    8.4150 ha        1 NS9      0.136000
     37 H16        -0.4970   -0.3200    7.9380 ha        1 NS9      0.136000
     38 H17         0.2510   -0.7310    5.7550 ha        1 NS9      0.136000
     39 HN18        3.0930   -0.1080    0.1890 hn        1 NS9      0.209000
     40 H19         2.2450    0.2470   -2.4850 h1        1 NS9      0.137000
     41 H20         4.0900   -1.3520   -1.5740 h1        1 NS9      0.101000
     42 H21         3.7040   -0.1230   -4.2310 h1        1 NS9      0.089500
     43 H21A        3.4270   -1.6760   -3.7940 h1        1 NS9      0.089500
     44 HO22        5.2660   -1.5980   -4.9770 ho        1 NS9      0.212000
     45 H23         2.6760    2.4700   -1.5600 h1        1 NS9      0.097000
     46 H23A        4.2130    1.9930   -1.2780 h1        1 NS9      0.097000
     47 HO24        4.2440    2.9630   -3.1100 ho        1 NS9      0.212000
     48 HO25        5.9390   -0.4220   -1.7410 ho        1 NS9      0.227000
     49 H26        -1.3400    0.6020   -3.6610 ha        1 NS9      0.107000
     50 H27        -2.3780   -1.4430   -4.1290 hc        1 NS9      0.072000
     51 H27A       -2.7680   -0.4020   -5.2700 hc        1 NS9      0.072000
     52 H27B       -3.7840   -0.7900   -4.0380 hc        1 NS9      0.072000
     53 H28        -2.8690    2.3730   -2.8250 hc        1 NS9      0.072000
     54 H28A       -3.9870    1.5410   -3.6620 hc        1 NS9      0.072000
     55 H28B       -2.7600    2.1660   -4.4010 hc        1 NS9      0.072000
@<TRIPOS>BOND
     1    1    2 1   
     2    1    9 1   
     3    2    7 1   
     4    3    4 1   
     5    3   10 1   
     6    4   29 1   
     7    5    6 1   
     8    5   18 1   
     9    8    9 1   
    10   10   11 1   
    11   10   31 1   
    12   11   12 1   
    13   11   32 1   
    14   11   33 1   
    15   12   13 1   
    16   12   17 1   
    17   13   14 1   
    18   13   34 1   
    19   14   35 1   
    20   15   16 1   
    21   15   36 1   
    22   16   37 1   
    23   17   38 1   
    24   18   19 1   
    25   18   39 1   
    26   19   20 1   
    27   19   23 1   
    28   19   40 1   
    29   20   21 1   
    30   20   25 1   
    31   20   41 1   
    32   21   22 1   
    33   21   42 1   
    34   21   43 1   
    35   22   44 1   
    36   23   24 1   
    37   23   45 1   
    38   23   46 1   
    39   24   47 1   
    40   25   48 1   
    41   26   27 1   
    42   26   28 1   
    43   26   49 1   
    44   27   50 1   
    45   27   51 1   
    46   27   52 1   
    47   28   53 1   
    48   28   54 1   
    49   28   55 1   
@<TRIPOS>SUBSTRUCTURE
     1 NS9         1 TEMP              0 ****  ****    0 ROOT
