@<TRIPOS>MOLECULE
NSA
   19    16     1     0     0
SMALL
bcc


@<TRIPOS>ATOM
      1 CL1        -3.7230   -0.1410   -2.7830 cl        1 NSA     -0.111900
      2 CL2        -1.2860   -0.3130   -4.2480 cl        1 NSA     -0.111900
      3 C1         -2.0650   -0.6790   -2.7310 c3        1 NSA      0.052100
      4 C2         -1.3380    0.0320   -1.6050 c         1 NSA      0.659100
      5 O1         -1.4460    1.2350   -1.4770 o         1 NSA     -0.542100
      6 C5          1.6990   -0.7020    2.0770 c1        1 NSA     -0.076750
      7 C6          1.8780    0.6270    2.4300 c1        1 NSA     -0.076750
      8 C7          1.2140    1.6260    1.7320 c1        1 NSA     -0.076750
      9 C8          0.3710    1.2940    0.6810 c1        1 NSA     -0.088500
     10 N1         -0.5100   -0.7060   -0.7140 n         1 NSA     -0.475700
     11 C4          0.8550   -1.0330    1.0260 c1        1 NSA     -0.076750
     12 C3          0.1910   -0.0350    0.3280 c1        1 NSA      0.073200
     13 H1         -2.0400   -1.6430   -2.5770 h2        1 NSA      0.110700
     14 H5          2.1660   -1.4040    2.5690 ha        1 NSA      0.076500
     15 H6          2.4720    0.8610    3.1690 ha        1 NSA      0.076500
     16 H7          1.3410    2.5610    1.9800 ha        1 NSA      0.076500
     17 H8         -0.0960    1.9970    0.1900 ha        1 NSA      0.112500
     18 HN1        -0.4110   -1.6070   -0.8250 hn        1 NSA      0.323500
     19 H4          0.7290   -1.9680    0.7790 ha        1 NSA      0.076500
@<TRIPOS>BOND
     1    1    3 1   
     2    2    3 1   
     3    3    4 1   
     4    3   13 1   
     5    4    5 2   
     6    4   10 1   
     7    6   11 3   
     8    6   14 1   
     9    7    8 3   
    10    7   15 1   
    11    8   16 1   
    12    9   12 3   
    13    9   17 1   
    14   10   12 1   
    15   10   18 1   
    16   11   19 1   
@<TRIPOS>SUBSTRUCTURE
     1 NSA         1 TEMP              0 ****  ****    0 ROOT
