@<TRIPOS>MOLECULE
NSA
   19    19     1     0     0
SMALL
bcc


@<TRIPOS>ATOM
      1 Cl1         0.2600    0.6200   -0.5860 cl        1 NSA     -0.111900
      2 Cl2         3.0850    0.6200   -1.1480 cl        1 NSA     -0.111900
      3 C1          1.8170    0.0150   -0.0920 c3        1 NSA      0.052100
      4 C2          2.1470    0.3430    1.3750 c         1 NSA      0.659100
      5 O1          1.3420    0.9360    2.1070 o         1 NSA     -0.542100
      6 C5          5.9310   -0.0340    4.4790 ca        1 NSA     -0.105500
      7 C6          5.1780    0.3420    5.5910 ca        1 NSA     -0.150000
      8 C7          3.8120    0.5740    5.4470 ca        1 NSA     -0.105500
      9 C8          3.1880    0.4340    4.2090 ca        1 NSA     -0.161000
     10 N1          3.3730   -0.1360    1.8050 ns        1 NSA     -0.462100
     11 C4          5.3320   -0.1760    3.2330 ca        1 NSA     -0.161000
     12 C3          3.9430    0.0560    3.0790 ca        1 NSA      0.059600
     13 H1          1.7830   -1.0960   -0.2320 h2        1 NSA      0.110700
     14 H5          7.0110   -0.2180    4.5840 ha        1 NSA      0.135500
     15 H6          5.6590    0.4550    6.5730 ha        1 NSA      0.135000
     16 H7          3.2100    0.8730    6.3180 ha        1 NSA      0.135500
     17 H8          2.1070    0.6280    4.1260 ha        1 NSA      0.150000
     18 HN1         3.9940   -0.4980    1.1140 hn        1 NSA      0.323500
     19 H4          5.9490   -0.4700    2.3720 ha        1 NSA      0.150000
@<TRIPOS>BOND
     1    1    3 1   
     2    2    3 1   
     3    3    4 1   
     4    3   13 1   
     5    4    5 2   
     6    4   10 1   
     7    6    7 ar  
     8    6   11 ar  
     9    6   14 1   
    10    7    8 ar  
    11    7   15 1   
    12    8    9 ar  
    13    8   16 1   
    14    9   12 ar  
    15    9   17 1   
    16   10   12 1   
    17   10   18 1   
    18   11   12 ar  
    19   11   19 1   
@<TRIPOS>SUBSTRUCTURE
     1 NSA         1 TEMP              0 ****  ****    0 ROOT
