@<TRIPOS>MOLECULE
NSA
   19    19     1     0     0
SMALL
bcc


@<TRIPOS>ATOM
      1 CL1         0.4590    0.2240    3.4910 cl        1 NSA     -0.111900
      2 CL2        -2.0250   -0.5030    2.2280 cl        1 NSA     -0.111900
      3 C1         -0.2710   -0.5630    2.1200 c3        1 NSA      0.052100
      4 C2          0.1990    0.0220    0.7770 c         1 NSA      0.659100
      5 O1          1.0460    0.9240    0.7190 o         1 NSA     -0.542100
      6 C5         -0.8490   -0.4040   -4.0010 ca        1 NSA     -0.105500
      7 C6          0.2390    0.3690   -4.4040 ca        1 NSA     -0.150000
      8 C7          1.1360    0.8410   -3.4490 ca        1 NSA     -0.105500
      9 C8          0.9630    0.5500   -2.0980 ca        1 NSA     -0.161000
     10 N1         -0.3540   -0.5900   -0.3370 n         1 NSA     -0.462100
     11 C4         -1.0450   -0.7040   -2.6580 ca        1 NSA     -0.161000
     12 C3         -0.1350   -0.2300   -1.6810 ca        1 NSA      0.059600
     13 H1          0.0200   -1.6430    2.1850 h2        1 NSA      0.110700
     14 H5         -1.5630   -0.7800   -4.7480 ha        1 NSA      0.135500
     15 H6          0.3860    0.6050   -5.4680 ha        1 NSA      0.135000
     16 H7          1.9980    1.4540   -3.7580 ha        1 NSA      0.135500
     17 H8          1.6880    0.9410   -1.3650 ha        1 NSA      0.150000
     18 HN1        -1.1080   -1.2260   -0.1870 hn        1 NSA      0.323500
     19 H4         -1.9130   -1.3130   -2.3660 ha        1 NSA      0.150000
@<TRIPOS>BOND
     1    1    3 1   
     2    2    3 1   
     3    3    4 1   
     4    3   13 1   
     5    4    5 2   
     6    4   10 1   
     7    6    7 ar  
     8    6   11 ar  
     9    6   14 1   
    10    7    8 ar  
    11    7   15 1   
    12    8    9 ar  
    13    8   16 1   
    14    9   12 ar  
    15    9   17 1   
    16   10   12 1   
    17   10   18 1   
    18   11   12 ar  
    19   11   19 1   
@<TRIPOS>SUBSTRUCTURE
     1 NSA         1 TEMP              0 ****  ****    0 ROOT
