@<TRIPOS>MOLECULE
NSA
   20    20     1     0     0
SMALL
bcc


@<TRIPOS>ATOM
      1 CL1         0.8050    0.1820    2.0130 cl        1 NSA     -0.049400
      2 CL2         1.6430    0.9230   -0.6620 cl        1 NSA     -0.049400
      3 C1          1.6410   -0.3090    0.5730 c3        1 NSA      0.026100
      4 C2          3.0690   -0.6980    0.9000 c         1 NSA      0.532100
      5 O1          3.5500   -1.8130    0.7960 o         1 NSA     -0.368100
      6 C5          5.0300   -0.6990    4.8020 ca        1 NSA     -0.101500
      7 C6          4.5950    0.3780    5.5770 ca        1 NSA     -0.063000
      8 C7          3.9480    1.4590    4.9760 ca        1 NSA     -0.101500
      9 C8          3.7310    1.4770    3.6000 ca        1 NSA     -0.096500
     10 N1          3.9820    0.4100    1.3710 n4        1 NSA     -0.534200
     11 C4          4.8250   -0.7060    3.4240 ca        1 NSA     -0.096500
     12 C3          4.1740    0.3890    2.8270 ca        1 NSA     -0.070400
     13 H1          1.1110   -1.2130    0.1560 h2        1 NSA      0.177700
     14 H5          5.5400   -1.5540    5.2770 ha        1 NSA      0.175500
     15 H6          4.7620    0.3740    6.6680 ha        1 NSA      0.175000
     16 H7          3.6060    2.3100    5.5890 ha        1 NSA      0.175500
     17 H8          3.2190    2.3410    3.1440 ha        1 NSA      0.162500
     18 HN1         4.9060    0.2870    0.9280 hn        1 NSA      0.472300
     19 H4          5.1680   -1.5650    2.8230 ha        1 NSA      0.162500
     20 H12         3.5960    1.3220    1.0910 hn        1 NSA      0.472300
@<TRIPOS>BOND
     1    1    3 1   
     2    2    3 1   
     3    3    4 1   
     4    3   13 1   
     5    4    5 2   
     6    4   10 1   
     7    6    7 ar  
     8    6   11 ar  
     9    6   14 1   
    10    7    8 ar  
    11    7   15 1   
    12    8    9 ar  
    13    8   16 1   
    14    9   12 ar  
    15    9   17 1   
    16   10   12 1   
    17   10   18 1   
    18   10   20 1   
    19   11   12 ar  
    20   11   19 1   
@<TRIPOS>SUBSTRUCTURE
     1 NSA         1 TEMP              0 ****  ****    0 ROOT
