@<TRIPOS>MOLECULE
NSB
   26    25     1     0     0
SMALL
bcc


@<TRIPOS>ATOM
      1 O50         2.8200   -0.4400   -1.8200 o         1 NSB     -0.741200
      2 S8          2.7150   -0.0230   -0.4730 s6        1 NSB      1.435800
      3 O46         1.8110   -0.6990    0.3460 o         1 NSB     -0.741200
      4 O48         4.0120    0.2030    0.0760 o         1 NSB     -0.741200
      5 C6          2.0540    1.6480   -0.6450 c3        1 NSB     -0.320600
      6 C4          2.9020    2.7450   -0.0750 c3        1 NSB     -0.038400
      7 C2          3.6820    3.5500   -1.1080 c3        1 NSB      0.133800
      8 N1          5.0090    3.0070   -1.5850 n4        1 NSB     -0.587800
      9 C20         4.8280    1.8770   -2.5440 c3        1 NSB      0.076433
     10 C18         5.8590    2.5650   -0.4420 c3        1 NSB      0.076433
     11 C16         5.7120    4.1160   -2.3020 c3        1 NSB      0.076433
     12 H61         1.0620    1.6540   -0.1270 h1        1 NSB      0.086200
     13 H62         1.8430    1.8240   -1.7270 h1        1 NSB      0.086200
     14 H41         2.2400    3.5030    0.4340 hc        1 NSB      0.069200
     15 H42         3.5860    2.3320    0.7160 hc        1 NSB      0.069200
     16 H21         3.0450    3.6970   -2.0270 hx        1 NSB      0.072700
     17 H22         3.9090    4.5600   -0.6570 hx        1 NSB      0.072700
     18 H201        4.0920    2.1720   -3.3350 hx        1 NSB      0.102033
     19 H202        5.8170    1.6290   -3.0080 hx        1 NSB      0.102033
     20 H203        4.4410    0.9630   -2.0000 hx        1 NSB      0.102033
     21 H181        6.8950    2.3620   -0.8170 hx        1 NSB      0.102033
     22 H182        5.8800    3.3730    0.3320 hx        1 NSB      0.102033
     23 H183        5.4360    1.6100    0.0050 hx        1 NSB      0.102033
     24 H161        6.6810    3.7360   -2.7180 hx        1 NSB      0.102033
     25 H162        5.0650    4.4850   -3.1400 hx        1 NSB      0.102033
     26 H163        5.9200    4.9550   -1.5870 hx        1 NSB      0.102033
@<TRIPOS>BOND
     1    1    2 1   
     2    2    3 1   
     3    2    4 1   
     4    2    5 1   
     5    5    6 1   
     6    5   12 1   
     7    5   13 1   
     8    6    7 1   
     9    6   14 1   
    10    6   15 1   
    11    7    8 1   
    12    7   16 1   
    13    7   17 1   
    14    8    9 1   
    15    8   10 1   
    16    8   11 1   
    17    9   18 1   
    18    9   19 1   
    19    9   20 1   
    20   10   21 1   
    21   10   22 1   
    22   10   23 1   
    23   11   24 1   
    24   11   25 1   
    25   11   26 1   
@<TRIPOS>SUBSTRUCTURE
     1 NSB         1 TEMP              0 ****  ****    0 ROOT
