@<TRIPOS>MOLECULE
NSB
   26    25     1     0     0
SMALL
bcc


@<TRIPOS>ATOM
      1 O50         0.0570   -0.0260    0.0160 o         1 NSB     -0.744867
      2 S8          1.4550   -0.0130    0.0040 s6        1 NSB      1.435800
      3 O46         2.0900    0.1040    1.2570 o         1 NSB     -0.744867
      4 O48         2.0800   -0.9290   -0.8650 o         1 NSB     -0.744867
      5 C6          1.8680    1.5910   -0.7790 c3        1 NSB     -0.306600
      6 C4          3.3580    1.6850   -0.8300 c3        1 NSB     -0.040400
      7 C2          3.7740    2.9970   -1.4730 c3        1 NSB      0.099800
      8 N1          5.2740    3.1990   -1.5750 n4        1 NSB     -0.588800
      9 C20         5.8820    2.1160   -2.4000 c3        1 NSB      0.078433
     10 C18         5.8860    3.1900   -0.2150 c3        1 NSB      0.078433
     11 C16         5.5340    4.5160   -2.2230 c3        1 NSB      0.078433
     12 H61         1.4180    2.4060   -0.1710 h1        1 NSB      0.086700
     13 H62         1.4120    1.6150   -1.7920 h1        1 NSB      0.086700
     14 H41         3.7550    1.6090    0.2200 hc        1 NSB      0.053700
     15 H42         3.7500    0.8090   -1.4180 hc        1 NSB      0.053700
     16 H21         3.3640    3.0530   -2.5200 hx        1 NSB      0.108700
     17 H22         3.3670    3.8590   -0.8720 hx        1 NSB      0.108700
     18 H201        5.3650    2.0750   -3.3950 hx        1 NSB      0.100033
     19 H202        6.9740    2.3260   -2.5440 hx        1 NSB      0.100033
     20 H203        5.7530    1.1290   -1.8770 hx        1 NSB      0.100033
     21 H181        6.9790    3.4290   -0.2970 hx        1 NSB      0.100033
     22 H182        5.3740    3.9550    0.4260 hx        1 NSB      0.100033
     23 H183        5.7560    2.1740    0.2480 hx        1 NSB      0.100033
     24 H161        6.6400    4.6840   -2.3070 hx        1 NSB      0.100033
     25 H162        5.0750    4.5220   -3.2460 hx        1 NSB      0.100033
     26 H163        5.0770    5.3310   -1.6020 hx        1 NSB      0.100033
@<TRIPOS>BOND
     1    1    2 1   
     2    2    3 1   
     3    2    4 1   
     4    2    5 1   
     5    5    6 1   
     6    5   12 1   
     7    5   13 1   
     8    6    7 1   
     9    6   14 1   
    10    6   15 1   
    11    7    8 1   
    12    7   16 1   
    13    7   17 1   
    14    8    9 1   
    15    8   10 1   
    16    8   11 1   
    17    9   18 1   
    18    9   19 1   
    19    9   20 1   
    20   10   21 1   
    21   10   22 1   
    22   10   23 1   
    23   11   24 1   
    24   11   25 1   
    25   11   26 1   
@<TRIPOS>SUBSTRUCTURE
     1 NSB         1 TEMP              0 ****  ****    0 ROOT
