@<TRIPOS>MOLECULE
NSB
   26    25     1     0     0
SMALL
bcc


@<TRIPOS>ATOM
      1 O50         0.9890    1.0720    1.2760 o         1 NSB     -0.744867
      2 S8          2.1770    1.4510    0.6510 s6        1 NSB      1.435800
      3 O46         2.5670    2.8170    0.8000 o         1 NSB     -0.744867
      4 O48         3.3020    0.6060    0.8300 o         1 NSB     -0.744867
      5 C6          1.8510    1.3350   -1.1080 c3        1 NSB     -0.306600
      6 C4          3.0950    1.4260   -1.9480 c3        1 NSB     -0.040400
      7 C2          3.6900    2.8340   -1.8880 c3        1 NSB      0.099800
      8 N1          5.1460    2.9250   -1.4910 n4        1 NSB     -0.588800
      9 C20         5.9910    2.1910   -2.4700 c3        1 NSB      0.078433
     10 C18         5.3760    2.3780   -0.1190 c3        1 NSB      0.078433
     11 C16         5.5290    4.3680   -1.4930 c3        1 NSB      0.078433
     12 H61         1.1230    2.1290   -1.3970 h1        1 NSB      0.086700
     13 H62         1.3520    0.3550   -1.3080 h1        1 NSB      0.086700
     14 H41         3.8160    0.6410   -1.5880 hc        1 NSB      0.053700
     15 H42         2.8630    1.1930   -3.0210 hc        1 NSB      0.053700
     16 H21         3.6070    3.3200   -2.9000 hx        1 NSB      0.108700
     17 H22         3.1170    3.4550   -1.1280 hx        1 NSB      0.108700
     18 H201        5.8380    2.6200   -3.4940 hx        1 NSB      0.100033
     19 H202        7.0700    2.2850   -2.1770 hx        1 NSB      0.100033
     20 H203        5.7000    1.1070   -2.4700 hx        1 NSB      0.100033
     21 H181        6.4470    2.5430    0.1600 hx        1 NSB      0.100033
     22 H182        4.6820    2.8980    0.6090 hx        1 NSB      0.100033
     23 H183        5.1240    1.2790   -0.0850 hx        1 NSB      0.100033
     24 H161        6.6110    4.4660   -1.2190 hx        1 NSB      0.100033
     25 H162        5.3570    4.8030   -2.5120 hx        1 NSB      0.100033
     26 H163        4.8980    4.9110   -0.7380 hx        1 NSB      0.100033
@<TRIPOS>BOND
     1    1    2 1   
     2    2    3 1   
     3    2    4 1   
     4    2    5 1   
     5    5    6 1   
     6    5   12 1   
     7    5   13 1   
     8    6    7 1   
     9    6   14 1   
    10    6   15 1   
    11    7    8 1   
    12    7   16 1   
    13    7   17 1   
    14    8    9 1   
    15    8   10 1   
    16    8   11 1   
    17    9   18 1   
    18    9   19 1   
    19    9   20 1   
    20   10   21 1   
    21   10   22 1   
    22   10   23 1   
    23   11   24 1   
    24   11   25 1   
    25   11   26 1   
@<TRIPOS>SUBSTRUCTURE
     1 NSB         1 TEMP              0 ****  ****    0 ROOT
