@<TRIPOS>MOLECULE
NSB
   26    24     1     0     0
SMALL
bcc


@<TRIPOS>ATOM
      1 O50        -2.2550    3.3510    0.6270 o         1 NSB     -1.067667
      2 S8         -2.8890    2.0830    1.1570 s4        1 NSB      2.865000
      3 O46        -4.3990    2.1720    1.1310 o         1 NSB     -1.067667
      4 O48        -2.6300    1.9180    2.6390 o         1 NSB     -1.067667
      5 C6         -2.3060    0.6680    0.2350 c2        1 NSB     -0.846000
      6 C4         -0.7740    0.5890    0.3310 c3        1 NSB     -0.119000
      7 C2         -0.2730   -0.6410   -0.4510 c3        1 NSB     -0.137000
      8 N1          1.1800   -0.7050   -0.3770 n4        1 NSB      0.044000
      9 C20         1.5760   -1.1950    0.9270 c3        1 NSB     -0.197667
     10 C18         1.6770   -1.6030   -1.4000 c3        1 NSB     -0.197667
     11 C16         1.7340    0.6180   -0.5850 c3        1 NSB     -0.197667
     12 H61        -2.7000   -0.1510    0.6070 ha        1 NSB      0.126000
     13 H62        -2.5700    0.7600   -0.7070 ha        1 NSB      0.126000
     14 H41        -0.3800    1.4040   -0.0510 hc        1 NSB      0.093000
     15 H42        -0.5100    0.5080    1.2740 hc        1 NSB      0.093000
     16 H21        -0.5500   -0.5660   -1.3930 hx        1 NSB      0.148000
     17 H22        -0.6580   -1.4580   -0.0600 hx        1 NSB      0.148000
     18 H201        2.5030   -1.5240    0.8880 hx        1 NSB      0.139333
     19 H202        1.5150   -0.4650    1.5840 hx        1 NSB      0.139333
     20 H203        0.9790   -1.9290    1.1970 hx        1 NSB      0.139333
     21 H181        1.3620   -2.5170   -1.2150 hx        1 NSB      0.139333
     22 H182        2.6610   -1.5880   -1.3990 hx        1 NSB      0.139333
     23 H183        1.3450   -1.3130   -2.2790 hx        1 NSB      0.139333
     24 H161        2.5030    0.9310   -1.1190 hx        1 NSB      0.139333
     25 H162        1.3910    0.4400   -1.4880 hx        1 NSB      0.139333
     26 H163        2.4680    0.2110   -0.0730 hx        1 NSB      0.139333
@<TRIPOS>BOND
     1    1    2 1   
     2    2    3 1   
     3    2    4 1   
     4    5    6 1   
     5    5   12 1   
     6    5   13 1   
     7    6    7 1   
     8    6   14 1   
     9    6   15 1   
    10    7    8 1   
    11    7   16 1   
    12    7   17 1   
    13    8    9 1   
    14    8   10 1   
    15    8   11 1   
    16    9   18 1   
    17    9   19 1   
    18    9   20 1   
    19   10   21 1   
    20   10   22 1   
    21   10   23 1   
    22   11   24 1   
    23   11   25 1   
    24   11   26 1   
@<TRIPOS>SUBSTRUCTURE
     1 NSB         1 TEMP              0 ****  ****    0 ROOT
