@<TRIPOS>MOLECULE
NSB
   26    25     1     0     0
SMALL
bcc


@<TRIPOS>ATOM
      1 O50         3.3580    0.0010   -0.9490 o         1 NSB     -0.736200
      2 S8          2.3350    0.0000    0.0040 s6        1 NSB      1.437800
      3 O46         2.1850   -1.1810    0.7590 o         1 NSB     -0.736200
      4 O48         2.1850    1.1800    0.7610 o         1 NSB     -0.736200
      5 C6          0.8040    0.0010   -1.0010 c3        1 NSB     -0.282600
      6 C4         -0.3480    0.0000   -0.0500 c3        1 NSB     -0.066400
      7 C2         -1.6570    0.0010   -0.8200 c3        1 NSB      0.123800
      8 N1         -2.8990   -0.0000    0.0530 n4        1 NSB     -0.606800
      9 C20        -2.9210    1.2160    0.9140 c3        1 NSB      0.090100
     10 C18        -2.9210   -1.2180    0.9130 c3        1 NSB      0.090100
     11 C16        -4.1000    0.0000   -0.8290 c3        1 NSB      0.090100
     12 H61         0.8100   -0.9010   -1.6520 h1        1 NSB      0.071700
     13 H62         0.8100    0.9030   -1.6510 h1        1 NSB      0.071700
     14 H41        -0.2680    0.9110    0.6060 hc        1 NSB      0.077700
     15 H42        -0.2680   -0.9120    0.6050 hc        1 NSB      0.077700
     16 H21        -1.7140   -0.9170   -1.4710 hx        1 NSB      0.086700
     17 H22        -1.7140    0.9180   -1.4700 hx        1 NSB      0.086700
     18 H201       -2.0560    1.1830    1.6320 hx        1 NSB      0.095478
     19 H202       -2.8260    2.1290    0.2690 hx        1 NSB      0.095478
     20 H203       -3.8840    1.2500    1.4870 hx        1 NSB      0.095478
     21 H181       -3.8840   -1.2520    1.4850 hx        1 NSB      0.095478
     22 H182       -2.8260   -2.1290    0.2660 hx        1 NSB      0.095478
     23 H183       -2.0560   -1.1850    1.6310 hx        1 NSB      0.095478
     24 H161       -4.0850    0.9170   -1.4760 hx        1 NSB      0.095478
     25 H162       -4.0850   -0.9150   -1.4770 hx        1 NSB      0.095478
     26 H163       -5.0300   -0.0000   -0.2010 hx        1 NSB      0.095478
@<TRIPOS>BOND
     1    1    2 1   
     2    2    3 1   
     3    2    4 1   
     4    2    5 1   
     5    5    6 1   
     6    5   12 1   
     7    5   13 1   
     8    6    7 1   
     9    6   14 1   
    10    6   15 1   
    11    7    8 1   
    12    7   16 1   
    13    7   17 1   
    14    8    9 1   
    15    8   10 1   
    16    8   11 1   
    17    9   18 1   
    18    9   19 1   
    19    9   20 1   
    20   10   21 1   
    21   10   22 1   
    22   10   23 1   
    23   11   24 1   
    24   11   25 1   
    25   11   26 1   
@<TRIPOS>SUBSTRUCTURE
     1 NSB         1 TEMP              0 ****  ****    0 ROOT
