@<TRIPOS>MOLECULE
NSC
   52    55     1     0     0
SMALL
bcc


@<TRIPOS>ATOM
      1 C12         0.4150   -0.8110    0.6630 ca        1 NSC     -0.036000
      2 C3          1.5990   -0.1380    0.2890 ca        1 NSC     -0.165300
      3 C2          2.8680   -0.2250    0.9810 ca        1 NSC     -0.004400
      4 N1          3.0100   -1.0280    2.2000 n4        1 NSC     -0.718000
      5 C7          3.9670    0.4620    0.5110 ca        1 NSC     -0.148300
      6 C6          3.8460    1.2810   -0.6850 ca        1 NSC      0.552600
      7 C8          5.0690    1.9940   -1.1480 c3        1 NSC     -0.199400
      8 N5          2.6890    1.3950   -1.3290 nb        1 NSC     -0.613000
      9 C4          1.5860    0.7250   -0.8640 ca        1 NSC      0.487600
     10 C9          0.3490    0.9140   -1.5730 ca        1 NSC     -0.068300
     11 C10        -0.7960    0.2730   -1.1800 ca        1 NSC     -0.160000
     12 C11        -0.7610   -0.6050   -0.0580 ca        1 NSC     -0.096400
     13 N13        -2.0280   -1.2210    0.3710 n4        1 NSC     -0.492200
     14 C14        -2.3930   -2.4340   -0.4380 c         1 NSC      0.484100
     15 O28        -2.1560   -3.5510   -0.0130 o         1 NSC     -0.292100
     16 N15        -3.0510   -2.2540   -1.7760 n4        1 NSC     -0.492200
     17 C16        -4.5000   -2.0110   -1.6740 ca        1 NSC     -0.096400
     18 C17        -5.4180   -3.0300   -1.9290 ca        1 NSC     -0.036000
     19 C18        -6.8030   -2.7530   -1.9170 ca        1 NSC     -0.165300
     20 C24        -7.8510   -3.7070   -2.2130 ca        1 NSC     -0.004400
     21 N25        -7.5320   -5.0830   -2.6020 n4        1 NSC     -0.718000
     22 C23        -9.1750   -3.3280   -2.1480 ca        1 NSC     -0.148300
     23 C21        -9.5160   -1.9620   -1.7840 ca        1 NSC      0.552600
     24 C20       -10.9630   -1.6150   -1.7240 c3        1 NSC     -0.199400
     25 N22        -8.5740   -1.0600   -1.5260 nb        1 NSC     -0.613000
     26 C19        -7.2520   -1.4230   -1.5990 ca        1 NSC      0.487600
     27 C26        -6.2710   -0.4010   -1.3510 ca        1 NSC     -0.068300
     28 C27        -4.9320   -0.6820   -1.3930 ca        1 NSC     -0.160000
     29 H12         0.4230   -1.4900    1.5330 ha        1 NSC      0.147000
     30 HN11        2.3770   -0.6780    2.9310 hn        1 NSC      0.483133
     31 HN12        2.8050   -2.0160    2.0050 hn        1 NSC      0.483133
     32 H7          4.9620    0.4360    1.0000 ha        1 NSC      0.213000
     33 H81         5.9210    1.2700   -1.2340 hc        1 NSC      0.119033
     34 H82         4.9240    2.4940   -2.1420 hc        1 NSC      0.119033
     35 H83         5.3440    2.7830   -0.3970 hc        1 NSC      0.119033
     36 H9          0.3370    1.6080   -2.4420 ha        1 NSC      0.231000
     37 H10        -1.7380    0.4930   -1.7090 ha        1 NSC      0.152000
     38 H13        -1.9430   -1.5350    1.3600 hn        1 NSC      0.507800
     39 H15        -2.6150   -1.4680   -2.2930 hn        1 NSC      0.507800
     40 H17        -5.0650   -4.0530   -2.1510 ha        1 NSC      0.147000
     41 H251       -6.9720   -5.0880   -3.4640 hn        1 NSC      0.483133
     42 H252       -7.0180   -5.5590   -1.8500 hn        1 NSC      0.483133
     43 H23       -10.0210   -4.0120   -2.3670 ha        1 NSC      0.213000
     44 H201      -11.3970   -1.6550   -2.7600 hc        1 NSC      0.119033
     45 H202      -11.5060   -2.3550   -1.0810 hc        1 NSC      0.119033
     46 H203      -11.1420   -0.5860   -1.3130 hc        1 NSC      0.119033
     47 H26        -6.6250    0.6330   -1.1390 ha        1 NSC      0.231000
     48 H27        -4.2100    0.1410   -1.2600 ha        1 NSC      0.152000
     49 H131        3.9810   -0.9630    2.5550 hn        1 NSC      0.483133
     50 H132       -2.7810   -0.5090    0.3170 hn        1 NSC      0.507800
     51 H152       -2.8850   -3.1310   -2.3120 hn        1 NSC      0.507800
     52 H253       -8.4050   -5.6110   -2.7810 hn        1 NSC      0.483133
@<TRIPOS>BOND
     1    1    2 ar  
     2    1   12 ar  
     3    1   29 1   
     4    2    3 ar  
     5    2    9 ar  
     6    3    4 1   
     7    3    5 ar  
     8    4   30 1   
     9    4   31 1   
    10    4   49 1   
    11    5    6 ar  
    12    5   32 1   
    13    6    7 1   
    14    6    8 ar  
    15    7   33 1   
    16    7   34 1   
    17    7   35 1   
    18    8    9 ar  
    19    9   10 ar  
    20   10   11 ar  
    21   10   36 1   
    22   11   12 ar  
    23   11   37 1   
    24   12   13 1   
    25   13   14 1   
    26   13   38 1   
    27   13   50 1   
    28   14   15 2   
    29   14   16 1   
    30   16   17 1   
    31   16   39 1   
    32   16   51 1   
    33   17   18 ar  
    34   17   28 ar  
    35   18   19 ar  
    36   18   40 1   
    37   19   20 ar  
    38   19   26 ar  
    39   20   21 1   
    40   20   22 ar  
    41   21   41 1   
    42   21   42 1   
    43   21   52 1   
    44   22   23 ar  
    45   22   43 1   
    46   23   24 1   
    47   23   25 ar  
    48   24   44 1   
    49   24   45 1   
    50   24   46 1   
    51   25   26 ar  
    52   26   27 ar  
    53   27   28 ar  
    54   27   47 1   
    55   28   48 1   
@<TRIPOS>SUBSTRUCTURE
     1 NSC         1 TEMP              0 ****  ****    0 ROOT
