@<TRIPOS>MOLECULE
NSC
   48    51     1     0     0
SMALL
bcc


@<TRIPOS>ATOM
      1 C12        -0.4250    0.2010   -0.0490 ca        1 NSC     -0.202000
      2 C3          0.8820   -0.3370   -0.0170 ca        1 NSC     -0.171800
      3 C2          1.7430   -0.2440    1.1440 ca        1 NSC      0.201600
      4 N1          1.3070    0.3530    2.3230 nv        1 NSC     -0.819200
      5 C7          3.0020   -0.8360    1.0710 ca        1 NSC     -0.321300
      6 C6          3.4070   -1.5100   -0.1210 ca        1 NSC      0.448600
      7 C8          4.7690   -2.1310   -0.1090 c3        1 NSC     -0.149900
      8 N5          2.6430   -1.5970   -1.2060 nb        1 NSC     -0.690500
      9 C4          1.3930   -1.0170   -1.1630 ca        1 NSC      0.411100
     10 C9          0.5590   -1.1000   -2.3250 ca        1 NSC     -0.139800
     11 C10        -0.6960   -0.5550   -2.3460 ca        1 NSC     -0.133000
     12 C11        -1.2180    0.1080   -1.1920 ca        1 NSC      0.058600
     13 N13        -2.4870    0.7190   -1.2050 ns        1 NSC     -0.453100
     14 C14        -3.5920    0.1970   -1.9150 c         1 NSC      0.776100
     15 O28        -3.4680   -0.7640   -2.7040 o         1 NSC     -0.607100
     16 N15        -4.8230    0.8690   -1.7390 ns        1 NSC     -0.453100
     17 C16        -5.9770    0.5780   -2.4450 ca        1 NSC      0.058600
     18 C17        -6.2240   -0.5780   -3.1910 ca        1 NSC     -0.202000
     19 C18        -6.4220   -1.7130   -2.3090 ca        1 NSC     -0.171800
     20 C24        -5.8880   -3.0120   -2.3570 ca        1 NSC      0.201600
     21 N25        -4.9610   -3.3630   -3.3250 nv        1 NSC     -0.819200
     22 C23        -6.3900   -3.9420   -1.4070 ca        1 NSC     -0.321300
     23 C21        -7.3710   -3.5400   -0.4900 ca        1 NSC      0.448600
     24 C20        -7.8920   -4.5490    0.4860 c3        1 NSC     -0.149900
     25 N22        -7.8780   -2.2760   -0.4290 nb        1 NSC     -0.690500
     26 C19        -7.4070   -1.3780   -1.3130 ca        1 NSC      0.411100
     27 C26        -7.9280    0.0250   -1.2790 ca        1 NSC     -0.139800
     28 C27        -7.2730    1.0500   -1.8810 ca        1 NSC     -0.133000
     29 H12        -0.8300    0.6930    0.8490 ha        1 NSC      0.138500
     30 HN11        0.6320    1.0750    2.2200 hn        1 NSC      0.406800
     31 HN12        2.0260    0.5630    2.9780 hn        1 NSC      0.406800
     32 H7          3.7020   -0.8050    1.9170 ha        1 NSC      0.141000
     33 H81         5.0240   -2.6180   -1.0820 hc        1 NSC      0.052867
     34 H82         4.8110   -2.9030    0.6990 hc        1 NSC      0.052867
     35 H83         5.5310   -1.3420    0.1070 hc        1 NSC      0.052867
     36 H9          0.9480   -1.6160   -3.2190 ha        1 NSC      0.155500
     37 H10        -1.3170   -0.6350   -3.2540 ha        1 NSC      0.160000
     38 H13        -2.6640    1.3320   -0.4410 hn        1 NSC      0.309500
     39 H15        -4.8990    1.5620   -1.0280 hn        1 NSC      0.309500
     40 H17        -6.7920   -0.5360   -4.1270 ha        1 NSC      0.138500
     41 H251       -4.4810   -2.5870   -3.7360 hn        1 NSC      0.406800
     42 H252       -4.3760   -4.1330   -3.0930 hn        1 NSC      0.406800
     43 H23        -6.0150   -4.9740   -1.3920 ha        1 NSC      0.141000
     44 H201       -7.3400   -5.5140    0.3800 hc        1 NSC      0.052867
     45 H202       -7.7730   -4.1820    1.5350 hc        1 NSC      0.052867
     46 H203       -8.9790   -4.7360    0.3010 hc        1 NSC      0.052867
     47 H26        -8.8710    0.1850   -0.7330 ha        1 NSC      0.155500
     48 H27        -7.6120    2.0860   -1.9280 ha        1 NSC      0.160000
@<TRIPOS>BOND
     1    1    2 ar  
     2    1   12 ar  
     3    1   29 1   
     4    2    3 ar  
     5    2    9 ar  
     6    3    4 1   
     7    3    5 ar  
     8    4   30 1   
     9    4   31 1   
    10    5    6 ar  
    11    5   32 1   
    12    6    7 1   
    13    6    8 ar  
    14    7   33 1   
    15    7   34 1   
    16    7   35 1   
    17    8    9 ar  
    18    9   10 ar  
    19   10   11 ar  
    20   10   36 1   
    21   11   12 ar  
    22   11   37 1   
    23   12   13 1   
    24   13   14 1   
    25   13   38 1   
    26   14   15 2   
    27   14   16 1   
    28   16   17 1   
    29   16   39 1   
    30   17   18 ar  
    31   17   28 ar  
    32   18   19 ar  
    33   18   40 1   
    34   19   20 ar  
    35   19   26 ar  
    36   20   21 1   
    37   20   22 ar  
    38   21   41 1   
    39   21   42 1   
    40   22   23 ar  
    41   22   43 1   
    42   23   24 1   
    43   23   25 ar  
    44   24   44 1   
    45   24   45 1   
    46   24   46 1   
    47   25   26 ar  
    48   26   27 ar  
    49   27   28 ar  
    50   27   47 1   
    51   28   48 1   
@<TRIPOS>SUBSTRUCTURE
     1 NSC         1 TEMP              0 ****  ****    0 ROOT
