@<TRIPOS>MOLECULE
NSC
   48    51     1     0     0
SMALL
bcc


@<TRIPOS>ATOM
      1 C12         6.4110   -2.7760   -5.1700 ca        1 NSC     -0.151000
      2 C3          7.6350   -3.3080   -5.6360 ca        1 NSC     -0.193300
      3 C2          8.0170   -3.2950   -7.0330 ca        1 NSC      0.200100
      4 N1          7.2050   -2.7120   -8.0010 nh        1 NSC     -0.831200
      5 C7          9.2600   -3.8240   -7.3750 ca        1 NSC     -0.324300
      6 C6         10.1140   -4.3520   -6.3600 ca        1 NSC      0.450600
      7 C8         11.4380   -4.8870   -6.8110 c3        1 NSC     -0.150400
      8 N5          9.7830   -4.3900   -5.0720 nb        1 NSC     -0.679500
      9 C4          8.5570   -3.8760   -4.7070 ca        1 NSC      0.434100
     10 C9          8.1850   -3.9090   -3.3230 ca        1 NSC     -0.147800
     11 C10         6.9860   -3.4100   -2.8930 ca        1 NSC     -0.164500
     12 C11         6.0690   -2.8250   -3.8190 ca        1 NSC      0.053600
     13 N13         4.8010   -2.3630   -3.4070 n         1 NSC     -0.455100
     14 C14         4.5940   -1.7050   -2.1710 c         1 NSC      0.766100
     15 O28         5.4570   -1.7100   -1.2650 o         1 NSC     -0.615100
     16 N15         3.3550   -1.0530   -2.0000 n         1 NSC     -0.455100
     17 C16         2.9330   -0.5130   -0.7880 ca        1 NSC      0.053600
     18 C17         3.6960   -0.1220    0.2930 ca        1 NSC     -0.151000
     19 C18         3.0950    0.4550    1.5060 ca        1 NSC     -0.193300
     20 C24         3.7600    0.5170    2.7500 ca        1 NSC      0.200100
     21 N25         5.0900    0.1600    2.9050 nh        1 NSC     -0.831200
     22 C23         3.0320    1.0350    3.8640 ca        1 NSC     -0.324300
     23 C21         1.7170    1.4770    3.7150 ca        1 NSC      0.450600
     24 C20         0.9840    2.0030    4.9070 c3        1 NSC     -0.150400
     25 N22         1.0580    1.4540    2.5120 nb        1 NSC     -0.679500
     26 C19         1.7350    0.9740    1.4780 ca        1 NSC      0.434100
     27 C26         1.3550    0.9300    0.0520 ca        1 NSC     -0.147800
     28 C27         1.4970   -0.3350   -0.4610 ca        1 NSC     -0.164500
     29 H12         5.7180   -2.3050   -5.8840 ha        1 NSC      0.145500
     30 HN11        6.2290   -2.7230   -7.8140 hn        1 NSC      0.406300
     31 HN12        7.4390   -2.9400   -8.9410 hn        1 NSC      0.406300
     32 H7          9.6120   -3.8410   -8.4150 ha        1 NSC      0.140500
     33 H81        12.0230   -4.0610   -7.2860 hc        1 NSC      0.054033
     34 H82        12.0370   -5.3080   -5.9670 hc        1 NSC      0.054033
     35 H83        11.2710   -5.6920   -7.5680 hc        1 NSC      0.054033
     36 H9          8.8890   -4.3500   -2.5980 ha        1 NSC      0.149500
     37 H10         6.7290   -3.4430   -1.8200 ha        1 NSC      0.158500
     38 H13         4.1920   -2.1200   -4.1590 hn        1 NSC      0.313000
     39 H15         2.6200   -1.2330   -2.6490 hn        1 NSC      0.313000
     40 H17         4.7870   -0.2710    0.2790 ha        1 NSC      0.145500
     41 H251        5.4760   -0.4440    2.2160 hn        1 NSC      0.406300
     42 H252        5.3920   -0.0100    3.8360 hn        1 NSC      0.406300
     43 H23         3.5140    1.0910    4.8510 ha        1 NSC      0.140500
     44 H201        1.6290    1.9490    5.8160 hc        1 NSC      0.054033
     45 H202        0.6870    3.0680    4.7400 hc        1 NSC      0.054033
     46 H203        0.0560    1.4050    5.0880 hc        1 NSC      0.054033
     47 H26         1.6310    1.8310   -0.5200 ha        1 NSC      0.149500
     48 H27         0.9400   -1.2160   -0.1240 ha        1 NSC      0.158500
@<TRIPOS>BOND
     1    1    2 ar  
     2    1   12 ar  
     3    1   29 1   
     4    2    3 ar  
     5    2    9 ar  
     6    3    4 1   
     7    3    5 ar  
     8    4   30 1   
     9    4   31 1   
    10    5    6 ar  
    11    5   32 1   
    12    6    7 1   
    13    6    8 ar  
    14    7   33 1   
    15    7   34 1   
    16    7   35 1   
    17    8    9 ar  
    18    9   10 ar  
    19   10   11 ar  
    20   10   36 1   
    21   11   12 ar  
    22   11   37 1   
    23   12   13 1   
    24   13   14 1   
    25   13   38 1   
    26   14   15 2   
    27   14   16 1   
    28   16   17 1   
    29   16   39 1   
    30   17   18 ar  
    31   17   28 ar  
    32   18   19 ar  
    33   18   40 1   
    34   19   20 ar  
    35   19   26 ar  
    36   20   21 1   
    37   20   22 ar  
    38   21   41 1   
    39   21   42 1   
    40   22   23 ar  
    41   22   43 1   
    42   23   24 1   
    43   23   25 ar  
    44   24   44 1   
    45   24   45 1   
    46   24   46 1   
    47   25   26 ar  
    48   26   27 ar  
    49   27   28 ar  
    50   27   47 1   
    51   28   48 1   
@<TRIPOS>SUBSTRUCTURE
     1 NSC         1 TEMP              0 ****  ****    0 ROOT
