@<TRIPOS>MOLECULE
NSC
   48    51     1     0     0
SMALL
bcc


@<TRIPOS>ATOM
      1 C12        -0.4340    0.2040   -0.0300 ca        1 NSC     -0.202000
      2 C3          0.8750   -0.3280    0.0020 ca        1 NSC     -0.171800
      3 C2          1.7330   -0.2390    1.1670 ca        1 NSC      0.201600
      4 N1          1.2900    0.3490    2.3480 nh        1 NSC     -0.819200
      5 C7          2.9950   -0.8250    1.0940 ca        1 NSC     -0.320800
      6 C6          3.4060   -1.4900   -0.1000 ca        1 NSC      0.448600
      7 C8          4.7710   -2.1060   -0.0870 c3        1 NSC     -0.149900
      8 N5          2.6460   -1.5730   -1.1890 nb        1 NSC     -0.690500
      9 C4          1.3940   -0.9990   -1.1460 ca        1 NSC      0.411100
     10 C9          0.5640   -1.0770   -2.3120 ca        1 NSC     -0.139800
     11 C10        -0.6930   -0.5380   -2.3330 ca        1 NSC     -0.133000
     12 C11        -1.2220    0.1150   -1.1760 ca        1 NSC      0.058600
     13 N13        -2.4940    0.7200   -1.1900 n         1 NSC     -0.453100
     14 C14        -3.5940    0.1980   -1.9070 c         1 NSC      0.776100
     15 O28        -3.4630   -0.7580   -2.7020 o         1 NSC     -0.607100
     16 N15        -4.8290    0.8630   -1.7320 n         1 NSC     -0.453100
     17 C16        -5.9780    0.5730   -2.4460 ca        1 NSC      0.058600
     18 C17        -6.2170   -0.5790   -3.2000 ca        1 NSC     -0.202000
     19 C18        -6.4150   -1.7200   -2.3270 ca        1 NSC     -0.171800
     20 C24        -5.8760   -3.0170   -2.3820 ca        1 NSC      0.201600
     21 N25        -4.9430   -3.3580   -3.3470 nh        1 NSC     -0.819200
     22 C23        -6.3800   -3.9560   -1.4400 ca        1 NSC     -0.320800
     23 C21        -7.3670   -3.5640   -0.5250 ca        1 NSC      0.448600
     24 C20        -7.8900   -4.5820    0.4410 c3        1 NSC     -0.149900
     25 N22        -7.8790   -2.3020   -0.4590 nb        1 NSC     -0.690500
     26 C19        -7.4070   -1.3960   -1.3330 ca        1 NSC      0.411100
     27 C26        -7.9330    0.0050   -1.2930 ca        1 NSC     -0.139800
     28 C27        -7.2790    1.0360   -1.8840 ca        1 NSC     -0.133000
     29 H12        -0.8440    0.6880    0.8700 ha        1 NSC      0.138500
     30 HN11        2.0060    0.5580    3.0070 hn        1 NSC      0.406800
     31 HN12        0.6130    1.0690    2.2470 hn        1 NSC      0.406800
     32 H7          3.6910   -0.7970    1.9430 ha        1 NSC      0.141000
     33 H81         5.5290   -1.3150    0.1350 hc        1 NSC      0.052700
     34 H82         5.0300   -2.5860   -1.0620 hc        1 NSC      0.052700
     35 H83         4.8140   -2.8820    0.7160 hc        1 NSC      0.052700
     36 H9          0.9580   -1.5860   -3.2070 ha        1 NSC      0.155500
     37 H10        -1.3110   -0.6150   -3.2440 ha        1 NSC      0.160000
     38 H13        -2.6770    1.3270   -0.4220 hn        1 NSC      0.309500
     39 H15        -4.9100    1.5520   -1.0170 hn        1 NSC      0.309500
     40 H17        -6.7810   -0.5320   -4.1380 ha        1 NSC      0.138500
     41 H251       -4.4650   -2.5770   -3.7510 hn        1 NSC      0.406800
     42 H252       -4.3570   -4.1280   -3.1170 hn        1 NSC      0.406800
     43 H23        -6.0010   -4.9870   -1.4300 ha        1 NSC      0.141000
     44 H201       -8.9740   -4.7740    0.2460 hc        1 NSC      0.052700
     45 H202       -7.7800   -4.2200    1.4930 hc        1 NSC      0.052700
     46 H203       -7.3310   -5.5430    0.3330 hc        1 NSC      0.052700
     47 H26        -8.8790    0.1580   -0.7510 ha        1 NSC      0.155500
     48 H27        -7.6210    2.0720   -1.9260 ha        1 NSC      0.160000
@<TRIPOS>BOND
     1    1    2 ar  
     2    1   12 ar  
     3    1   29 1   
     4    2    3 ar  
     5    2    9 ar  
     6    3    4 1   
     7    3    5 ar  
     8    4   30 1   
     9    4   31 1   
    10    5    6 ar  
    11    5   32 1   
    12    6    7 1   
    13    6    8 ar  
    14    7   33 1   
    15    7   34 1   
    16    7   35 1   
    17    8    9 ar  
    18    9   10 ar  
    19   10   11 ar  
    20   10   36 1   
    21   11   12 ar  
    22   11   37 1   
    23   12   13 1   
    24   13   14 1   
    25   13   38 1   
    26   14   15 2   
    27   14   16 1   
    28   16   17 1   
    29   16   39 1   
    30   17   18 ar  
    31   17   28 ar  
    32   18   19 ar  
    33   18   40 1   
    34   19   20 ar  
    35   19   26 ar  
    36   20   21 1   
    37   20   22 ar  
    38   21   41 1   
    39   21   42 1   
    40   22   23 ar  
    41   22   43 1   
    42   23   24 1   
    43   23   25 ar  
    44   24   44 1   
    45   24   45 1   
    46   24   46 1   
    47   25   26 ar  
    48   26   27 ar  
    49   27   28 ar  
    50   27   47 1   
    51   28   48 1   
@<TRIPOS>SUBSTRUCTURE
     1 NSC         1 TEMP              0 ****  ****    0 ROOT
