@<TRIPOS>MOLECULE
NSC
   48    42     1     0     0
SMALL
bcc


@<TRIPOS>ATOM
      1 C12         3.0220    1.3420    0.2600 c1        1 NSC     -0.130000
      2 C3          4.4020    1.6540    0.2040 c1        1 NSC     -0.035000
      3 C2          4.8280    2.9700    0.3810 c1        1 NSC      0.116500
      4 N1          4.1550    4.1490    0.8840 n3        1 NSC     -0.338500
      5 C7          6.1700    3.2710    0.3260 c1        1 NSC     -0.278500
      6 C6          7.1070    2.2560    0.0920 c1        1 NSC      0.039500
      7 C8          8.6000    2.4150   -0.2720 c3        1 NSC     -0.176000
      8 N5          6.6880    0.9600   -0.0820 n1        1 NSC     -0.166500
      9 C4          5.3300    0.6520   -0.0260 c1        1 NSC     -0.035000
     10 C9          4.8970   -0.6840   -0.2060 c1        1 NSC     -0.130000
     11 C10         3.5370   -0.9910   -0.1500 c1        1 NSC     -0.116000
     12 C11         2.5970    0.0240    0.0830 c1        1 NSC      0.074000
     13 N13         1.2410    0.4430   -0.1170 n         1 NSC     -0.330000
     14 C14         0.1920   -0.5170   -0.1100 c2        1 NSC      0.414000
     15 O28         0.4440   -1.6950    0.0650 o         1 NSC     -0.382000
     16 N15        -1.1620   -0.0950   -0.2900 n         1 NSC     -0.333000
     17 C16        -2.2240   -1.0600   -0.2620 c2        1 NSC      0.061000
     18 C17        -3.0390   -2.1950   -0.2520 c2        1 NSC     -0.125000
     19 C18        -4.4470   -2.0540   -0.2030 c1        1 NSC     -0.098000
     20 C24        -5.2650   -3.1870   -0.1590 c1        1 NSC      0.116500
     21 N25        -5.0250   -4.6020   -0.0890 n3        1 NSC     -0.338500
     22 C23        -6.6330   -3.0450   -0.0790 c1        1 NSC     -0.278500
     23 C21        -7.2040   -1.7650   -0.0400 c1        1 NSC      0.039500
     24 C20        -8.5830   -1.1140    0.1790 c3        1 NSC     -0.176000
     25 N22        -6.4000   -0.6520   -0.0830 n1        1 NSC     -0.166500
     26 C19        -5.0140   -0.7920   -0.1640 c1        1 NSC      0.020000
     27 C26        -4.1860    0.3570   -0.1740 c1        1 NSC     -0.087000
     28 C27        -2.7990    0.2170   -0.2230 c1        1 NSC     -0.154000
     29 H12         2.3620    2.0540    0.4240 ha        1 NSC      0.139500
     30 HN11        3.2710    4.1010    1.1380 hn        1 NSC      0.200500
     31 HN12        4.6110    4.9430    0.9570 hn        1 NSC      0.200500
     32 H7          6.4720    4.1960    0.4700 ha        1 NSC      0.140000
     33 H81         8.9540    3.2330    0.1450 hc        1 NSC      0.093333
     34 H82         8.6940    2.4790   -1.2500 hc        1 NSC      0.093333
     35 H83         9.1020    1.6350    0.0550 hc        1 NSC      0.093333
     36 H9          5.5570   -1.3980   -0.3700 ha        1 NSC      0.139500
     37 H10         3.2370   -1.9220   -0.2750 ha        1 NSC      0.170000
     38 H13         1.0420    1.3360   -0.1670 hn        1 NSC      0.224000
     39 H15        -1.3440    0.7810   -0.5000 hn        1 NSC      0.230000
     40 H17        -2.6330   -3.0940   -0.2410 ha        1 NSC      0.166000
     41 H251       -4.1680   -4.9250   -0.1380 hn        1 NSC      0.200500
     42 H252       -5.7300   -5.1830    0.0050 hn        1 NSC      0.200500
     43 H23        -7.2110   -3.8420   -0.0660 ha        1 NSC      0.140000
     44 H201       -8.6490   -0.7900    1.1060 hc        1 NSC      0.093333
     45 H202       -8.6910   -0.3590   -0.4410 hc        1 NSC      0.093333
     46 H203       -9.2900   -1.7780    0.0130 hc        1 NSC      0.093333
     47 H26        -4.5890    1.2550   -0.1470 ha        1 NSC      0.153000
     48 H27        -2.2230    1.0150   -0.2090 ha        1 NSC      0.130000
@<TRIPOS>BOND
     1    1    2 1   
     2    1   29 1   
     3    2    9 1   
     4    3    4 1   
     5    3    5 1   
     6    4   30 1   
     7    4   31 1   
     8    5   32 1   
     9    6    7 1   
    10    6    8 1   
    11    7   33 1   
    12    7   34 1   
    13    7   35 1   
    14    9   10 1   
    15   10   36 1   
    16   11   12 1   
    17   11   37 1   
    18   12   13 1   
    19   13   14 1   
    20   13   38 1   
    21   14   15 1   
    22   14   16 1   
    23   16   17 1   
    24   16   39 1   
    25   17   18 1   
    26   17   28 1   
    27   18   19 1   
    28   18   40 1   
    29   19   26 1   
    30   20   21 1   
    31   20   22 1   
    32   21   41 1   
    33   21   42 1   
    34   22   43 1   
    35   23   24 1   
    36   23   25 1   
    37   24   44 1   
    38   24   45 1   
    39   24   46 1   
    40   26   27 1   
    41   27   47 1   
    42   28   48 1   
@<TRIPOS>SUBSTRUCTURE
     1 NSC         1 TEMP              0 ****  ****    0 ROOT
