@<TRIPOS>MOLECULE
NSD
   29    28     1     0     0
SMALL
bcc


@<TRIPOS>ATOM
      1 C1          0.0040    0.0070   -0.0170 c3        1 NSD      0.104800
      2 N1          1.4770    0.0020   -0.2370 nz        1 NSD     -0.837600
      3 C2         -0.3980   -0.0020    1.4610 c3        1 NSD     -0.138400
      4 N2         -2.4340   -0.0030    2.9600 ny        1 NSD     -0.764000
      5 C3         -1.9270    0.0040    1.5480 c3        1 NSD      0.108800
      6 N3         -6.6840   -0.0050    5.6910 nz        1 NSD     -0.837600
      7 C4         -3.9330    0.0010    3.0060 c3        1 NSD      0.108800
      8 C5         -4.4890   -0.0040    4.4330 c3        1 NSD     -0.138400
      9 C6         -6.0190   -0.0000    4.3580 c3        1 NSD      0.104800
     10 H1         -0.4200   -0.9060   -0.5360 hx        1 NSD      0.132200
     11 H1A        -0.4120    0.9300   -0.5240 hx        1 NSD      0.132200
     12 HN1         1.6690    0.0090   -1.2530 hn        1 NSD      0.485133
     13 HN1A        1.9170    0.8320    0.1810 hn        1 NSD      0.485133
     14 H2          0.0180   -0.9160    1.9680 hc        1 NSD      0.098700
     15 H2A         0.0250    0.9030    1.9800 hc        1 NSD      0.098700
     16 H7         -2.0750    0.8260    3.4560 hn        1 NSD      0.467800
     17 H3         -2.3380    0.9260    1.0400 hx        1 NSD      0.128700
     18 H3A        -2.3450   -0.9100    1.0300 hx        1 NSD      0.128700
     19 HN3        -7.7090   -0.0020    5.5600 hn        1 NSD      0.485133
     20 HN3A       -6.4250    0.8280    6.2370 hn        1 NSD      0.485133
     21 H5         -4.1290    0.9020    4.9940 hc        1 NSD      0.098700
     22 H5A        -4.1330   -0.9170    4.9860 hc        1 NSD      0.098700
     23 H6         -6.3750    0.9210    3.8050 hx        1 NSD      0.132200
     24 H6A        -6.3790   -0.9150    3.7960 hx        1 NSD      0.132200
     25 H4         -4.2960   -0.9130    2.4490 hx        1 NSD      0.128700
     26 H17        -4.2910    0.9230    2.4570 hx        1 NSD      0.128700
     27 H13         1.9090   -0.8380    0.1690 hn        1 NSD      0.485133
     28 H22        -2.0790   -0.8380    3.4470 hn        1 NSD      0.467800
     29 H33        -6.4280   -0.8430    6.2290 hn        1 NSD      0.485133
@<TRIPOS>BOND
     1    1    2 1   
     2    1    3 1   
     3    1   10 1   
     4    1   11 1   
     5    2   12 1   
     6    2   13 1   
     7    2   27 1   
     8    3    5 1   
     9    3   14 1   
    10    3   15 1   
    11    4    5 1   
    12    4    7 1   
    13    4   16 1   
    14    4   28 1   
    15    5   17 1   
    16    5   18 1   
    17    6    9 1   
    18    6   19 1   
    19    6   20 1   
    20    6   29 1   
    21    7    8 1   
    22    7   25 1   
    23    7   26 1   
    24    8    9 1   
    25    8   21 1   
    26    8   22 1   
    27    9   23 1   
    28    9   24 1   
@<TRIPOS>SUBSTRUCTURE
     1 NSD         1 TEMP              0 ****  ****    0 ROOT
