@<TRIPOS>MOLECULE
NSD
   29    28     1     0     0
SMALL
bcc


@<TRIPOS>ATOM
      1 C1          0.0010    0.0030   -0.0200 c3        1 NSD      0.104800
      2 N1          1.4730    0.0000   -0.2420 n4        1 NSD     -0.837600
      3 C2         -0.3990   -0.0010    1.4580 c3        1 NSD     -0.138400
      4 N2         -2.4330   -0.0010    2.9600 n4        1 NSD     -0.764000
      5 C3         -1.9280    0.0020    1.5480 c3        1 NSD      0.108800
      6 N3         -6.6800   -0.0010    5.6950 n4        1 NSD     -0.837600
      7 C4         -3.9330   -0.0000    3.0080 c3        1 NSD      0.108800
      8 C5         -4.4870   -0.0010    4.4350 c3        1 NSD     -0.138400
      9 C6         -6.0170   -0.0010    4.3620 c3        1 NSD      0.104800
     10 H1         -0.4220   -0.9110   -0.5360 hx        1 NSD      0.132200
     11 H1A        -0.4170    0.9240   -0.5290 hx        1 NSD      0.132200
     12 HN1         1.6650    0.0040   -1.2580 hn        1 NSD      0.485133
     13 HN1A        1.9080   -0.8380    0.1660 hn        1 NSD      0.485133
     14 H2          0.0220    0.9060    1.9740 hc        1 NSD      0.098700
     15 H2A         0.0190   -0.9130    1.9670 hc        1 NSD      0.098700
     16 H7         -2.0760    0.8300    3.4520 hn        1 NSD      0.467800
     17 H3         -2.3450   -0.9140    1.0320 hx        1 NSD      0.128700
     18 H3A        -2.3410    0.9220    1.0370 hx        1 NSD      0.128700
     19 HN3        -6.4220   -0.8370    6.2370 hn        1 NSD      0.485133
     20 HN3A       -6.4230    0.8340    6.2370 hn        1 NSD      0.485133
     21 H5         -4.1290    0.9080    4.9920 hc        1 NSD      0.098700
     22 H5A        -4.1280   -0.9110    4.9910 hc        1 NSD      0.098700
     23 H6         -6.3760    0.9160    3.8040 hx        1 NSD      0.132200
     24 H6A        -6.3750   -0.9190    3.8050 hx        1 NSD      0.132200
     25 H4         -4.2930    0.9190    2.4560 hx        1 NSD      0.128700
     26 H17        -4.2940   -0.9180    2.4540 hx        1 NSD      0.128700
     27 H13         1.9120    0.8330    0.1730 hn        1 NSD      0.485133
     28 H22        -2.0770   -0.8340    3.4490 hn        1 NSD      0.467800
     29 H33        -7.7050   -0.0020    5.5650 hn        1 NSD      0.485133
@<TRIPOS>BOND
     1    1    2 1   
     2    1    3 1   
     3    1   10 1   
     4    1   11 1   
     5    2   12 1   
     6    2   13 1   
     7    2   27 1   
     8    3    5 1   
     9    3   14 1   
    10    3   15 1   
    11    4    5 1   
    12    4    7 1   
    13    4   16 1   
    14    4   28 1   
    15    5   17 1   
    16    5   18 1   
    17    6    9 1   
    18    6   19 1   
    19    6   20 1   
    20    6   29 1   
    21    7    8 1   
    22    7   25 1   
    23    7   26 1   
    24    8    9 1   
    25    8   21 1   
    26    8   22 1   
    27    9   23 1   
    28    9   24 1   
@<TRIPOS>SUBSTRUCTURE
     1 NSD         1 TEMP              0 ****  ****    0 ROOT
