@<TRIPOS>MOLECULE
NSD
   26    25     1     0     0
SMALL
bcc


@<TRIPOS>ATOM
      1 C1          2.7730    0.2000   -2.4240 c3        1 NSD      0.159800
      2 N1          4.2050    0.2000   -2.4240 n3        1 NSD     -0.916800
      3 C2          2.2640    0.2000   -0.9840 c3        1 NSD     -0.088400
      4 N2          0.2480    0.2310    0.3790 n3        1 NSD     -0.825200
      5 C3          0.7310    0.2140   -0.9840 c3        1 NSD      0.164800
      6 N3         -3.6190   -0.5960    3.1840 n3        1 NSD     -0.916800
      7 C4         -1.1820    0.0200    0.3870 c3        1 NSD      0.164800
      8 C5         -1.6590   -0.1980    1.8270 c3        1 NSD     -0.088400
      9 C6         -3.1730   -0.4000    1.8380 c3        1 NSD      0.159800
     10 H1          2.4470   -0.5970   -2.8840 h1        1 NSD      0.024700
     11 H1A         2.4470    0.9970   -2.8840 h1        1 NSD      0.024700
     12 HN1         4.5090   -0.5460   -2.8520 hn        1 NSD      0.349800
     13 HN1A        4.5090    0.9430   -2.8560 hn        1 NSD      0.349800
     14 H2          2.5820   -0.6010   -0.5270 hc        1 NSD      0.053700
     15 H2A         2.5960    0.9930   -0.5220 hc        1 NSD      0.053700
     16 H7          0.4390    1.0380    0.7590 hn        1 NSD      0.357800
     17 H3          0.4130    1.0100   -1.4520 h1        1 NSD      0.028700
     18 H3A         0.3980   -0.5840   -1.4370 h1        1 NSD      0.028700
     19 HN3        -4.0200   -1.4120    3.2560 hn        1 NSD      0.349800
     20 HN3A       -4.2170    0.0570    3.4040 hn        1 NSD      0.349800
     21 H5         -1.2230   -0.9890    2.1990 hc        1 NSD      0.053700
     22 H5A        -1.4320    0.5830    2.3670 hc        1 NSD      0.053700
     23 H6         -3.4000   -1.1850    1.3030 h1        1 NSD      0.024700
     24 H6A        -3.6090    0.3880    1.4610 h1        1 NSD      0.024700
     25 H4         -1.6290    0.8020    0.0110 h1        1 NSD      0.028700
     26 H17        -1.3980   -0.7670   -0.1490 h1        1 NSD      0.028700
@<TRIPOS>BOND
     1    1    2 1   
     2    1    3 1   
     3    1   10 1   
     4    1   11 1   
     5    2   12 1   
     6    2   13 1   
     7    3    5 1   
     8    3   14 1   
     9    3   15 1   
    10    4    5 1   
    11    4    7 1   
    12    4   16 1   
    13    5   17 1   
    14    5   18 1   
    15    6    9 1   
    16    6   19 1   
    17    6   20 1   
    18    7    8 1   
    19    7   25 1   
    20    7   26 1   
    21    8    9 1   
    22    8   21 1   
    23    8   22 1   
    24    9   23 1   
    25    9   24 1   
@<TRIPOS>SUBSTRUCTURE
     1 NSD         1 TEMP              0 ****  ****    0 ROOT
