@<TRIPOS>MOLECULE
NSD
   26    25     1     0     0
SMALL
bcc


@<TRIPOS>ATOM
      1 C1         -3.6930   -0.4710   -0.0290 c3        1 NSD      0.159800
      2 N1         -4.9380    0.2410   -0.1880 n3        1 NSD     -0.916800
      3 C2         -2.4730    0.4480    0.0030 c3        1 NSD     -0.088400
      4 N2          0.0000    0.3910    0.2070 n3        1 NSD     -0.825200
      5 C3         -1.2080   -0.4030    0.0990 c3        1 NSD      0.164800
      6 N3          4.9380    0.2410   -0.1880 n3        1 NSD     -0.916800
      7 C4          1.2080   -0.4030    0.0990 c3        1 NSD      0.164800
      8 C5          2.4730    0.4480    0.0030 c3        1 NSD     -0.088400
      9 C6          3.6930   -0.4710   -0.0290 c3        1 NSD      0.159800
     10 H1         -3.6750   -1.1070    0.9080 h1        1 NSD      0.024700
     11 H1A        -3.5980   -1.1750   -0.9050 h1        1 NSD      0.024700
     12 HN1        -5.7120   -0.3810   -0.0690 hn        1 NSD      0.349800
     13 HN1A       -5.0130    0.9900    0.4710 hn        1 NSD      0.349800
     14 H2         -2.4460    1.0780   -0.9240 hc        1 NSD      0.053700
     15 H2A        -2.5360    1.1420    0.8810 hc        1 NSD      0.053700
     16 H7         -0.0000    1.1310   -0.4690 hn        1 NSD      0.357800
     17 H3         -1.2660   -1.0480    1.0220 h1        1 NSD      0.028700
     18 H3A        -1.1810   -1.1010   -0.7910 h1        1 NSD      0.028700
     19 HN3         5.0130    0.9900    0.4710 hn        1 NSD      0.349800
     20 HN3A        5.7120   -0.3810   -0.0690 hn        1 NSD      0.349800
     21 H5          2.4460    1.0780   -0.9240 hc        1 NSD      0.053700
     22 H5A         2.5360    1.1420    0.8810 hc        1 NSD      0.053700
     23 H6          3.5980   -1.1750   -0.9050 h1        1 NSD      0.024700
     24 H6A         3.6750   -1.1070    0.9080 h1        1 NSD      0.024700
     25 H4          1.2660   -1.0480    1.0220 h1        1 NSD      0.028700
     26 H17         1.1810   -1.1010   -0.7910 h1        1 NSD      0.028700
@<TRIPOS>BOND
     1    1    2 1   
     2    1    3 1   
     3    1   10 1   
     4    1   11 1   
     5    2   12 1   
     6    2   13 1   
     7    3    5 1   
     8    3   14 1   
     9    3   15 1   
    10    4    5 1   
    11    4    7 1   
    12    4   16 1   
    13    5   17 1   
    14    5   18 1   
    15    6    9 1   
    16    6   19 1   
    17    6   20 1   
    18    7    8 1   
    19    7   25 1   
    20    7   26 1   
    21    8    9 1   
    22    8   21 1   
    23    8   22 1   
    24    9   23 1   
    25    9   24 1   
@<TRIPOS>SUBSTRUCTURE
     1 NSD         1 TEMP              0 ****  ****    0 ROOT
