@<TRIPOS>MOLECULE
NSD
   29    28     1     0     0
SMALL
bcc


@<TRIPOS>ATOM
      1 C1          0.0030   -0.0000   -0.0180 c3        1 NSD      0.104800
      2 N1          1.4760    0.0000   -0.2390 n4        1 NSD     -0.837600
      3 C2         -0.3980    0.0000    1.4600 c3        1 NSD     -0.138400
      4 N2         -2.4340    0.0000    2.9600 n4        1 NSD     -0.764000
      5 C3         -1.9270   -0.0000    1.5480 c3        1 NSD      0.108800
      6 N3         -6.6830   -0.0000    5.6920 n4        1 NSD     -0.837600
      7 C4         -3.9330   -0.0000    3.0070 c3        1 NSD      0.108800
      8 C5         -4.4880    0.0000    4.4340 c3        1 NSD     -0.138400
      9 C6         -6.0180   -0.0000    4.3590 c3        1 NSD      0.104800
     10 H1         -0.4160   -0.9180   -0.5310 hx        1 NSD      0.131700
     11 H1A        -0.4170    0.9170   -0.5310 hx        1 NSD      0.131700
     12 HN1         1.6680   -0.0000   -1.2540 hn        1 NSD      0.485133
     13 HN1A        1.9120    0.8360    0.1730 hn        1 NSD      0.485133
     14 H2          0.0210   -0.9090    1.9730 hc        1 NSD      0.098700
     15 H2A         0.0210    0.9100    1.9720 hc        1 NSD      0.098700
     16 H7         -2.0770    0.8330    3.4510 hn        1 NSD      0.467800
     17 H3         -2.3420    0.9180    1.0350 hx        1 NSD      0.128700
     18 H3A        -2.3420   -0.9180    1.0350 hx        1 NSD      0.128700
     19 HN3        -7.7080   -0.0000    5.5610 hn        1 NSD      0.485133
     20 HN3A       -6.4250    0.8360    6.2340 hn        1 NSD      0.485133
     21 H5         -4.1300    0.9100    4.9900 hc        1 NSD      0.098700
     22 H5A        -4.1300   -0.9090    4.9910 hc        1 NSD      0.098700
     23 H6         -6.3770    0.9170    3.8020 hx        1 NSD      0.131700
     24 H6A        -6.3760   -0.9180    3.8020 hx        1 NSD      0.131700
     25 H4         -4.2930   -0.9180    2.4540 hx        1 NSD      0.128700
     26 H17        -4.2930    0.9180    2.4530 hx        1 NSD      0.128700
     27 H13         1.9120   -0.8350    0.1730 hn        1 NSD      0.485133
     28 H22        -2.0770   -0.8320    3.4510 hn        1 NSD      0.467800
     29 H33        -6.4250   -0.8350    6.2340 hn        1 NSD      0.485133
@<TRIPOS>BOND
     1    1    2 1   
     2    1    3 1   
     3    1   10 1   
     4    1   11 1   
     5    2   12 1   
     6    2   13 1   
     7    2   27 1   
     8    3    5 1   
     9    3   14 1   
    10    3   15 1   
    11    4    5 1   
    12    4    7 1   
    13    4   16 1   
    14    4   28 1   
    15    5   17 1   
    16    5   18 1   
    17    6    9 1   
    18    6   19 1   
    19    6   20 1   
    20    6   29 1   
    21    7    8 1   
    22    7   25 1   
    23    7   26 1   
    24    8    9 1   
    25    8   21 1   
    26    8   22 1   
    27    9   23 1   
    28    9   24 1   
@<TRIPOS>SUBSTRUCTURE
     1 NSD         1 TEMP              0 ****  ****    0 ROOT
