@<TRIPOS>MOLECULE
NSE
   27    29     1     0     0
SMALL
bcc


@<TRIPOS>ATOM
      1 C4          4.4360   -0.1680   10.2180 cg        1 NSE      0.227800
      2 C14         0.0370    0.0410   -0.0390 ca        1 NSE      0.412200
      3 C5          3.3030   -0.1180    8.0560 ca        1 NSE     -0.049000
      4 C6          0.8730   -0.0480    7.9600 ca        1 NSE     -0.058000
      5 C11         1.9600   -0.0460    3.6950 cc        1 NSE      0.599500
      6 C7          2.1720   -0.0690    5.8620 cd        1 NSE      0.565900
      7 C8          2.1160   -0.0790    7.3100 ca        1 NSE     -0.156500
      8 C9          1.3280   -0.0170    2.3850 ca        1 NSE     -0.253800
      9 C10        -0.0820    0.0310    2.2620 ca        1 NSE      0.439200
     10 C12         2.0960   -0.0360    1.2100 ca        1 NSE     -0.057000
     11 C13         1.4420   -0.0060   -0.0220 ca        1 NSE     -0.255300
     12 N1          5.4150   -0.2000   10.8450 n1        1 NSE     -0.345800
     13 N2          1.2280   -0.0330    4.9220 nc        1 NSE     -0.679000
     14 C3          3.2370   -0.1270    9.4540 ca        1 NSE     -0.022000
     15 N3          3.3000   -0.0880    3.9410 nd        1 NSE     -0.365300
     16 N4         -0.7170    0.0600    1.0780 nb        1 NSE     -0.670000
     17 O1          3.4620   -0.1030    5.2410 os        1 NSE     -0.136100
     18 C2          0.8220   -0.0570    9.3530 ca        1 NSE     -0.144000
     19 C1          1.9940   -0.0960   10.1040 ca        1 NSE     -0.064000
     20 H1         -0.5190    0.0660   -0.9940 h4        1 NSE      0.026100
     21 H2          4.2780   -0.1430    7.5420 ha        1 NSE      0.168000
     22 H3         -0.0590   -0.0160    7.3720 ha        1 NSE      0.163000
     23 H4         -0.7360    0.0480    3.1540 h4        1 NSE      0.044100
     24 H5          3.1960   -0.0730    1.2520 ha        1 NSE      0.158000
     25 H6          2.0110   -0.0190   -0.9610 ha        1 NSE      0.150000
     26 H7         -0.1540   -0.0330    9.8620 ha        1 NSE      0.150000
     27 H8          1.9480   -0.1030   11.2040 ha        1 NSE      0.152000
@<TRIPOS>BOND
     1    1   12 3   
     2    1   14 1   
     3    2   11 ar  
     4    2   16 ar  
     5    2   20 1   
     6    3    7 ar  
     7    3   14 ar  
     8    3   21 1   
     9    4    7 ar  
    10    4   18 ar  
    11    4   22 1   
    12    5    8 1   
    13    5   13 1   
    14    5   15 2   
    15    6    7 1   
    16    6   13 2   
    17    6   17 1   
    18    8    9 ar  
    19    8   10 ar  
    20    9   16 ar  
    21    9   23 1   
    22   10   11 ar  
    23   10   24 1   
    24   11   25 1   
    25   14   19 ar  
    26   15   17 1   
    27   18   19 ar  
    28   18   26 1   
    29   19   27 1   
@<TRIPOS>SUBSTRUCTURE
     1 NSE         1 TEMP              0 ****  ****    0 ROOT
