@<TRIPOS>MOLECULE
NSE
   27    29     1     0     0
SMALL
bcc


@<TRIPOS>ATOM
      1 C4          4.4360   -0.1730   10.2170 cg        1 NSE      0.227800
      2 C14         0.0360    0.0410   -0.0380 ca        1 NSE      0.412200
      3 C5          3.3030   -0.1210    8.0550 ca        1 NSE     -0.049000
      4 C6          0.8740   -0.0420    7.9600 ca        1 NSE     -0.058000
      5 C11         1.9600   -0.0480    3.6950 cc        1 NSE      0.599500
      6 C7          2.1720   -0.0700    5.8620 cd        1 NSE      0.565900
      7 C8          2.1170   -0.0780    7.3100 ca        1 NSE     -0.156500
      8 C9          1.3270   -0.0180    2.3850 ca        1 NSE     -0.253800
      9 C10        -0.0820    0.0290    2.2620 ca        1 NSE      0.439200
     10 C12         2.0960   -0.0350    1.2100 ca        1 NSE     -0.057000
     11 C13         1.4420   -0.0050   -0.0220 ca        1 NSE     -0.255300
     12 N1          5.4160   -0.2080   10.8440 n1        1 NSE     -0.345800
     13 N2          1.2280   -0.0320    4.9220 nc        1 NSE     -0.679000
     14 C3          3.2380   -0.1290    9.4540 ca        1 NSE     -0.022000
     15 N3          3.3000   -0.0930    3.9410 nd        1 NSE     -0.365300
     16 N4         -0.7180    0.0580    1.0780 nb        1 NSE     -0.670000
     17 O1          3.4620   -0.1070    5.2410 os        1 NSE     -0.136100
     18 C2          0.8220   -0.0500    9.3530 ca        1 NSE     -0.144000
     19 C1          1.9950   -0.0930   10.1040 ca        1 NSE     -0.064000
     20 H1         -0.5200    0.0650   -0.9930 h4        1 NSE      0.026100
     21 H2          4.2780   -0.1490    7.5410 ha        1 NSE      0.168000
     22 H3         -0.0580   -0.0080    7.3730 ha        1 NSE      0.163000
     23 H4         -0.7360    0.0440    3.1550 h4        1 NSE      0.044100
     24 H5          3.1950   -0.0710    1.2520 ha        1 NSE      0.158000
     25 H6          2.0100   -0.0180   -0.9610 ha        1 NSE      0.150000
     26 H7         -0.1530   -0.0220    9.8630 ha        1 NSE      0.150000
     27 H8          1.9500   -0.0990   11.2040 ha        1 NSE      0.152000
@<TRIPOS>BOND
     1    1   12 3   
     2    1   14 1   
     3    2   11 ar  
     4    2   16 ar  
     5    2   20 1   
     6    3    7 ar  
     7    3   14 ar  
     8    3   21 1   
     9    4    7 ar  
    10    4   18 ar  
    11    4   22 1   
    12    5    8 1   
    13    5   13 1   
    14    5   15 2   
    15    6    7 1   
    16    6   13 2   
    17    6   17 1   
    18    8    9 ar  
    19    8   10 ar  
    20    9   16 ar  
    21    9   23 1   
    22   10   11 ar  
    23   10   24 1   
    24   11   25 1   
    25   14   19 ar  
    26   15   17 1   
    27   18   19 ar  
    28   18   26 1   
    29   19   27 1   
@<TRIPOS>SUBSTRUCTURE
     1 NSE         1 TEMP              0 ****  ****    0 ROOT
