@<TRIPOS>MOLECULE
NSG
   29    30     1     0     0
SMALL
bcc


@<TRIPOS>ATOM
      1 C1         -0.0060   -0.2340    0.0640 c3        1 NSG      0.245200
      2 S1          1.7380    0.2400   -0.0800 ss        1 NSG     -0.377200
      3 C2         -0.1320   -0.8550    1.4740 c3        1 NSG      0.101500
      4 N2          0.7680   -0.1380    2.3710 n7        1 NSG     -0.801200
      5 C3          0.1030   -2.3890    1.4700 c3        1 NSG      0.077100
      6 O3         -0.3400   -2.9310    2.6970 oh        1 NSG     -0.590800
      7 C4         -0.5830   -3.0660    0.2760 c3        1 NSG      0.087100
      8 O4         -1.9890   -3.0130    0.4240 oh        1 NSG     -0.592800
      9 C5         -0.0970   -2.3830   -1.0040 c3        1 NSG      0.051100
     10 O5         -0.5200   -1.0140   -0.9860 os        1 NSG     -0.397600
     11 C6         -0.7380   -2.9920   -2.2550 c3        1 NSG      0.143400
     12 O6         -0.1830   -2.4510   -3.4310 oh        1 NSG     -0.590800
     13 C7          2.0410    0.1480    1.7160 c3        1 NSG      0.276600
     14 C8          2.6740    1.4450    2.1800 c3        1 NSG     -0.082100
     15 H1         -0.6170    0.7100   -0.0070 h2        1 NSG      0.113700
     16 H2         -1.1800   -0.6710    1.8560 h1        1 NSG      0.088700
     17 HN2         0.9040   -0.6560    3.2200 hn        1 NSG      0.392800
     18 H3          1.2070   -2.6190    1.4380 h1        1 NSG      0.087700
     19 HO3        -1.3040   -3.0110    2.6470 ho        1 NSG      0.420000
     20 H4         -0.3400   -4.1650    0.2650 h1        1 NSG      0.100700
     21 HO4        -2.2710   -2.1190    0.1830 ho        1 NSG      0.413000
     22 H5          1.0250   -2.4250   -1.0720 h1        1 NSG      0.088700
     23 H6         -1.8480   -2.8310   -2.2260 h1        1 NSG      0.061700
     24 H6A        -0.5080   -4.0900   -2.2960 h1        1 NSG      0.061700
     25 HO6        -0.3290   -1.4960   -3.4040 ho        1 NSG      0.415000
     26 H7          2.7860   -0.6860    1.8560 h2        1 NSG      0.049700
     27 H8          1.9790    2.3080    2.0440 hc        1 NSG      0.052033
     28 H8A         2.9480    1.3770    3.2620 hc        1 NSG      0.052033
     29 H8B         3.6000    1.6310    1.5850 hc        1 NSG      0.052033
@<TRIPOS>BOND
     1    1    2 1   
     2    1    3 1   
     3    1   10 1   
     4    1   15 1   
     5    2   13 1   
     6    3    4 1   
     7    3    5 1   
     8    3   16 1   
     9    4   13 1   
    10    4   17 1   
    11    5    6 1   
    12    5    7 1   
    13    5   18 1   
    14    6   19 1   
    15    7    8 1   
    16    7    9 1   
    17    7   20 1   
    18    8   21 1   
    19    9   10 1   
    20    9   11 1   
    21    9   22 1   
    22   11   12 1   
    23   11   23 1   
    24   11   24 1   
    25   12   25 1   
    26   13   14 1   
    27   13   26 1   
    28   14   27 1   
    29   14   28 1   
    30   14   29 1   
@<TRIPOS>SUBSTRUCTURE
     1 NSG         1 TEMP              0 ****  ****    0 ROOT
