@<TRIPOS>MOLECULE
NSG
   29    30     1     0     0
SMALL
bcc


@<TRIPOS>ATOM
      1 C1          0.1020   -0.1850   -0.0720 c3        1 NSG      0.244200
      2 S1          1.8820    0.1910   -0.0830 ss        1 NSG     -0.446200
      3 C2         -0.1800   -0.7480    1.3450 c3        1 NSG      0.094500
      4 N2          0.7080   -0.1190    2.3210 n3        1 NSG     -0.799200
      5 C3         -0.0250   -2.2890    1.3970 c3        1 NSG      0.118100
      6 O3         -0.6810   -2.8060    2.5430 oh        1 NSG     -0.609800
      7 C4         -0.6950   -2.9630    0.1910 c3        1 NSG      0.125100
      8 O4         -2.0990   -2.7810    0.1950 oh        1 NSG     -0.590800
      9 C5         -0.1250   -2.3520   -1.0900 c3        1 NSG      0.092100
     10 O5         -0.3700   -0.9440   -1.1470 os        1 NSG     -0.372600
     11 C6         -0.8100   -2.9260   -2.3360 c3        1 NSG      0.143400
     12 O6         -0.1570   -2.5100   -3.5140 oh        1 NSG     -0.597800
     13 C7          2.0260    0.0830    1.7460 c3        1 NSG      0.281600
     14 C8          2.7760    1.2990    2.2440 c3        1 NSG     -0.098100
     15 H1         -0.4320    0.7980   -0.2130 h2        1 NSG      0.100700
     16 H2         -1.2540   -0.5200    1.6130 h1        1 NSG      0.098700
     17 HN2         0.3180    0.7480    2.6420 hn        1 NSG      0.375800
     18 H3          1.0640   -2.5760    1.4170 h1        1 NSG      0.059700
     19 HO3        -0.2650   -2.4070    3.3170 ho        1 NSG      0.426000
     20 H4         -0.4650   -4.0660    0.2200 h1        1 NSG      0.058700
     21 HO4        -2.4100   -3.0580    1.0690 ho        1 NSG      0.423000
     22 H5          0.9860   -2.5300   -1.1270 h1        1 NSG      0.076700
     23 H6         -0.7240   -4.0440   -2.3270 h1        1 NSG      0.066200
     24 H6A        -1.8900   -2.6190   -2.3450 h1        1 NSG      0.066200
     25 HO6        -0.1990   -1.5450   -3.5370 ho        1 NSG      0.414000
     26 H7          2.6310   -0.8440    1.9510 h2        1 NSG      0.086700
     27 H8          2.2140    2.2410    2.0330 hc        1 NSG      0.054700
     28 H8A         2.9500    1.2250    3.3460 hc        1 NSG      0.054700
     29 H8B         3.7660    1.3550    1.7300 hc        1 NSG      0.054700
@<TRIPOS>BOND
     1    1    2 1   
     2    1    3 1   
     3    1   10 1   
     4    1   15 1   
     5    2   13 1   
     6    3    4 1   
     7    3    5 1   
     8    3   16 1   
     9    4   13 1   
    10    4   17 1   
    11    5    6 1   
    12    5    7 1   
    13    5   18 1   
    14    6   19 1   
    15    7    8 1   
    16    7    9 1   
    17    7   20 1   
    18    8   21 1   
    19    9   10 1   
    20    9   11 1   
    21    9   22 1   
    22   11   12 1   
    23   11   23 1   
    24   11   24 1   
    25   12   25 1   
    26   13   14 1   
    27   13   26 1   
    28   14   27 1   
    29   14   28 1   
    30   14   29 1   
@<TRIPOS>SUBSTRUCTURE
     1 NSG         1 TEMP              0 ****  ****    0 ROOT
