@<TRIPOS>MOLECULE
NSI
   64    68     1     0     0
SMALL
bcc


@<TRIPOS>ATOM
      1 O52         2.4820    0.7870    0.2260 o         1 NSI     -0.569300
      2 S48         2.9820   -0.1760   -0.6210 sy        1 NSI      1.487200
      3 O50         4.3250   -0.2060   -0.9450 o         1 NSI     -0.569300
      4 C51         2.2890   -1.6190   -0.5170 ca        1 NSI     -0.541500
      5 C55         3.0190   -2.7980   -0.7890 ca        1 NSI      0.013500
      6 C56         2.4470   -4.0500   -0.6180 ca        1 NSI     -0.149500
      7 C53         1.1260   -4.1600   -0.1710 ca        1 NSI      0.001000
      8 C57         0.3810   -3.0070    0.0980 ca        1 NSI     -0.149500
      9 C54         0.9550   -1.7560   -0.0740 ca        1 NSI      0.013500
     10 N17         2.2380    0.3380   -2.3240 ny        1 NSI     -0.605700
     11 C15         1.1980    1.4040   -2.2380 c         1 NSI      0.609300
     12 O16         0.1540    1.0540   -1.6810 o         1 NSI     -0.508100
     13 C13         1.5370    2.7040   -2.7730 cc        1 NSI     -0.207300
     14 N10         0.8780    3.8840   -2.3460 na        1 NSI     -0.021400
     15 C12        -0.3120    3.9590   -1.5360 c3        1 NSI      0.081600
     16 C34        -1.6080    3.8410   -2.2880 ca        1 NSI     -0.137300
     17 C37        -2.4740    2.7760   -2.0180 ca        1 NSI     -0.080000
     18 C38        -3.7070    2.6930   -2.6640 ca        1 NSI     -0.135000
     19 C36        -1.9750    4.8130   -3.2220 ca        1 NSI     -0.067000
     20 C39        -3.2050    4.7170   -3.8730 ca        1 NSI     -0.166300
     21 C43        -3.5870    5.7690   -4.9110 c3        1 NSI      0.688200
     22 F47        -4.9380    5.9600   -5.0590 f         1 NSI     -0.230967
     23 F46        -3.0880    7.0230   -4.6550 f         1 NSI     -0.230967
     24 F45        -3.1420    5.4820   -6.1800 f         1 NSI     -0.230967
     25 C35        -4.0790    3.6640   -3.5950 ca        1 NSI     -0.062000
     26 C6          1.4510    4.9560   -3.0260 ca        1 NSI      0.008800
     27 C2          1.1810    6.3420   -2.9520 ca        1 NSI     -0.163000
     28 C5          1.9370    7.1880   -3.7360 ca        1 NSI     -0.058000
     29 C4          2.9570    6.7050   -4.5910 ca        1 NSI     -0.147000
     30 C1          3.2440    5.3600   -4.6730 ca        1 NSI     -0.055000
     31 C7          2.5380    3.0370   -3.7220 cd        1 NSI      0.058600
     32 C3          2.5010    4.4590   -3.8890 ca        1 NSI     -0.118800
     33 C14         3.4190    2.1390   -4.4430 ca        1 NSI     -0.168800
     34 C20         4.7630    1.9920   -4.0510 ca        1 NSI     -0.083000
     35 C21         5.6230    1.1790   -4.7720 ca        1 NSI     -0.186000
     36 C19         2.9610    1.4750   -5.5890 ca        1 NSI     -0.083000
     37 C22         3.8130    0.6590   -6.3270 ca        1 NSI     -0.186000
     38 C18         5.1470    0.5090   -5.9200 ca        1 NSI      0.156100
     39 O27         6.0720   -0.2800   -6.5560 os        1 NSI     -0.312900
     40 C28         5.6870   -0.8320   -7.8140 c3        1 NSI      0.107700
     41 H55         4.0700   -2.7170   -1.1280 ha        1 NSI      0.172000
     42 H56         3.0360   -4.9590   -0.8270 ha        1 NSI      0.173500
     43 H53         0.6720   -5.1570   -0.0280 ha        1 NSI      0.170000
     44 H57        -0.6600   -3.0920    0.4510 ha        1 NSI      0.173500
     45 H54         0.3640   -0.8440    0.1400 ha        1 NSI      0.172000
     46 HN17        3.0050    0.6450   -2.9330 hn        1 NSI      0.464800
     47 H121       -0.2530    3.1470   -0.7530 h1        1 NSI      0.087200
     48 H122       -0.2910    4.9600   -1.0090 h1        1 NSI      0.087200
     49 H37        -2.1780    1.9980   -1.2950 ha        1 NSI      0.145000
     50 H38        -4.3920    1.8620   -2.4400 ha        1 NSI      0.151000
     51 H36        -1.3000    5.6570   -3.4450 ha        1 NSI      0.156000
     52 H35        -5.0540    3.6070   -4.1050 ha        1 NSI      0.163000
     53 H2          0.3970    6.7300   -2.2870 ha        1 NSI      0.152000
     54 H5          1.7470    8.2740   -3.7030 ha        1 NSI      0.155000
     55 H4          3.5250    7.4290   -5.1960 ha        1 NSI      0.154000
     56 H1          4.0390    4.9800   -5.3330 ha        1 NSI      0.153000
     57 H20         5.1410    2.5420   -3.1740 ha        1 NSI      0.152500
     58 H21         6.6770    1.0580   -4.4750 ha        1 NSI      0.164500
     59 H19         1.9210    1.6180   -5.9260 ha        1 NSI      0.152500
     60 H22         3.4400    0.1570   -7.2310 ha        1 NSI      0.164500
     61 H281        4.8570   -1.5670   -7.6770 h1        1 NSI      0.056700
     62 H282        5.3880   -0.0250   -8.5260 h1        1 NSI      0.056700
     63 H283        6.6190   -1.3460   -8.1620 h1        1 NSI      0.056700
     64 H172        1.8090   -0.4790   -2.7560 hn        1 NSI      0.464800
@<TRIPOS>BOND
     1    1    2 2   
     2    2    3 2   
     3    2    4 1   
     4    2   10 1   
     5    4    5 ar  
     6    4    9 ar  
     7    5    6 ar  
     8    5   41 1   
     9    6    7 ar  
    10    6   42 1   
    11    7    8 ar  
    12    7   43 1   
    13    8    9 ar  
    14    8   44 1   
    15    9   45 1   
    16   10   11 1   
    17   10   46 1   
    18   10   64 1   
    19   11   12 2   
    20   11   13 1   
    21   13   14 1   
    22   13   31 2   
    23   14   15 1   
    24   14   26 1   
    25   15   16 1   
    26   15   47 1   
    27   15   48 1   
    28   16   17 ar  
    29   16   19 ar  
    30   17   18 ar  
    31   17   49 1   
    32   18   25 ar  
    33   18   50 1   
    34   19   20 ar  
    35   19   51 1   
    36   20   21 1   
    37   20   25 ar  
    38   21   22 1   
    39   21   23 1   
    40   21   24 1   
    41   25   52 1   
    42   26   27 ar  
    43   26   32 ar  
    44   27   28 ar  
    45   27   53 1   
    46   28   29 ar  
    47   28   54 1   
    48   29   30 ar  
    49   29   55 1   
    50   30   32 ar  
    51   30   56 1   
    52   31   32 1   
    53   31   33 1   
    54   33   34 ar  
    55   33   36 ar  
    56   34   35 ar  
    57   34   57 1   
    58   35   38 ar  
    59   35   58 1   
    60   36   37 ar  
    61   36   59 1   
    62   37   38 ar  
    63   37   60 1   
    64   38   39 1   
    65   39   40 1   
    66   40   61 1   
    67   40   62 1   
    68   40   63 1   
@<TRIPOS>SUBSTRUCTURE
     1 NSI         1 TEMP              0 ****  ****    0 ROOT
