@<TRIPOS>MOLECULE
NSI
   64    68     1     0     0
SMALL
bcc


@<TRIPOS>ATOM
      1 O52         2.4880    0.7850    0.2250 o         1 NSI     -0.569300
      2 S48         2.9810   -0.1810   -0.6240 sy        1 NSI      1.487200
      3 O50         4.3230   -0.2170   -0.9520 o         1 NSI     -0.569300
      4 C51         2.2820   -1.6210   -0.5170 ca        1 NSI     -0.541500
      5 C55         3.0060   -2.8030   -0.7900 ca        1 NSI      0.013500
      6 C56         2.4280   -4.0520   -0.6170 ca        1 NSI     -0.149500
      7 C53         1.1070   -4.1560   -0.1660 ca        1 NSI      0.001000
      8 C57         0.3690   -2.9990    0.1040 ca        1 NSI     -0.149500
      9 C54         0.9480   -1.7500   -0.0710 ca        1 NSI      0.013500
     10 N17         2.2340    0.3360   -2.3250 n4        1 NSI     -0.605700
     11 C15         1.2000    1.4060   -2.2370 c         1 NSI      0.609300
     12 O16         0.1560    1.0610   -1.6760 o         1 NSI     -0.508100
     13 C13         1.5420    2.7040   -2.7740 cc        1 NSI     -0.207300
     14 N10         0.8890    3.8870   -2.3470 na        1 NSI     -0.021400
     15 C12        -0.2990    3.9680   -1.5330 c3        1 NSI      0.081600
     16 C34        -1.5970    3.8530   -2.2810 ca        1 NSI     -0.137300
     17 C37        -2.4670    2.7930   -2.0070 ca        1 NSI     -0.080000
     18 C38        -3.7020    2.7150   -2.6490 ca        1 NSI     -0.135000
     19 C36        -1.9630    4.8260   -3.2150 ca        1 NSI     -0.067000
     20 C39        -3.1950    4.7340   -3.8630 ca        1 NSI     -0.166300
     21 C43        -3.5750    5.7850   -4.9020 c3        1 NSI      0.688200
     22 F47        -4.9260    5.9810   -5.0470 f         1 NSI     -0.230967
     23 F46        -3.0720    7.0380   -4.6490 f         1 NSI     -0.230967
     24 F45        -3.1340    5.4950   -6.1710 f         1 NSI     -0.230967
     25 C35        -4.0720    3.6850   -3.5800 ca        1 NSI     -0.062000
     26 C6          1.4640    4.9560   -3.0290 ca        1 NSI      0.008800
     27 C2          1.1990    6.3430   -2.9560 ca        1 NSI     -0.163000
     28 C5          1.9570    7.1860   -3.7430 ca        1 NSI     -0.058000
     29 C4          2.9730    6.6980   -4.6010 ca        1 NSI     -0.147000
     30 C1          3.2540    5.3510   -4.6810 ca        1 NSI     -0.055000
     31 C7          2.5420    3.0320   -3.7260 cd        1 NSI      0.058600
     32 C3          2.5090    4.4540   -3.8940 ca        1 NSI     -0.118800
     33 C14         3.4170    2.1300   -4.4480 ca        1 NSI     -0.168800
     34 C20         4.7610    1.9780   -4.0600 ca        1 NSI     -0.083000
     35 C21         5.6170    1.1610   -4.7830 ca        1 NSI     -0.186000
     36 C19         2.9530    1.4670   -5.5930 ca        1 NSI     -0.083000
     37 C22         3.8000    0.6460   -6.3310 ca        1 NSI     -0.186000
     38 C18         5.1350    0.4920   -5.9280 ca        1 NSI      0.156100
     39 O27         6.0560   -0.3010   -6.5660 os        1 NSI     -0.312900
     40 C28         5.6640   -0.8530   -7.8220 c3        1 NSI      0.107700
     41 H55         4.0560   -2.7270   -1.1320 ha        1 NSI      0.172000
     42 H56         3.0120   -4.9640   -0.8270 ha        1 NSI      0.173500
     43 H53         0.6500   -5.1500   -0.0210 ha        1 NSI      0.170000
     44 H57        -0.6720   -3.0790    0.4600 ha        1 NSI      0.173500
     45 H54         0.3620   -0.8360    0.1450 ha        1 NSI      0.172000
     46 HN17        3.0010    0.6390   -2.9360 hn        1 NSI      0.464800
     47 H121       -0.2400    3.1570   -0.7490 h1        1 NSI      0.087200
     48 H122       -0.2720    4.9690   -1.0080 h1        1 NSI      0.087200
     49 H37        -2.1720    2.0150   -1.2830 ha        1 NSI      0.145000
     50 H38        -4.3900    1.8860   -2.4210 ha        1 NSI      0.151000
     51 H36        -1.2850    5.6660   -3.4420 ha        1 NSI      0.156000
     52 H35        -5.0500    3.6310   -4.0880 ha        1 NSI      0.163000
     53 H2          0.4180    6.7350   -2.2890 ha        1 NSI      0.152000
     54 H5          1.7710    8.2720   -3.7100 ha        1 NSI      0.155000
     55 H4          3.5420    7.4190   -5.2080 ha        1 NSI      0.154000
     56 H1          4.0460    4.9680   -5.3430 ha        1 NSI      0.153000
     57 H20         5.1440    2.5280   -3.1840 ha        1 NSI      0.152500
     58 H21         6.6710    1.0370   -4.4880 ha        1 NSI      0.164500
     59 H19         1.9130    1.6140   -5.9270 ha        1 NSI      0.152500
     60 H22         3.4220    0.1450   -7.2350 ha        1 NSI      0.164500
     61 H281        4.8320   -1.5850   -7.6820 h1        1 NSI      0.056700
     62 H282        5.3670   -0.0460   -8.5340 h1        1 NSI      0.056700
     63 H283        6.5940   -1.3710   -8.1720 h1        1 NSI      0.056700
     64 H172        1.8010   -0.4790   -2.7560 hn        1 NSI      0.464800
@<TRIPOS>BOND
     1    1    2 2   
     2    2    3 2   
     3    2    4 1   
     4    2   10 1   
     5    4    5 ar  
     6    4    9 ar  
     7    5    6 ar  
     8    5   41 1   
     9    6    7 ar  
    10    6   42 1   
    11    7    8 ar  
    12    7   43 1   
    13    8    9 ar  
    14    8   44 1   
    15    9   45 1   
    16   10   11 1   
    17   10   46 1   
    18   10   64 1   
    19   11   12 2   
    20   11   13 1   
    21   13   14 1   
    22   13   31 2   
    23   14   15 1   
    24   14   26 1   
    25   15   16 1   
    26   15   47 1   
    27   15   48 1   
    28   16   17 ar  
    29   16   19 ar  
    30   17   18 ar  
    31   17   49 1   
    32   18   25 ar  
    33   18   50 1   
    34   19   20 ar  
    35   19   51 1   
    36   20   21 1   
    37   20   25 ar  
    38   21   22 1   
    39   21   23 1   
    40   21   24 1   
    41   25   52 1   
    42   26   27 ar  
    43   26   32 ar  
    44   27   28 ar  
    45   27   53 1   
    46   28   29 ar  
    47   28   54 1   
    48   29   30 ar  
    49   29   55 1   
    50   30   32 ar  
    51   30   56 1   
    52   31   32 1   
    53   31   33 1   
    54   33   34 ar  
    55   33   36 ar  
    56   34   35 ar  
    57   34   57 1   
    58   35   38 ar  
    59   35   58 1   
    60   36   37 ar  
    61   36   59 1   
    62   37   38 ar  
    63   37   60 1   
    64   38   39 1   
    65   39   40 1   
    66   40   61 1   
    67   40   62 1   
    68   40   63 1   
@<TRIPOS>SUBSTRUCTURE
     1 NSI         1 TEMP              0 ****  ****    0 ROOT
