@<TRIPOS>MOLECULE
NSI
   63    67     1     0     0
SMALL
bcc


@<TRIPOS>ATOM
      1 O52         2.5430   -2.9200    2.3350 o         1 NSI     -0.638300
      2 S48         3.2060   -1.8840    1.6640 sy        1 NSI      1.513900
      3 O50         4.2920   -1.2860    2.3390 o         1 NSI     -0.638300
      4 C51         3.7130   -2.4040    0.1550 ca        1 NSI     -0.401500
      5 C55         4.9680   -2.0220   -0.3420 ca        1 NSI     -0.005500
      6 C56         5.4230   -2.4940   -1.5690 ca        1 NSI     -0.162500
      7 C53         4.6250   -3.3590   -2.3210 ca        1 NSI     -0.059000
      8 C57         3.3750   -3.7480   -1.8400 ca        1 NSI     -0.162500
      9 C54         2.9240   -3.2710   -0.6110 ca        1 NSI     -0.005500
     10 N17         2.1500   -0.6480    1.3250 n         1 NSI     -0.660300
     11 C15         0.8650   -0.7310    0.8030 c         1 NSI      0.734300
     12 O16         0.4430   -1.8120    0.3470 o         1 NSI     -0.603100
     13 C13         0.0380    0.4990    0.8250 cc        1 NSI     -0.131300
     14 N10        -1.3450    0.4710    1.0910 na        1 NSI     -0.042400
     15 C12        -2.1630   -0.6890    1.3220 c3        1 NSI      0.085600
     16 C34        -3.0440   -1.0830    0.1690 ca        1 NSI     -0.118300
     17 C37        -2.4880   -1.6790   -0.9680 ca        1 NSI     -0.073000
     18 C38        -3.3080   -2.0770   -2.0230 ca        1 NSI     -0.138000
     19 C36        -4.4260   -0.8910    0.2470 ca        1 NSI     -0.069000
     20 C39        -5.2400   -1.2960   -0.8120 ca        1 NSI     -0.173300
     21 C43        -6.7450   -1.0740   -0.7320 c3        1 NSI      0.687200
     22 F47        -7.4970   -2.0000   -1.4130 f         1 NSI     -0.237633
     23 F46        -7.2600   -1.0950    0.5430 f         1 NSI     -0.237633
     24 F45        -7.1640    0.1340   -1.2380 f         1 NSI     -0.237633
     25 C35        -4.6880   -1.8870   -1.9500 ca        1 NSI     -0.072000
     26 C6         -1.8110    1.7900    1.0690 ca        1 NSI     -0.021200
     27 C2         -3.1020    2.3120    1.2810 ca        1 NSI     -0.143000
     28 C5         -3.2650    3.6830    1.2070 ca        1 NSI     -0.096000
     29 C4         -2.1840    4.5440    0.9300 ca        1 NSI     -0.157000
     30 C1         -0.9080    4.0490    0.7230 ca        1 NSI     -0.072000
     31 C7          0.4660    1.8240    0.6390 cd        1 NSI     -0.014400
     32 C3         -0.6990    2.6670    0.7920 ca        1 NSI     -0.103800
     33 C14         1.7950    2.3000    0.3260 ca        1 NSI     -0.088800
     34 C20         2.3520    3.3600    1.0630 ca        1 NSI     -0.085000
     35 C21         3.6110    3.8550    0.7570 ca        1 NSI     -0.182000
     36 C19         2.5260    1.7510   -0.7350 ca        1 NSI     -0.085000
     37 C22         3.7900    2.2380   -1.0600 ca        1 NSI     -0.182000
     38 C18         4.3320    3.2900   -0.3140 ca        1 NSI      0.135100
     39 O27         5.5690    3.8570   -0.5410 os        1 NSI     -0.322900
     40 C28         6.3220    3.3140   -1.6190 c3        1 NSI      0.112700
     41 H55         5.6050   -1.3500    0.2620 ha        1 NSI      0.164500
     42 H56         6.4120   -2.1910   -1.9430 ha        1 NSI      0.142500
     43 H53         4.9850   -3.7360   -3.2910 ha        1 NSI      0.138000
     44 H57         2.7440   -4.4310   -2.4280 ha        1 NSI      0.142500
     45 H54         1.9310   -3.5750   -0.2290 ha        1 NSI      0.164500
     46 HN17        2.4370    0.2840    1.5540 hn        1 NSI      0.352500
     47 H121       -1.4840   -1.5610    1.5650 h1        1 NSI      0.082200
     48 H122       -2.8080   -0.4740    2.2260 h1        1 NSI      0.082200
     49 H37        -1.3960   -1.8390   -1.0180 ha        1 NSI      0.168000
     50 H38        -2.8670   -2.5450   -2.9160 ha        1 NSI      0.144000
     51 H36        -4.8800   -0.4320    1.1400 ha        1 NSI      0.148000
     52 H35        -5.3420   -2.2040   -2.7770 ha        1 NSI      0.152000
     53 H2         -3.9500    1.6450    1.4890 ha        1 NSI      0.137000
     54 H5         -4.2640    4.1180    1.3650 ha        1 NSI      0.136000
     55 H4         -2.3670    5.6270    0.8790 ha        1 NSI      0.135000
     56 H1         -0.0630    4.7180    0.5050 ha        1 NSI      0.141000
     57 H20         1.7780    3.8000    1.8940 ha        1 NSI      0.142500
     58 H21         4.0560    4.6790    1.3330 ha        1 NSI      0.148000
     59 H19         2.0920    0.9310   -1.3290 ha        1 NSI      0.142500
     60 H22         4.3420    1.7950   -1.9010 ha        1 NSI      0.148000
     61 H281        7.2630    3.9210   -1.6090 h1        1 NSI      0.046367
     62 H282        6.5480    2.2350   -1.4400 h1        1 NSI      0.046367
     63 H283        5.7780    3.4460   -2.5860 h1        1 NSI      0.046367
@<TRIPOS>BOND
     1    1    2 2   
     2    2    3 2   
     3    2    4 1   
     4    2   10 1   
     5    4    5 ar  
     6    4    9 ar  
     7    5    6 ar  
     8    5   41 1   
     9    6    7 ar  
    10    6   42 1   
    11    7    8 ar  
    12    7   43 1   
    13    8    9 ar  
    14    8   44 1   
    15    9   45 1   
    16   10   11 1   
    17   10   46 1   
    18   11   12 2   
    19   11   13 1   
    20   13   14 1   
    21   13   31 2   
    22   14   15 1   
    23   14   26 1   
    24   15   16 1   
    25   15   47 1   
    26   15   48 1   
    27   16   17 ar  
    28   16   19 ar  
    29   17   18 ar  
    30   17   49 1   
    31   18   25 ar  
    32   18   50 1   
    33   19   20 ar  
    34   19   51 1   
    35   20   21 1   
    36   20   25 ar  
    37   21   22 1   
    38   21   23 1   
    39   21   24 1   
    40   25   52 1   
    41   26   27 ar  
    42   26   32 ar  
    43   27   28 ar  
    44   27   53 1   
    45   28   29 ar  
    46   28   54 1   
    47   29   30 ar  
    48   29   55 1   
    49   30   32 ar  
    50   30   56 1   
    51   31   32 1   
    52   31   33 1   
    53   33   34 ar  
    54   33   36 ar  
    55   34   35 ar  
    56   34   57 1   
    57   35   38 ar  
    58   35   58 1   
    59   36   37 ar  
    60   36   59 1   
    61   37   38 ar  
    62   37   60 1   
    63   38   39 1   
    64   39   40 1   
    65   40   61 1   
    66   40   62 1   
    67   40   63 1   
@<TRIPOS>SUBSTRUCTURE
     1 NSI         1 TEMP              0 ****  ****    0 ROOT
