@<TRIPOS>MOLECULE
NSI
   63    54     1     0     0
SMALL
bcc


@<TRIPOS>ATOM
      1 O52        -1.2050   -3.5130    2.1670 o         1 NSI     -0.916500
      2 S48        -1.6090   -2.1260    2.1710 ss        1 NSI      2.862000
      3 O50        -2.6450   -2.1360    1.1850 o         1 NSI     -0.916500
      4 C51        -2.2470   -1.6350    3.7850 c1        1 NSI     -0.846000
      5 C55        -1.9370   -2.3870    4.9140 c2        1 NSI     -0.012000
      6 C56        -2.3950   -1.9860    6.1630 c1        1 NSI     -0.156000
      7 C53        -3.1600   -0.8390    6.2840 c1        1 NSI     -0.121875
      8 C57        -3.4700   -0.0870    5.1570 c1        1 NSI     -0.121875
      9 C54        -3.0110   -0.4880    3.9070 c1        1 NSI     -0.013000
     10 N17        -0.3520   -1.1280    1.7180 n2        1 NSI     -0.844000
     11 C15         0.1950   -1.2140    0.3760 c2        1 NSI      0.399000
     12 O16         0.1330   -2.2640   -0.2430 o         1 NSI     -0.343000
     13 C13         0.8580    0.0240   -0.2680 c2        1 NSI     -0.082000
     14 N10         0.4760    1.3340   -0.1150 n2        1 NSI     -0.134000
     15 C12        -0.6130    2.0190    0.5530 c2        1 NSI      0.019000
     16 C34        -1.8340    2.0870   -0.3900 c2        1 NSI     -0.115000
     17 C37        -1.6670    1.8980   -1.7520 c2        1 NSI     -0.071000
     18 C38        -2.7500    2.0650   -2.6190 c1        1 NSI     -0.137000
     19 C36        -3.0820    2.4450    0.1150 c1        1 NSI     -0.069000
     20 C39        -4.1630    2.6110   -0.7520 c1        1 NSI     -0.168000
     21 C43        -5.5410    3.0110   -0.1960 c3        1 NSI      0.467000
     22 F47        -6.4780    2.7960   -1.1300 f         1 NSI     -0.167000
     23 F46        -5.8150    2.2750    0.8890 f         1 NSI     -0.167000
     24 F45        -5.5300    4.3130    0.1360 f         1 NSI     -0.167000
     25 C35        -3.9950    2.4210   -2.1150 c1        1 NSI     -0.071000
     26 C6          1.3540    2.1280   -0.8490 c1        1 NSI      0.023000
     27 C2          1.3570    3.5050   -1.1310 c1        1 NSI     -0.121875
     28 C5          2.2900    4.0320   -2.0180 c1        1 NSI     -0.121875
     29 C4          3.2220    3.1950   -2.6290 c1        1 NSI     -0.121875
     30 C1          3.2210    1.8340   -2.3520 c1        1 NSI     -0.121875
     31 C7          1.9750   -0.0050   -1.0970 c2        1 NSI     -0.044000
     32 C3          2.2760    1.2990   -1.4530 c1        1 NSI     -0.090000
     33 C14         2.7950   -1.0510   -1.5680 c1        1 NSI     -0.073000
     34 C20         2.3720   -1.8420   -2.6240 c1        1 NSI     -0.121875
     35 C21         3.2080   -2.8310   -3.1310 c1        1 NSI     -0.121875
     36 C19         4.0540   -1.2460   -1.0150 c1        1 NSI     -0.088000
     37 C22         4.8890   -2.2340   -1.5200 c1        1 NSI     -0.160000
     38 C18         4.4660   -3.0260   -2.5780 c1        1 NSI      0.084000
     39 O27         5.3410   -3.9830   -3.1350 os        1 NSI     -0.210000
     40 C28         5.1780   -5.2880   -2.6050 c3        1 NSI     -0.078000
     41 H55        -1.3990   -3.1950    4.8290 ha        1 NSI      0.156000
     42 H56        -2.1780   -2.5130    6.9530 ha        1 NSI      0.145000
     43 H53        -3.4820   -0.5570    7.1630 ha        1 NSI      0.140625
     44 H57        -4.0100    0.7230    5.2430 ha        1 NSI      0.140625
     45 H54        -3.2270    0.0350    3.1230 ha        1 NSI      0.157000
     46 HN17        0.0160   -0.5560    2.3240 hn        1 NSI      0.261000
     47 H121       -0.3330    2.9260    0.7880 ha        1 NSI      0.120500
     48 H122       -0.8540    1.5330    1.3640 ha        1 NSI      0.120500
     49 H37        -0.7920    1.6480   -2.1070 ha        1 NSI      0.173000
     50 H38        -2.6330    1.9310   -3.5800 ha        1 NSI      0.147000
     51 H36        -3.2150    2.5170    1.0800 ha        1 NSI      0.146000
     52 H35        -4.7520    2.5380   -2.7210 ha        1 NSI      0.152000
     53 H2          0.7030    4.0920   -0.7030 ha        1 NSI      0.140625
     54 H5          2.2910    4.9980   -2.2150 ha        1 NSI      0.140625
     55 H4          3.8820    3.5690   -3.2570 ha        1 NSI      0.140625
     56 H1          3.8730    1.2490   -2.7790 ha        1 NSI      0.140625
     57 H20         1.4880   -1.7050   -3.0120 ha        1 NSI      0.140625
     58 H21         2.9110   -3.3870   -3.8730 ha        1 NSI      0.140625
     59 H19         4.3520   -0.6900   -0.2730 ha        1 NSI      0.144000
     60 H22         5.7750   -2.3710   -1.1310 ha        1 NSI      0.153000
     61 H281        5.1780   -5.2450   -1.6260 h1        1 NSI      0.086000
     62 H282        5.9190   -5.8610   -2.9090 h1        1 NSI      0.086000
     63 H283        4.3250   -5.6640   -2.9160 h1        1 NSI      0.086000
@<TRIPOS>BOND
     1    1    2 1   
     2    2    3 1   
     3    4    5 1   
     4    4    9 1   
     5    5    6 1   
     6    5   41 1   
     7    6   42 1   
     8    7    8 1   
     9    7   43 1   
    10    8   44 1   
    11    9   45 1   
    12   10   11 1   
    13   10   46 1   
    14   11   12 1   
    15   11   13 1   
    16   13   14 1   
    17   13   31 1   
    18   14   26 1   
    19   15   16 1   
    20   15   47 1   
    21   15   48 1   
    22   16   17 1   
    23   16   19 1   
    24   17   18 1   
    25   17   49 1   
    26   18   50 1   
    27   19   51 1   
    28   20   21 1   
    29   20   25 1   
    30   21   22 1   
    31   21   23 1   
    32   21   24 1   
    33   25   52 1   
    34   26   32 1   
    35   27   28 1   
    36   27   53 1   
    37   28   54 1   
    38   29   30 1   
    39   29   55 1   
    40   30   56 1   
    41   31   32 1   
    42   31   33 1   
    43   33   36 1   
    44   34   35 1   
    45   34   57 1   
    46   35   58 1   
    47   36   59 1   
    48   37   38 1   
    49   37   60 1   
    50   38   39 1   
    51   39   40 1   
    52   40   61 1   
    53   40   62 1   
    54   40   63 1   
@<TRIPOS>SUBSTRUCTURE
     1 NSI         1 TEMP              0 ****  ****    0 ROOT
