@<TRIPOS>MOLECULE
NSI
   64    68     1     0     0
SMALL
bcc


@<TRIPOS>ATOM
      1 O52         2.5630    0.8180    0.2090 o         1 NSI     -0.569300
      2 S48         3.0430   -0.1530   -0.6410 sy        1 NSI      1.487200
      3 O50         4.3770   -0.1870   -0.9970 o         1 NSI     -0.569300
      4 C51         2.3530   -1.5950   -0.5070 ca        1 NSI     -0.541500
      5 C55         3.0760   -2.7770   -0.7850 ca        1 NSI      0.013500
      6 C56         2.5070   -4.0270   -0.5880 ca        1 NSI     -0.149500
      7 C53         1.1980   -4.1320   -0.1080 ca        1 NSI      0.001000
      8 C57         0.4600   -2.9770    0.1670 ca        1 NSI     -0.149500
      9 C54         1.0300   -1.7270   -0.0300 ca        1 NSI      0.013500
     10 N17         2.2570    0.3450   -2.3300 n4        1 NSI     -0.605700
     11 C15         1.2220    1.4130   -2.2290 c         1 NSI      0.609300
     12 O16         0.1900    1.0690   -1.6440 o         1 NSI     -0.508100
     13 C13         1.5490    2.7070   -2.7840 cc        1 NSI     -0.207300
     14 N10         0.9020    3.8920   -2.3520 na        1 NSI     -0.021400
     15 C12        -0.2690    3.9760   -1.5140 c3        1 NSI      0.081600
     16 C34        -1.5820    3.8530   -2.2340 ca        1 NSI     -0.137300
     17 C37        -2.4430    2.7920   -1.9350 ca        1 NSI     -0.080000
     18 C38        -3.6910    2.7060   -2.5510 ca        1 NSI     -0.135000
     19 C36        -1.9700    4.8180   -3.1670 ca        1 NSI     -0.067000
     20 C39        -3.2160    4.7190   -3.7880 ca        1 NSI     -0.166300
     21 C43        -3.6200    5.7620   -4.8250 c3        1 NSI      0.688200
     22 F47        -4.9740    5.9520   -4.9430 f         1 NSI     -0.230967
     23 F46        -3.1160    7.0180   -4.5900 f         1 NSI     -0.230967
     24 F45        -3.2050    5.4650   -6.1010 f         1 NSI     -0.230967
     25 C35        -4.0830    3.6690   -3.4800 ca        1 NSI     -0.062000
     26 C6          1.4600    4.9570   -3.0540 ca        1 NSI      0.008800
     27 C2          1.1930    6.3440   -2.9860 ca        1 NSI     -0.163000
     28 C5          1.9320    7.1820   -3.7950 ca        1 NSI     -0.058000
     29 C4          2.9310    6.6900   -4.6700 ca        1 NSI     -0.147000
     30 C1          3.2130    5.3440   -4.7470 ca        1 NSI     -0.055000
     31 C7          2.5280    3.0310   -3.7590 cd        1 NSI      0.058600
     32 C3          2.4880    4.4510   -3.9380 ca        1 NSI     -0.118800
     33 C14         3.3890    2.1250   -4.4930 ca        1 NSI     -0.168800
     34 C20         4.7420    1.9800   -4.1330 ca        1 NSI     -0.083000
     35 C21         5.5840    1.1590   -4.8670 ca        1 NSI     -0.186000
     36 C19         2.9020    1.4520   -5.6220 ca        1 NSI     -0.083000
     37 C22         3.7360    0.6280   -6.3730 ca        1 NSI     -0.186000
     38 C18         5.0790    0.4800   -5.9970 ca        1 NSI      0.156100
     39 O27         5.9880   -0.3160   -6.6490 os        1 NSI     -0.312900
     40 C28         5.5710   -0.8780   -7.8920 c3        1 NSI      0.107700
     41 H55         4.1180   -2.6990   -1.1500 ha        1 NSI      0.172000
     42 H56         3.0910   -4.9380   -0.8030 ha        1 NSI      0.173500
     43 H53         0.7480   -5.1270    0.0550 ha        1 NSI      0.170000
     44 H57        -0.5730   -3.0580    0.5470 ha        1 NSI      0.173500
     45 H54         0.4440   -0.8130    0.1890 ha        1 NSI      0.172000
     46 HN17        3.0100    0.6450   -2.9600 hn        1 NSI      0.464800
     47 H121       -0.2340    4.9810   -0.9970 h1        1 NSI      0.087200
     48 H122       -0.1920    3.1710   -0.7260 h1        1 NSI      0.087200
     49 H37        -2.1300    2.0200   -1.2130 ha        1 NSI      0.145000
     50 H38        -4.3720    1.8770   -2.3030 ha        1 NSI      0.151000
     51 H36        -1.3000    5.6590   -3.4130 ha        1 NSI      0.156000
     52 H35        -5.0710    3.6090   -3.9670 ha        1 NSI      0.163000
     53 H2          0.4260    6.7390   -2.3050 ha        1 NSI      0.152000
     54 H5          1.7440    8.2690   -3.7660 ha        1 NSI      0.155000
     55 H4          3.4850    7.4090   -5.2950 ha        1 NSI      0.154000
     56 H1          3.9920    4.9570   -5.4220 ha        1 NSI      0.153000
     57 H20         5.1420    2.5360   -3.2700 ha        1 NSI      0.152500
     58 H21         6.6440    1.0390   -4.5950 ha        1 NSI      0.164500
     59 H19         1.8550    1.5940   -5.9350 ha        1 NSI      0.152500
     60 H22         3.3400    0.1190   -7.2640 ha        1 NSI      0.164500
     61 H281        4.7440   -1.6110   -7.7290 h1        1 NSI      0.056700
     62 H282        5.2570   -0.0770   -8.6030 h1        1 NSI      0.056700
     63 H283        6.4940   -1.3970   -8.2580 h1        1 NSI      0.056700
     64 H172        1.8180   -0.4760   -2.7440 hn        1 NSI      0.464800
@<TRIPOS>BOND
     1    1    2 2   
     2    2    3 2   
     3    2    4 1   
     4    2   10 1   
     5    4    5 ar  
     6    4    9 ar  
     7    5    6 ar  
     8    5   41 1   
     9    6    7 ar  
    10    6   42 1   
    11    7    8 ar  
    12    7   43 1   
    13    8    9 ar  
    14    8   44 1   
    15    9   45 1   
    16   10   11 1   
    17   10   46 1   
    18   10   64 1   
    19   11   12 2   
    20   11   13 1   
    21   13   14 1   
    22   13   31 2   
    23   14   15 1   
    24   14   26 1   
    25   15   16 1   
    26   15   47 1   
    27   15   48 1   
    28   16   17 ar  
    29   16   19 ar  
    30   17   18 ar  
    31   17   49 1   
    32   18   25 ar  
    33   18   50 1   
    34   19   20 ar  
    35   19   51 1   
    36   20   21 1   
    37   20   25 ar  
    38   21   22 1   
    39   21   23 1   
    40   21   24 1   
    41   25   52 1   
    42   26   27 ar  
    43   26   32 ar  
    44   27   28 ar  
    45   27   53 1   
    46   28   29 ar  
    47   28   54 1   
    48   29   30 ar  
    49   29   55 1   
    50   30   32 ar  
    51   30   56 1   
    52   31   32 1   
    53   31   33 1   
    54   33   34 ar  
    55   33   36 ar  
    56   34   35 ar  
    57   34   57 1   
    58   35   38 ar  
    59   35   58 1   
    60   36   37 ar  
    61   36   59 1   
    62   37   38 ar  
    63   37   60 1   
    64   38   39 1   
    65   39   40 1   
    66   40   61 1   
    67   40   62 1   
    68   40   63 1   
@<TRIPOS>SUBSTRUCTURE
     1 NSI         1 TEMP              0 ****  ****    0 ROOT
