@<TRIPOS>MOLECULE
NSK
   33    32     1     0     0
SMALL
bcc


@<TRIPOS>ATOM
      1 O1         -4.5750    5.7160   -0.2630 o         1 NSK     -0.866300
      2 O2         -5.0720    3.6070   -0.7700 o         1 NSK     -0.866300
      3 C1         -4.2320    4.5270   -0.5420 c         1 NSK      0.903600
      4 C2         -2.7320    4.2010   -0.5690 c3        1 NSK     -0.178400
      5 C3         -2.3890    3.2040   -1.6480 c3        1 NSK     -0.133400
      6 O3         -0.2590    2.8850   -0.5160 o         1 NSK     -0.675100
      7 C4         -0.9790    2.6500   -1.5160 c         1 NSK      0.643100
      8 N1         -0.5440    1.8180   -2.5250 n         1 NSK     -0.547900
      9 C5          0.8050    1.3150   -2.6360 c3        1 NSK     -0.025300
     10 C6          1.2780    1.1810   -4.1270 c         1 NSK      0.907600
     11 O4          0.4230    1.2110   -5.0570 o         1 NSK     -0.847300
     12 C7          1.0000   -0.0630   -1.9830 c3        1 NSK     -0.071400
     13 C8          1.1050    0.0250   -0.4760 c3        1 NSK     -0.083400
     14 C9          1.1400   -1.3510    0.1510 c3        1 NSK     -0.111400
     15 C10         1.3670   -1.2600    1.6590 c3        1 NSK      0.135800
     16 N2          1.3740   -2.5140    2.3780 n3        1 NSK     -0.907800
     17 O5          2.5190    1.0350   -4.3110 o         1 NSK     -0.847300
     18 H21        -2.1490    5.1440   -0.7140 hc        1 NSK      0.034700
     19 H22        -2.4510    3.7840    0.4330 hc        1 NSK      0.034700
     20 H31        -2.5070    3.6860   -2.6540 hc        1 NSK      0.062200
     21 H32        -3.1220    2.3530   -1.5940 hc        1 NSK      0.062200
     22 HN1        -1.0700    1.7710   -3.3710 hn        1 NSK      0.320500
     23 H5          1.5040    2.0410   -2.1260 h1        1 NSK      0.055700
     24 H71         0.1600   -0.7480   -2.2670 hc        1 NSK      0.038200
     25 H72         1.9480   -0.4970   -2.4000 hc        1 NSK      0.038200
     26 H81         0.2400    0.6140   -0.0680 hc        1 NSK      0.055200
     27 H82         2.0360    0.5890   -0.2020 hc        1 NSK      0.055200
     28 H91         1.9580   -1.9590   -0.3200 hc        1 NSK      0.025700
     29 H92         0.1720   -1.8790   -0.0580 hc        1 NSK      0.025700
     30 H101        2.3570   -0.7560    1.8450 h1        1 NSK      0.053700
     31 H102        0.5670   -0.6060    2.1070 h1        1 NSK      0.053700
     32 HN21        2.0480   -3.1380    1.9750 hn        1 NSK      0.328300
     33 HN22        0.4750   -2.9540    2.3100 hn        1 NSK      0.328300
@<TRIPOS>BOND
     1    1    3 1   
     2    2    3 1   
     3    3    4 1   
     4    4    5 1   
     5    4   18 1   
     6    4   19 1   
     7    5    7 1   
     8    5   20 1   
     9    5   21 1   
    10    6    7 2   
    11    7    8 1   
    12    8    9 1   
    13    8   22 1   
    14    9   10 1   
    15    9   12 1   
    16    9   23 1   
    17   10   11 1   
    18   10   17 1   
    19   12   13 1   
    20   12   24 1   
    21   12   25 1   
    22   13   14 1   
    23   13   26 1   
    24   13   27 1   
    25   14   15 1   
    26   14   28 1   
    27   14   29 1   
    28   15   16 1   
    29   15   30 1   
    30   15   31 1   
    31   16   32 1   
    32   16   33 1   
@<TRIPOS>SUBSTRUCTURE
     1 NSK         1 TEMP              0 ****  ****    0 ROOT
