@<TRIPOS>MOLECULE
NSK
   33    32     1     0     0
SMALL
bcc


@<TRIPOS>ATOM
      1 O1         -0.7520   -2.8810   -6.0850 o         1 NSK     -0.866300
      2 O2         -1.9250   -1.1210   -6.5740 o         1 NSK     -0.866300
      3 C1         -1.4820   -1.9290   -5.7230 c         1 NSK      0.903600
      4 C2         -1.7830   -1.7250   -4.2620 c3        1 NSK     -0.179400
      5 C3         -0.7300   -0.8130   -3.6490 c3        1 NSK     -0.132400
      6 O3         -2.2450   -0.7480   -1.8180 o         1 NSK     -0.673100
      7 C4         -1.1160   -0.4870   -2.2220 c         1 NSK      0.643100
      8 N1         -0.1600    0.1080   -1.3400 n         1 NSK     -0.550900
      9 C5         -0.5500    0.4940   -0.0190 c3        1 NSK     -0.015300
     10 C6         -1.3750    1.7510   -0.0870 c         1 NSK      0.910600
     11 O4         -2.5900    1.7360    0.2920 o         1 NSK     -0.847800
     12 C7          0.6950    0.7470    0.8300 c3        1 NSK     -0.079400
     13 C8          0.3800    0.4180    2.3270 c3        1 NSK     -0.085400
     14 C9          1.6690    0.6150    3.1860 c3        1 NSK     -0.110400
     15 C10         1.3580    0.2960    4.6750 c3        1 NSK      0.136800
     16 N2          2.5560    0.4940    5.4710 n3        1 NSK     -0.908800
     17 O5         -0.8820    2.8020   -0.5830 o         1 NSK     -0.847800
     18 H21        -2.6620   -1.3170   -4.1660 hc        1 NSK      0.035200
     19 H22        -1.7730   -2.5870   -3.8050 hc        1 NSK      0.035200
     20 H31        -0.6730    0.0020   -4.1610 hc        1 NSK      0.060700
     21 H32         0.1380   -1.2650   -3.6570 hc        1 NSK      0.060700
     22 HN1         0.7050    0.2040   -1.6040 hn        1 NSK      0.321500
     23 H5         -1.0740   -0.2140    0.3810 h1        1 NSK      0.051700
     24 H71         0.9600    1.6890    0.7500 hc        1 NSK      0.033700
     25 H72         1.4260    0.1740    0.5160 hc        1 NSK      0.033700
     26 H81        -0.3180    1.0130    2.6490 hc        1 NSK      0.061700
     27 H82         0.0790   -0.5070    2.3990 hc        1 NSK      0.061700
     28 H91         1.9770    1.5500    3.1070 hc        1 NSK      0.027700
     29 H92         2.3670    0.0150    2.8650 hc        1 NSK      0.027700
     30 H101        1.0640   -0.6280    4.7550 h1        1 NSK      0.050700
     31 H102        0.6500    0.8930    4.9960 h1        1 NSK      0.050700
     32 HN21        3.1930   -0.1170    5.2220 hn        1 NSK      0.328800
     33 HN22        2.8760    1.3400    5.3340 hn        1 NSK      0.328800
@<TRIPOS>BOND
     1    1    3 1   
     2    2    3 1   
     3    3    4 1   
     4    4    5 1   
     5    4   18 1   
     6    4   19 1   
     7    5    7 1   
     8    5   20 1   
     9    5   21 1   
    10    6    7 2   
    11    7    8 1   
    12    8    9 1   
    13    8   22 1   
    14    9   10 1   
    15    9   12 1   
    16    9   23 1   
    17   10   11 1   
    18   10   17 1   
    19   12   13 1   
    20   12   24 1   
    21   12   25 1   
    22   13   14 1   
    23   13   26 1   
    24   13   27 1   
    25   14   15 1   
    26   14   28 1   
    27   14   29 1   
    28   15   16 1   
    29   15   30 1   
    30   15   31 1   
    31   16   32 1   
    32   16   33 1   
@<TRIPOS>SUBSTRUCTURE
     1 NSK         1 TEMP              0 ****  ****    0 ROOT
