@<TRIPOS>MOLECULE
NSM
    6     5     1     0     0
SMALL
bcc


@<TRIPOS>ATOM
      1 O1          0.0980   -0.3010   -0.1160 o         1 NSM     -0.138700
      2 N           1.1220    0.2080    0.0640 n2        1 NSM     -0.063800
      3 C1          1.7830    0.0400    1.3610 c3        1 NSM     -0.013600
      4 H11         2.7850   -0.4200    1.1640 h1        1 NSM      0.072033
      5 H12         1.2220   -0.5910    2.0960 h1        1 NSM      0.072033
      6 H13         1.9360    1.0640    1.7890 h1        1 NSM      0.072033
@<TRIPOS>BOND
     1    1    2 2   
     2    2    3 1   
     3    3    4 1   
     4    3    5 1   
     5    3    6 1   
@<TRIPOS>SUBSTRUCTURE
     1 NSM         1 TEMP              0 ****  ****    0 ROOT
