@<TRIPOS>MOLECULE
NSM
    6     5     1     0     0
SMALL
bcc


@<TRIPOS>ATOM
      1 O1          0.1210   -0.4040   -0.1130 o         1 NSM     -0.138700
      2 N           1.1570    0.0920    0.0340 n2        1 NSM     -0.063800
      3 C1          1.7760    0.0690    1.3630 c3        1 NSM     -0.013600
      4 H11         2.7670   -0.4440    1.2560 h1        1 NSM      0.072033
      5 H12         1.9530    1.1330    1.6630 h1        1 NSM      0.072033
      6 H13         1.1730   -0.4470    2.1530 h1        1 NSM      0.072033
@<TRIPOS>BOND
     1    1    2 2   
     2    2    3 1   
     3    3    4 1   
     4    3    5 1   
     5    3    6 1   
@<TRIPOS>SUBSTRUCTURE
     1 NSM         1 TEMP              0 ****  ****    0 ROOT
