@<TRIPOS>MOLECULE
NSM
    6     4     1     0     0
SMALL
bcc


@<TRIPOS>ATOM
      1 O1         -1.5750    0.0000   -0.9630 o         1 NSM     -0.193000
      2 N          -0.3520    0.0000   -0.9630 n1        1 NSM      0.173000
      3 C1          0.3600    0.0000    0.2700 c2        1 NSM     -0.314000
      4 H11         0.1240   -0.7970    0.7820 ha        1 NSM      0.111333
      5 H12         0.1240    0.7970    0.7820 ha        1 NSM      0.111333
      6 H13         1.3190    0.0000    0.0920 ha        1 NSM      0.111333
@<TRIPOS>BOND
     1    1    2 1   
     2    3    4 1   
     3    3    5 1   
     4    3    6 1   
@<TRIPOS>SUBSTRUCTURE
     1 NSM         1 TEMP              0 ****  ****    0 ROOT
