@<TRIPOS>MOLECULE
NSM
    6     5     1     0     0
SMALL
bcc


@<TRIPOS>ATOM
      1 O1         -1.3430    2.4700    0.6270 o         1 NSM     -0.138700
      2 N          -0.4840    1.9470    0.0530 n2        1 NSM     -0.063800
      3 C1          0.1980    0.8080    0.6750 c3        1 NSM     -0.013600
      4 H11         1.2850    1.0710    0.7440 h1        1 NSM      0.072033
      5 H12         0.0840   -0.0640   -0.0190 h1        1 NSM      0.072033
      6 H13        -0.1830    0.5290    1.6900 h1        1 NSM      0.072033
@<TRIPOS>BOND
     1    1    2 2   
     2    2    3 1   
     3    3    4 1   
     4    3    5 1   
     5    3    6 1   
@<TRIPOS>SUBSTRUCTURE
     1 NSM         1 TEMP              0 ****  ****    0 ROOT
