@<TRIPOS>MOLECULE
NSM
    6     5     1     0     0
SMALL
bcc


@<TRIPOS>ATOM
      1 O1          0.1740   -0.3330   -0.1930 o         1 NSM     -0.138700
      2 N           1.0740    0.3270    0.1160 n2        1 NSM     -0.063800
      3 C1          1.7720    0.0360    1.3710 c3        1 NSM     -0.013600
      4 H11         2.8450   -0.1600    1.1140 h1        1 NSM      0.072033
      5 H12         1.7180    0.9610    2.0010 h1        1 NSM      0.072033
      6 H13         1.3620   -0.8320    1.9480 h1        1 NSM      0.072033
@<TRIPOS>BOND
     1    1    2 2   
     2    2    3 1   
     3    3    4 1   
     4    3    5 1   
     5    3    6 1   
@<TRIPOS>SUBSTRUCTURE
     1 NSM         1 TEMP              0 ****  ****    0 ROOT
