@<TRIPOS>MOLECULE
NSN
   25    23     1     0     0
SMALL
bcc


@<TRIPOS>ATOM
      1 C1         -1.5030   -0.0700    1.5300 c3        1 NSN     -0.250400
      2 C2          0.0490   -0.0660    1.5410 ce        1 NSN      0.564300
      3 C3          0.8120   -0.0700    2.8810 c         1 NSN      0.534800
      4 O1          1.2410   -1.1350    3.3470 o         1 NSN     -0.548100
      5 N1          0.7210   -0.0570    0.3920 n2        1 NSN     -0.616100
      6 C4          0.0110   -0.0520   -0.8500 c2        1 NSN     -0.054200
      7 C5          0.2850    1.2330   -1.5760 c3        1 NSN     -0.247200
      8 C6         -0.2550    1.1270   -3.0440 c         1 NSN      0.919600
      9 O2          0.5320    0.8050   -3.9830 o         1 NSN     -0.798300
     10 O3         -1.5200    1.2280   -3.2730 o         1 NSN     -0.798300
     11 C7          0.4620   -1.2230   -1.6990 c2        1 NSN      0.629300
     12 N2         -0.4440   -2.3140   -1.9550 n         1 NSN     -0.628000
     13 O4          1.6170   -1.2800   -2.1010 o         1 NSN     -0.678300
     14 N3          1.0180    1.1530    3.5890 n         1 NSN     -0.640000
     15 H11        -1.8360   -0.1160    2.4450 hc        1 NSN      0.132033
     16 H12        -1.8210   -0.8450    1.0280 hc        1 NSN      0.132033
     17 H13        -1.8250    0.7440    1.1090 hc        1 NSN      0.132033
     18 HN1         1.6460   -0.0540    0.3970 hn        1 NSN      0.543400
     19 H4         -0.9710   -0.1310   -0.6720 ha        1 NSN      0.163000
     20 H51        -0.1670    1.9700   -1.1130 hc        1 NSN      0.063200
     21 H52         1.2690    1.4040   -1.5930 hc        1 NSN      0.063200
     22 HN21       -1.3370   -2.2190   -1.7730 hn        1 NSN      0.351500
     23 HN22       -0.1200   -3.1200   -2.2930 hn        1 NSN      0.351500
     24 HN31        0.7420    1.9480    3.2210 hn        1 NSN      0.339000
     25 HN32        1.3910    1.1400    4.4430 hn        1 NSN      0.339000
@<TRIPOS>BOND
     1    1    2 1   
     2    1   15 1   
     3    1   16 1   
     4    1   17 1   
     5    2    3 1   
     6    2    5 2   
     7    3    4 2   
     8    3   14 1   
     9    5   18 1   
    10    6    7 1   
    11    6   11 2   
    12    6   19 1   
    13    7    8 1   
    14    7   20 1   
    15    7   21 1   
    16    8    9 1   
    17    8   10 1   
    18   11   12 1   
    19   11   13 1   
    20   12   22 1   
    21   12   23 1   
    22   14   24 1   
    23   14   25 1   
@<TRIPOS>SUBSTRUCTURE
     1 NSN         1 TEMP              0 ****  ****    0 ROOT
