@<TRIPOS>MOLECULE
NSN
   25    25     1     0     0
SMALL
bcc


@<TRIPOS>ATOM
      1 C1          0.0490    4.0640    2.0150 c3        1 NSN     -0.095100
      2 C2         -0.5520    2.6490    2.0840 c3        1 NSN      0.337000
      3 C3         -1.3470    2.5140    3.4340 c         1 NSN      0.648100
      4 O1         -2.5760    2.3110    3.4430 o         1 NSN     -0.602100
      5 N1         -1.4180    2.3700    0.9470 n3        1 NSN     -0.834200
      6 C4         -0.7100    1.9180   -0.2350 c3        1 NSN      0.106500
      7 C5          0.1980    0.7130    0.0210 c3        1 NSN     -0.193400
      8 C6          0.9750    0.8760    1.2830 c         1 NSN      0.726600
      9 O2          0.5800    1.7480    2.2670 os        1 NSN     -0.469900
     10 O3          1.9960    0.2680    1.6010 o         1 NSN     -0.568500
     11 C7         -1.6630    1.5810   -1.4010 c         1 NSN      0.657100
     12 N2         -2.6600    2.4660   -1.6980 n         1 NSN     -0.655000
     13 O4         -1.4850    0.5520   -2.0830 o         1 NSN     -0.608100
     14 N3         -0.6380    2.6820    4.5920 n         1 NSN     -0.638000
     15 H11         0.5060    4.2540    1.0160 hc        1 NSN      0.060367
     16 H12         0.8460    4.1650    2.7910 hc        1 NSN      0.060367
     17 H13        -0.7530    4.8170    2.2010 hc        1 NSN      0.060367
     18 HN1        -2.1670    1.7520    1.2050 hn        1 NSN      0.407800
     19 H4         -0.0640    2.7810   -0.5870 h1        1 NSN      0.088700
     20 H51         0.9030    0.5770   -0.8430 hc        1 NSN      0.111700
     21 H52        -0.4090   -0.2320    0.0920 hc        1 NSN      0.111700
     22 HN21       -3.2870    2.2580   -2.4370 hn        1 NSN      0.323000
     23 HN22       -2.8440    3.2480   -1.1220 hn        1 NSN      0.323000
     24 HN31       -1.0940    2.5170    5.4570 hn        1 NSN      0.320500
     25 HN32        0.3520    2.6390    4.5650 hn        1 NSN      0.320500
@<TRIPOS>BOND
     1    1    2 1   
     2    1   15 1   
     3    1   16 1   
     4    1   17 1   
     5    2    3 1   
     6    2    5 1   
     7    2    9 1   
     8    3    4 2   
     9    3   14 1   
    10    5    6 1   
    11    5   18 1   
    12    6    7 1   
    13    6   11 1   
    14    6   19 1   
    15    7    8 1   
    16    7   20 1   
    17    7   21 1   
    18    8    9 1   
    19    8   10 2   
    20   11   12 1   
    21   11   13 2   
    22   12   22 1   
    23   12   23 1   
    24   14   24 1   
    25   14   25 1   
@<TRIPOS>SUBSTRUCTURE
     1 NSN         1 TEMP              0 ****  ****    0 ROOT
