@<TRIPOS>MOLECULE
NSN
   25    25     1     0     0
SMALL
bcc


@<TRIPOS>ATOM
      1 C1          0.0590    0.9820   -0.0800 c3        1 NSN     -0.095100
      2 C2          1.4970    0.5720   -0.4450 c3        1 NSN      0.337000
      3 C3          2.2700    0.2420    0.8840 c         1 NSN      0.648100
      4 O1          2.7160   -0.8990    1.1070 o         1 NSN     -0.602100
      5 N1          1.5240   -0.5660   -1.3530 n3        1 NSN     -0.834200
      6 C4          1.3640   -0.2100   -2.7490 c3        1 NSN      0.106500
      7 C5          2.3630    0.8470   -3.2280 c3        1 NSN     -0.193400
      8 C6          2.5030    1.9500   -2.2350 c         1 NSN      0.726600
      9 O2          2.1460    1.7890   -0.9200 os        1 NSN     -0.469900
     10 O3          2.9580    3.0750   -2.4460 o         1 NSN     -0.568500
     11 C7          1.4530   -1.4350   -3.6840 c         1 NSN      0.657100
     12 N2          0.7500   -2.5570   -3.3500 n         1 NSN     -0.655000
     13 O4          2.1080   -1.3720   -4.7440 o         1 NSN     -0.608100
     14 N3          2.3830    1.2500    1.8020 n         1 NSN     -0.638000
     15 H11        -0.5680    1.0920   -0.9970 hc        1 NSN      0.060367
     16 H12        -0.3910    0.2040    0.5810 hc        1 NSN      0.060367
     17 H13         0.0790    1.9620    0.4520 hc        1 NSN      0.060367
     18 HN1         2.3370   -1.1370   -1.1930 hn        1 NSN      0.407800
     19 H4          0.3180    0.2100   -2.8680 h1        1 NSN      0.088700
     20 H51         3.3750    0.3860   -3.3990 hc        1 NSN      0.111700
     21 H52         2.0290    1.2650   -4.2150 hc        1 NSN      0.111700
     22 HN21        0.8060   -3.3550   -3.9340 hn        1 NSN      0.323000
     23 HN22        0.2840   -2.6320   -2.4820 hn        1 NSN      0.323000
     24 HN31        2.2050    2.1840    1.5230 hn        1 NSN      0.320500
     25 HN32        2.9380    1.0960    2.6100 hn        1 NSN      0.320500
@<TRIPOS>BOND
     1    1    2 1   
     2    1   15 1   
     3    1   16 1   
     4    1   17 1   
     5    2    3 1   
     6    2    5 1   
     7    2    9 1   
     8    3    4 2   
     9    3   14 1   
    10    5    6 1   
    11    5   18 1   
    12    6    7 1   
    13    6   11 1   
    14    6   19 1   
    15    7    8 1   
    16    7   20 1   
    17    7   21 1   
    18    8    9 1   
    19    8   10 2   
    20   11   12 1   
    21   11   13 2   
    22   12   22 1   
    23   12   23 1   
    24   14   24 1   
    25   14   25 1   
@<TRIPOS>SUBSTRUCTURE
     1 NSN         1 TEMP              0 ****  ****    0 ROOT
