@<TRIPOS>MOLECULE
NSP
   20    18     1     0     0
SMALL
bcc


@<TRIPOS>ATOM
      1 N           0.1320   -1.0190   -2.8380 n3        1 NSP     -0.350000
      2 CA         -0.6910   -0.1140   -2.0840 c3        1 NSP     -0.014000
      3 CP         -0.2950   -0.1750   -0.6260 c2        1 NSP     -0.243000
      4 CQ1         0.3270   -1.2990   -0.1290 c2        1 NSP      0.007000
      5 CQ2        -0.4630    0.9260    0.1830 c1        1 NSP      0.147000
      6 NR1         0.7650   -1.3160    1.1400 n1        1 NSP     -0.209000
      7 NQ2        -1.1250    2.0760   -0.3090 n2        1 NSP     -0.331000
      8 NR2        -0.0210    0.9000    1.4540 n2        1 NSP     -0.238000
      9 CS          0.5950   -0.2180    1.9430 c1        1 NSP      0.060000
     10 CS1         1.1280   -0.2260    3.3330 c3        1 NSP     -0.159000
     11 HN1        -0.3930   -1.5370   -3.3760 hn        1 NSP      0.150500
     12 HN2         0.7300   -0.5320   -3.3610 hn        1 NSP      0.150500
     13 HCA1       -1.6540   -0.3750   -2.1810 h1        1 NSP      0.067000
     14 HCA2       -0.5670    0.7830   -2.4150 h1        1 NSP      0.067000
     15 HQ1         0.4510   -2.0990   -0.7100 h4        1 NSP      0.176000
     16 HQ21       -1.2360    2.8030    0.2310 hn        1 NSP      0.209500
     17 HQ22       -1.3960    2.1070   -1.1660 hn        1 NSP      0.209500
     18 HS11        0.3970   -0.0470    3.9660 hc        1 NSP      0.100667
     19 HS12        1.8030    0.4540    3.4220 hc        1 NSP      0.100667
     20 HS13        1.5150   -1.0920    3.5240 hc        1 NSP      0.100667
@<TRIPOS>BOND
     1    1    2 1   
     2    1   11 1   
     3    1   12 1   
     4    2    3 1   
     5    2   13 1   
     6    2   14 1   
     7    3    4 1   
     8    3    5 1   
     9    4    6 1   
    10    4   15 1   
    11    5    8 1   
    12    7   16 1   
    13    7   17 1   
    14    8    9 1   
    15    9   10 1   
    16   10   18 1   
    17   10   19 1   
    18   10   20 1   
@<TRIPOS>SUBSTRUCTURE
     1 NSP         1 TEMP              0 ****  ****    0 ROOT
