@<TRIPOS>MOLECULE
NSP
   21    21     1     0     0
SMALL
bcc


@<TRIPOS>ATOM
      1 N           0.6980   -0.7330   -0.3710 nz        1 NSP     -0.847600
      2 CA          1.1330    0.5970    0.1820 c3        1 NSP      0.209100
      3 CP          1.7530    0.4420    1.5130 ca        1 NSP     -0.485900
      4 CQ1         1.1190    0.9450    2.6750 ca        1 NSP      0.500200
      5 CQ2         3.0180   -0.2020    1.7000 ca        1 NSP      0.674200
      6 NR1         1.6340    0.8220    3.8990 nb        1 NSP     -0.693000
      7 NQ2         3.6640   -0.7750    0.5800 nv        1 NSP     -0.941500
      8 NR2         3.5520   -0.3400    2.9520 nb        1 NSP     -0.733000
      9 CS          2.8470    0.1680    4.0040 ca        1 NSP      0.740300
     10 CS1         3.4360    0.0240    5.3830 c3        1 NSP     -0.154400
     11 HN1         1.5090   -1.3540   -0.4780 hn        1 NSP      0.461800
     12 HN2         0.2470   -0.6070   -1.2800 hn        1 NSP      0.461800
     13 HCA1        1.8530    1.0460   -0.5630 hx        1 NSP      0.107200
     14 HCA2        0.2160    1.2550    0.2380 hx        1 NSP      0.107200
     15 HQ1         0.1500    1.4790    2.6080 h4        1 NSP      0.042100
     16 HQ21        3.9120   -0.0770   -0.0950 hn        1 NSP      0.412800
     17 HQ22        4.4600   -1.3390    0.8180 hn        1 NSP      0.412800
     18 HS11        4.3700   -0.5900    5.3700 hc        1 NSP      0.087700
     19 HS12        3.6750    1.0420    5.7850 hc        1 NSP      0.087700
     20 HS13        2.6880   -0.4600    6.0610 hc        1 NSP      0.087700
     21 HN3         0.0380   -1.1790    0.2750 hn        1 NSP      0.461800
@<TRIPOS>BOND
     1    1    2 1   
     2    1   11 1   
     3    1   12 1   
     4    1   21 1   
     5    2    3 1   
     6    2   13 1   
     7    2   14 1   
     8    3    4 ar  
     9    3    5 ar  
    10    4    6 ar  
    11    4   15 1   
    12    5    7 1   
    13    5    8 ar  
    14    6    9 ar  
    15    7   16 1   
    16    7   17 1   
    17    8    9 ar  
    18    9   10 1   
    19   10   18 1   
    20   10   19 1   
    21   10   20 1   
@<TRIPOS>SUBSTRUCTURE
     1 NSP         1 TEMP              0 ****  ****    0 ROOT
