@<TRIPOS>MOLECULE
NSP
   20    20     1     0     0
SMALL
bcc


@<TRIPOS>ATOM
      1 N           1.1340    0.1210   -3.1160 n3        1 NSP     -0.915800
      2 CA         -0.0960   -0.0030   -2.3690 c3        1 NSP      0.224100
      3 CP          0.0620   -0.0070   -0.8840 ca        1 NSP     -0.376900
      4 CQ1         1.3110   -0.0400   -0.2380 ca        1 NSP      0.470200
      5 CQ2        -1.0920    0.0080   -0.0300 ca        1 NSP      0.664200
      6 NR1         1.4600   -0.0270    1.0970 nb        1 NSP     -0.734000
      7 NQ2        -2.3760    0.0910   -0.5720 nh        1 NSP     -0.931500
      8 NR2        -0.9580    0.0070    1.3380 nb        1 NSP     -0.763000
      9 CS          0.3080    0.0050    1.8410 ca        1 NSP      0.679300
     10 CS1         0.4590    0.0280    3.3440 c3        1 NSP     -0.135400
     11 HN1         0.9360    0.1520   -4.0960 hn        1 NSP      0.354300
     12 HN2         1.6350    0.9460   -2.8530 hn        1 NSP      0.354300
     13 HCA1       -0.5710   -0.9820   -2.6780 h1        1 NSP      0.031200
     14 HCA2       -0.8280    0.8210   -2.6390 h1        1 NSP      0.031200
     15 HQ1         2.2570   -0.0880   -0.8120 h4        1 NSP      0.039100
     16 HQ21       -3.1360   -0.0450    0.0570 hn        1 NSP      0.412800
     17 HQ22       -2.4830   -0.3470   -1.4580 hn        1 NSP      0.412800
     18 HS11        1.0010    0.9590    3.6440 hc        1 NSP      0.061700
     19 HS12       -0.5340    0.0070    3.8540 hc        1 NSP      0.061700
     20 HS13        1.0540   -0.8590    3.6720 hc        1 NSP      0.061700
@<TRIPOS>BOND
     1    1    2 1   
     2    1   11 1   
     3    1   12 1   
     4    2    3 1   
     5    2   13 1   
     6    2   14 1   
     7    3    4 ar  
     8    3    5 ar  
     9    4    6 ar  
    10    4   15 1   
    11    5    7 1   
    12    5    8 ar  
    13    6    9 ar  
    14    7   16 1   
    15    7   17 1   
    16    8    9 ar  
    17    9   10 1   
    18   10   18 1   
    19   10   19 1   
    20   10   20 1   
@<TRIPOS>SUBSTRUCTURE
     1 NSP         1 TEMP              0 ****  ****    0 ROOT
