@<TRIPOS>MOLECULE
NSP
   21    21     1     0     0
SMALL
bcc


@<TRIPOS>ATOM
      1 N           0.6590    0.5710   -0.3880 n4        1 NSP     -0.847600
      2 CA          1.1950   -0.7090    0.1920 c3        1 NSP      0.209100
      3 CP          1.7940   -0.4820    1.5210 ca        1 NSP     -0.485900
      4 CQ1         1.1950   -1.0130    2.6900 ca        1 NSP      0.500200
      5 CQ2         3.0020    0.2630    1.7020 ca        1 NSP      0.674200
      6 NR1         1.6920   -0.8270    3.9130 nb        1 NSP     -0.693000
      7 NQ2         3.6070    0.8660    0.5740 nh        1 NSP     -0.941500
      8 NR2         3.5180    0.4660    2.9540 nb        1 NSP     -0.733000
      9 CS          2.8490   -0.0770    4.0110 ca        1 NSP      0.740300
     10 CS1         3.4170    0.1370    5.3910 c3        1 NSP     -0.154400
     11 HN1         0.2250    0.3940   -1.2960 hn        1 NSP      0.461800
     12 HN2        -0.0370    0.9750    0.2470 hn        1 NSP      0.461800
     13 HCA1        0.3340   -1.4370    0.2560 hx        1 NSP      0.107200
     14 HCA2        1.9530   -1.1130   -0.5430 hx        1 NSP      0.107200
     15 HQ1         0.2730   -1.6240    2.6280 h4        1 NSP      0.042100
     16 HQ21        3.9130    0.1780   -0.0870 hn        1 NSP      0.412800
     17 HQ22        4.3550    1.4960    0.8060 hn        1 NSP      0.412800
     18 HS11        2.6280    0.5680    6.0580 hc        1 NSP      0.087700
     19 HS12        4.2960    0.8260    5.3700 hc        1 NSP      0.087700
     20 HS13        3.7380   -0.8510    5.8090 hc        1 NSP      0.087700
     21 HN3         1.4200    1.2530   -0.5030 hn        1 NSP      0.461800
@<TRIPOS>BOND
     1    1    2 1   
     2    1   11 1   
     3    1   12 1   
     4    1   21 1   
     5    2    3 1   
     6    2   13 1   
     7    2   14 1   
     8    3    4 ar  
     9    3    5 ar  
    10    4    6 ar  
    11    4   15 1   
    12    5    7 1   
    13    5    8 ar  
    14    6    9 ar  
    15    7   16 1   
    16    7   17 1   
    17    8    9 ar  
    18    9   10 1   
    19   10   18 1   
    20   10   19 1   
    21   10   20 1   
@<TRIPOS>SUBSTRUCTURE
     1 NSP         1 TEMP              0 ****  ****    0 ROOT
