@<TRIPOS>MOLECULE
NSP
   22    22     1     0     0
SMALL
bcc


@<TRIPOS>ATOM
      1 N           0.0750   -0.3510   -0.1390 n4        1 NSP     -0.843600
      2 CA          1.3650    0.3880    0.0430 c3        1 NSP      0.178100
      3 CP          1.9450    0.2340    1.4030 ca        1 NSP     -0.421900
      4 CQ1         1.1450    0.5510    2.5470 ca        1 NSP      0.486200
      5 CQ2         3.2820   -0.1170    1.7140 ca        1 NSP      0.572200
      6 NR1         1.5770    0.4680    3.8030 nb        1 NSP     -0.619000
      7 NQ2         4.2990   -0.3770    0.6650 n4        1 NSP     -0.842300
      8 NR2         3.7500   -0.2100    2.9800 nb        1 NSP     -0.691000
      9 CS          2.8840    0.0740    4.0110 ca        1 NSP      0.788300
     10 CS1         3.3890   -0.0330    5.4200 c3        1 NSP     -0.171400
     11 HN1        -0.6300   -0.0180    0.5320 hn        1 NSP      0.478800
     12 HN2        -0.2820   -0.1910   -1.0930 hn        1 NSP      0.478800
     13 HCA1        1.1470    1.4880   -0.1470 hx        1 NSP      0.121200
     14 HCA2        2.0610    0.0250   -0.7670 hx        1 NSP      0.121200
     15 HQ1         0.1000    0.9100    2.4340 h4        1 NSP      0.062100
     16 HQ21        4.0160   -1.1780    0.0910 hn        1 NSP      0.489133
     17 HQ22        4.4080    0.4600    0.0790 hn        1 NSP      0.489133
     18 HS11        4.4350   -0.4270    5.4620 hc        1 NSP      0.118033
     19 HS12        2.7150   -0.7110    6.0100 hc        1 NSP      0.118033
     20 HS13        3.3610    0.9850    5.8970 hc        1 NSP      0.118033
     21 HN3         0.2020   -1.3600    0.0030 hn        1 NSP      0.478800
     22 HQ23        5.2180   -0.5940    1.0990 hn        1 NSP      0.489133
@<TRIPOS>BOND
     1    1    2 1   
     2    1   11 1   
     3    1   12 1   
     4    1   21 1   
     5    2    3 1   
     6    2   13 1   
     7    2   14 1   
     8    3    4 ar  
     9    3    5 ar  
    10    4    6 ar  
    11    4   15 1   
    12    5    7 1   
    13    5    8 ar  
    14    6    9 ar  
    15    7   16 1   
    16    7   17 1   
    17    7   22 1   
    18    8    9 ar  
    19    9   10 1   
    20   10   18 1   
    21   10   19 1   
    22   10   20 1   
@<TRIPOS>SUBSTRUCTURE
     1 NSP         1 TEMP              0 ****  ****    0 ROOT
