@<TRIPOS>MOLECULE
NSS
   52    54     1     0     0
SMALL
bcc


@<TRIPOS>ATOM
      1 OAX        -2.8140    2.6290   -0.0910 o         1 NSS     -0.617300
      2 SBE        -3.0560    3.6310    0.8250 s6        1 NSS      1.712100
      3 OAY        -3.5490    4.8620    0.4720 o         1 NSS     -0.617300
      4 NAT        -3.8580    3.0460    2.1760 n         1 NSS     -0.628300
      5 C          -5.1920    2.7540    2.2420 c         1 NSS      0.688100
      6 O          -5.9560    2.8420    1.2620 o         1 NSS     -0.582100
      7 CA         -5.7730    2.3060    3.6090 c3        1 NSS      0.036500
      8 N          -7.2700    2.2530    3.5140 n4        1 NSS     -0.830600
      9 CB         -5.1730    0.9600    4.0290 c3        1 NSS     -0.193400
     10 CG         -3.9550    1.2050    4.9190 c         1 NSS      0.664100
     11 OD1        -3.5810    2.3790    5.1460 o         1 NSS     -0.635100
     12 ND2        -3.3290    0.1280    5.4600 n         1 NSS     -0.625000
     13 O5'        -1.5510    3.9540    1.4790 os        1 NSS     -0.545500
     14 C5'        -0.4290    3.1410    1.2340 c3        1 NSS      0.166400
     15 C4'        -0.2470    2.1230    2.3610 c3        1 NSS      0.102100
     16 C3'         0.8750    1.1280    2.0260 c3        1 NSS      0.087100
     17 O3'         1.7670    1.1190    3.1240 oh        1 NSS     -0.588800
     18 C2'         0.1900   -0.2500    1.8870 c3        1 NSS      0.084100
     19 O2'         0.8020   -1.2290    2.6840 oh        1 NSS     -0.564800
     20 C1'        -1.2900   -0.0190    2.3340 c3        1 NSS      0.225800
     21 O4'        -1.4680    1.3960    2.5540 os        1 NSS     -0.465600
     22 N9         -2.2910   -0.4970    1.4200 na        1 NSS     -0.297000
     23 C4         -3.2350   -1.5010    1.7140 ca        1 NSS      0.448800
     24 N3         -3.5980   -2.0710    2.9020 nb        1 NSS     -0.796000
     25 C2         -4.5400   -3.0370    2.7480 ca        1 NSS      0.684900
     26 N1         -5.1680   -3.4770    1.6320 nb        1 NSS     -0.784000
     27 C6         -4.8300   -2.8870    0.4300 ca        1 NSS      0.764200
     28 N6         -5.4570   -3.2420   -0.7310 nh        1 NSS     -0.935500
     29 C5         -3.8340   -1.8520    0.4350 ca        1 NSS     -0.232200
     30 N7         -3.2740   -1.0710   -0.5910 nc        1 NSS     -0.523100
     31 C8         -2.3720   -0.2910    0.0110 cd        1 NSS      0.434700
     32 HAT        -3.3290    2.8840    3.0200 hn        1 NSS      0.382500
     33 HA         -5.5130    3.0990    4.3870 hx        1 NSS      0.169700
     34 HN1        -7.6670    1.8940    4.3860 hn        1 NSS      0.471800
     35 HN2        -7.5430    1.6480    2.7270 hn        1 NSS      0.471800
     36 HN3        -7.6280    3.1970    3.3240 hn        1 NSS      0.471800
     37 HB1        -4.8540    0.3740    3.1230 hc        1 NSS      0.105700
     38 HB2        -5.9120    0.3340    4.5970 hc        1 NSS      0.105700
     39 HD21       -3.5550   -0.7970    5.1820 hn        1 NSS      0.342500
     40 HD22       -2.5190    0.2750    6.0160 hn        1 NSS      0.342500
     41 H5'1       -0.5260    2.6300    0.2370 h1        1 NSS      0.082700
     42 H5'2        0.4480    3.8490    1.2250 h1        1 NSS      0.082700
     43 H4'        -0.0510    2.6500    3.3380 h1        1 NSS      0.117700
     44 H3'         1.4120    1.4080    1.0820 h1        1 NSS      0.076700
     45 H2          2.5570    0.6350    2.8450 ho        1 NSS      0.432000
     46 H2'         0.2620   -0.6470    0.8380 h1        1 NSS      0.114700
     47 H1          0.8990   -0.8750    3.5820 ho        1 NSS      0.422000
     48 H1'        -1.4660   -0.5100    3.3400 h2        1 NSS      0.103700
     49 H3         -4.8420   -3.5600    3.6830 h5        1 NSS      0.054100
     50 HN61       -6.0640   -4.0260   -0.7510 hn        1 NSS      0.456800
     51 HN62       -5.1030   -2.8850   -1.5870 hn        1 NSS      0.456800
     52 H8         -1.7880    0.5010   -0.4810 h5        1 NSS      0.098800
@<TRIPOS>BOND
     1    1    2 2   
     2    2    3 2   
     3    2    4 1   
     4    2   13 1   
     5    4    5 1   
     6    4   32 1   
     7    5    6 2   
     8    5    7 1   
     9    7    8 1   
    10    7    9 1   
    11    7   33 1   
    12    8   34 1   
    13    8   35 1   
    14    8   36 1   
    15    9   10 1   
    16    9   37 1   
    17    9   38 1   
    18   10   11 2   
    19   10   12 1   
    20   12   39 1   
    21   12   40 1   
    22   13   14 1   
    23   14   15 1   
    24   14   41 1   
    25   14   42 1   
    26   15   16 1   
    27   15   21 1   
    28   15   43 1   
    29   16   17 1   
    30   16   18 1   
    31   16   44 1   
    32   17   45 1   
    33   18   19 1   
    34   18   20 1   
    35   18   46 1   
    36   19   47 1   
    37   20   21 1   
    38   20   22 1   
    39   20   48 1   
    40   22   23 1   
    41   22   31 1   
    42   23   24 ar  
    43   23   29 ar  
    44   24   25 ar  
    45   25   26 ar  
    46   25   49 1   
    47   26   27 ar  
    48   27   28 1   
    49   27   29 ar  
    50   28   50 1   
    51   28   51 1   
    52   29   30 1   
    53   30   31 2   
    54   31   52 1   
@<TRIPOS>SUBSTRUCTURE
     1 NSS         1 TEMP              0 ****  ****    0 ROOT
