@<TRIPOS>MOLECULE
NSS
   52    54     1     0     0
SMALL
bcc


@<TRIPOS>ATOM
      1 OAX        -0.8630    0.3880   -0.3130 o         1 NSS     -0.608300
      2 SBE         0.2890   -0.0310    0.3130 s6        1 NSS      1.711100
      3 OAY         0.3020   -0.7100    1.5030 o         1 NSS     -0.608300
      4 NAT         1.3450   -0.7490   -0.7830 n         1 NSS     -0.639300
      5 C           1.0370   -1.6720   -1.7450 c         1 NSS      0.693100
      6 O          -0.0720   -2.2280   -1.8370 o         1 NSS     -0.574100
      7 CA          2.1460   -2.0330   -2.7750 c3        1 NSS      0.034500
      8 N           1.7370   -3.2640   -3.5290 n4        1 NSS     -0.832600
      9 CB          2.3930   -0.8380   -3.7030 c3        1 NSS     -0.193400
     10 CG          3.4680    0.0640   -3.0920 c         1 NSS      0.658100
     11 OD1         4.0370   -0.2930   -2.0330 o         1 NSS     -0.645100
     12 ND2         3.7960    1.2120   -3.7420 n         1 NSS     -0.603000
     13 O5'         1.1370    1.3740    0.6260 os        1 NSS     -0.553500
     14 C5'         1.0100    2.5580   -0.1290 c3        1 NSS      0.170400
     15 C4'         1.8270    2.4390   -1.4160 c3        1 NSS      0.076100
     16 C3'         2.3000    3.7860   -1.9910 c3        1 NSS      0.132100
     17 O3'         3.7030    3.6860   -2.1470 oh        1 NSS     -0.595800
     18 C2'         1.5750    3.9410   -3.3470 c3        1 NSS      0.076100
     19 O2'         2.5490    3.8870   -4.3690 oh        1 NSS     -0.613800
     20 C1'         0.6610    2.6760   -3.4740 c3        1 NSS      0.249800
     21 O4'         1.0400    1.7760   -2.4220 os        1 NSS     -0.459600
     22 N9         -0.7450    2.9720   -3.4600 na        1 NSS     -0.321000
     23 C4         -1.3530    3.8100   -4.4160 ca        1 NSS      0.449800
     24 N3         -0.8020    4.5490   -5.4230 nb        1 NSS     -0.786000
     25 C2         -1.7400    5.2330   -6.1300 ca        1 NSS      0.702900
     26 N1         -3.0840    5.2800   -5.9770 nb        1 NSS     -0.783000
     27 C6         -3.6460    4.5340   -4.9590 ca        1 NSS      0.775200
     28 N6         -4.9930    4.5300   -4.7500 nh        1 NSS     -0.943500
     29 C5         -2.7750    3.7510   -4.1250 ca        1 NSS     -0.231200
     30 N7         -3.0070    2.8920   -3.0380 nc        1 NSS     -0.523100
     31 C8         -1.8030    2.4420   -2.6700 cd        1 NSS      0.414700
     32 HAT         2.3090   -0.4600   -0.7670 hn        1 NSS      0.372500
     33 HA          3.1090   -2.2830   -2.2180 hx        1 NSS      0.167700
     34 HN1         1.8240   -4.0820   -2.9160 hn        1 NSS      0.472133
     35 HN2         2.3270   -3.3860   -4.3570 hn        1 NSS      0.472133
     36 HN3         0.7480   -3.1800   -3.8100 hn        1 NSS      0.472133
     37 HB1         1.4460   -0.2420   -3.8300 hc        1 NSS      0.102700
     38 HB2         2.7430   -1.1650   -4.7190 hc        1 NSS      0.102700
     39 HD21        3.2010    1.5870   -4.4440 hn        1 NSS      0.340500
     40 HD22        4.3980    1.8620   -3.2760 hn        1 NSS      0.340500
     41 H5'1       -0.0740    2.7570   -0.3550 h1        1 NSS      0.092700
     42 H5'2        1.4330    3.3620    0.5360 h1        1 NSS      0.092700
     43 H4'         2.7190    1.7680   -1.2380 h1        1 NSS      0.106700
     44 H3'         2.0530    4.6430   -1.3090 h1        1 NSS      0.081700
     45 H2          3.9840    4.4210   -2.7100 ho        1 NSS      0.438000
     46 H2'         0.9950    4.8990   -3.3870 h1        1 NSS      0.105700
     47 H1          2.1790    4.3470   -5.1370 ho        1 NSS      0.447000
     48 H1'         0.9030    2.1210   -4.4330 h2        1 NSS      0.075700
     49 H3         -1.3470    5.8530   -6.9660 h5        1 NSS      0.059100
     50 HN61       -5.5960    5.0830   -5.3090 hn        1 NSS      0.458300
     51 HN62       -5.3630    4.0040   -3.9970 hn        1 NSS      0.458300
     52 H8         -1.6070    1.7320   -1.8510 h5        1 NSS      0.109800
@<TRIPOS>BOND
     1    1    2 2   
     2    2    3 2   
     3    2    4 1   
     4    2   13 1   
     5    4    5 1   
     6    4   32 1   
     7    5    6 2   
     8    5    7 1   
     9    7    8 1   
    10    7    9 1   
    11    7   33 1   
    12    8   34 1   
    13    8   35 1   
    14    8   36 1   
    15    9   10 1   
    16    9   37 1   
    17    9   38 1   
    18   10   11 2   
    19   10   12 1   
    20   12   39 1   
    21   12   40 1   
    22   13   14 1   
    23   14   15 1   
    24   14   41 1   
    25   14   42 1   
    26   15   16 1   
    27   15   21 1   
    28   15   43 1   
    29   16   17 1   
    30   16   18 1   
    31   16   44 1   
    32   17   45 1   
    33   18   19 1   
    34   18   20 1   
    35   18   46 1   
    36   19   47 1   
    37   20   21 1   
    38   20   22 1   
    39   20   48 1   
    40   22   23 1   
    41   22   31 1   
    42   23   24 ar  
    43   23   29 ar  
    44   24   25 ar  
    45   25   26 ar  
    46   25   49 1   
    47   26   27 ar  
    48   27   28 1   
    49   27   29 ar  
    50   28   50 1   
    51   28   51 1   
    52   29   30 1   
    53   30   31 2   
    54   31   52 1   
@<TRIPOS>SUBSTRUCTURE
     1 NSS         1 TEMP              0 ****  ****    0 ROOT
