@<TRIPOS>MOLECULE
NSS
   52    47     1     0     0
SMALL
bcc


@<TRIPOS>ATOM
      1 OAX        -0.4170   -4.6560    1.6550 o         1 NSS     -0.877000
      2 SBE         0.1030   -3.2400    1.6100 ss        1 NSS      2.806000
      3 OAY        -1.0350   -2.4860    2.2780 o         1 NSS     -0.877000
      4 NAT         1.5000   -3.0900    2.4620 n2        1 NSS     -0.858000
      5 C           1.4550   -2.7990    3.8850 c2        1 NSS      0.307000
      6 O           0.5770   -3.2930    4.5840 o         1 NSS     -0.254000
      7 CA          2.5160   -1.9540    4.5070 c3        1 NSS     -0.089000
      8 N           3.7670   -2.1410    3.7880 n4        1 NSS     -0.077000
      9 CB          2.1090   -0.5010    4.4370 c3        1 NSS     -0.222000
     10 CG          2.8450    0.2880    5.5250 c2        1 NSS      0.309000
     11 OD1         3.0180   -0.2090    6.6280 o         1 NSS     -0.432000
     12 ND2         3.3490    1.5840    5.2450 n         1 NSS     -0.376000
     13 O5'         0.3140   -2.7660    0.1470 o         1 NSS     -0.702000
     14 C5'        -0.4710   -1.6430   -0.2710 c3        1 NSS      0.010000
     15 C4'         0.4150   -0.6330   -0.9300 c3        1 NSS     -0.040000
     16 C3'         0.2770    0.5370   -0.3570 c3        1 NSS      0.002000
     17 O3'         1.5240    1.2750   -0.4320 oh        1 NSS     -0.402000
     18 C2'        -0.8740    1.3080   -1.1800 c3        1 NSS     -0.018000
     19 O2'        -0.7320    2.7240   -1.0190 oh        1 NSS     -0.343000
     20 C1'        -0.7030    0.9680   -2.4790 c3        1 NSS      0.143000
     21 O4'        -0.0360   -0.4090   -2.4500 os        1 NSS     -0.248000
     22 N9         -1.9530    0.8940   -3.1380 n3        1 NSS     -0.230000
     23 C4         -2.1610    1.7590   -4.1750 c1        1 NSS      0.063000
     24 N3         -1.3790    2.7240   -4.7280 n1        1 NSS     -0.266000
     25 C2         -1.8220    3.4270   -5.8120 c1        1 NSS      0.042000
     26 N1         -3.0460    3.1630   -6.3400 n1        1 NSS     -0.257000
     27 C6         -3.8200    2.2130   -5.7980 c1        1 NSS      0.256000
     28 N6         -5.1100    2.2000   -6.4380 n2        1 NSS     -0.339000
     29 C5         -3.3690    1.4970   -4.6940 c1        1 NSS     -0.239000
     30 N7         -3.9160    0.4750   -3.9880 n1        1 NSS     -0.094000
     31 C8         -3.0330    0.1100   -3.0280 c1        1 NSS     -0.034000
     32 HAT         2.3120   -3.2010    2.0400 hn        1 NSS      0.250000
     33 HA          2.6350   -2.2150    5.4450 hx        1 NSS      0.193000
     34 HN1         4.0060   -3.0360    3.8110 hn        1 NSS      0.273333
     35 HN2         4.4220   -1.6410    4.1820 hn        1 NSS      0.273333
     36 HN3         3.6600   -1.8700    2.9030 hn        1 NSS      0.273333
     37 HB1         1.1350   -0.4250    4.5770 hc        1 NSS      0.159000
     38 HB2         2.3430   -0.1380    3.5530 hc        1 NSS      0.159000
     39 HD21        3.8580    2.0180    5.8640 hn        1 NSS      0.255000
     40 HD22        3.1380    1.9950    4.4580 hn        1 NSS      0.255000
     41 H5'1       -1.1590   -1.9420   -0.9100 h1        1 NSS      0.132000
     42 H5'2       -0.8940   -1.2460    0.4930 h1        1 NSS      0.132000
     43 H4'         1.3510   -0.9230   -0.8920 h1        1 NSS      0.133000
     44 H3'         0.0070    0.4260    0.5740 h1        1 NSS      0.123000
     45 H2          1.8870    1.3330    0.3870 ho        1 NSS      0.257000
     46 H2'        -1.7650    1.0180   -0.8690 h1        1 NSS      0.141000
     47 H1         -1.2440    3.0010   -0.3350 ho        1 NSS      0.260000
     48 H1'        -0.1230    1.6140   -2.9240 h2        1 NSS      0.148000
     49 H3         -1.2560    4.1240   -6.2100 ha        1 NSS      0.194000
     50 HN61       -5.7670    1.6240   -6.1400 hn        1 NSS      0.254000
     51 HN62       -5.2880    2.7820   -7.1160 hn        1 NSS      0.254000
     52 H8         -3.1510   -0.6220   -2.3870 DU        1 NSS      0.215000
@<TRIPOS>BOND
     1    1    2 1   
     2    2    3 1   
     3    4    5 1   
     4    4   32 1   
     5    5    6 1   
     6    5    7 1   
     7    7    8 1   
     8    7    9 1   
     9    7   33 1   
    10    8   34 1   
    11    8   35 1   
    12    8   36 1   
    13    9   10 1   
    14    9   37 1   
    15    9   38 1   
    16   10   11 1   
    17   10   12 1   
    18   12   39 1   
    19   12   40 1   
    20   13   14 1   
    21   14   15 1   
    22   14   41 1   
    23   14   42 1   
    24   15   16 1   
    25   15   21 1   
    26   15   43 1   
    27   16   17 1   
    28   16   18 1   
    29   16   44 1   
    30   17   45 1   
    31   18   19 1   
    32   18   20 1   
    33   18   46 1   
    34   19   47 1   
    35   20   21 1   
    36   20   22 1   
    37   20   48 1   
    38   22   23 1   
    39   22   31 1   
    40   23   29 1   
    41   24   25 1   
    42   25   49 1   
    43   26   27 1   
    44   27   29 1   
    45   28   50 1   
    46   28   51 1   
    47   30   31 1   
@<TRIPOS>SUBSTRUCTURE
     1 NSS         1 TEMP              0 ****  ****    0 ROOT
