@<TRIPOS>MOLECULE
NSS
   54    56     1     0     0
SMALL
bcc


@<TRIPOS>ATOM
      1 OAX         0.0000    0.0000    0.0000 o         1 NSS     -0.417800
      2 SBE         1.4510    0.0000    0.0000 s6        1 NSS      1.117400
      3 OAY         2.1820    0.0000    1.2540 o         1 NSS     -0.417800
      4 NAT         1.9890   -1.3490   -0.9110 ny        1 NSS     -0.020700
      5 C           1.2230   -1.9910   -1.9360 c         1 NSS      0.328100
      6 O           0.0930   -1.6340   -2.2560 o         1 NSS     -0.345100
      7 CA          1.9370   -3.1620   -2.5840 c3        1 NSS     -0.108500
      8 N           1.1880   -4.4170   -2.2680 nz        1 NSS      0.064400
      9 CB          1.9720   -3.0040   -4.1040 c3        1 NSS     -0.121400
     10 CG          2.7910   -1.8090   -4.5600 c         1 NSS      0.347100
     11 OD1         3.3400   -1.0180   -3.7990 o         1 NSS     -0.408100
     12 ND2         2.8340   -1.6990   -5.9340 nz        1 NSS      0.209600
     13 O5'         1.9620    1.2780   -0.8830 os        1 NSS     -0.443500
     14 C5'         1.6840    2.5900   -0.4170 c3        1 NSS      0.265400
     15 C4'         2.2560    3.5990   -1.4020 c3        1 NSS      0.144100
     16 C3'         1.9970    5.0440   -0.9910 c3        1 NSS      0.150100
     17 O3'         3.0110    5.8740   -1.5600 oh        1 NSS     -0.538800
     18 C2'         0.6690    5.3380   -1.6610 c3        1 NSS      0.147100
     19 O2'         0.4460    6.7180   -1.8660 oh        1 NSS     -0.519800
     20 C1'         0.8210    4.5870   -2.9750 c3        1 NSS      0.152800
     21 O4'         1.6000    3.4120   -2.6770 os        1 NSS     -0.428600
     22 N9         -0.4470    4.1950   -3.5870 na        1 NSS      0.176000
     23 C4         -1.1510    4.8880   -4.5330 ca        1 NSS      0.254800
     24 N3         -0.8280    6.0630   -5.0920 nb        1 NSS     -0.569000
     25 C2         -1.7700    6.4330   -5.9870 ca        1 NSS      0.663900
     26 N1         -2.9070    5.7880   -6.3400 nb        1 NSS     -0.590000
     27 C6         -3.1700    4.6050   -5.7340 ca        1 NSS      0.532200
     28 N6         -4.3330    3.8870   -6.0580 nv        1 NSS     -0.429500
     29 C5         -2.2720    4.1150   -4.7910 ca        1 NSS     -0.177200
     30 N7         -2.2630    2.9760   -4.0260 nc        1 NSS     -0.481100
     31 C8         -1.1570    3.0540   -3.3160 cd        1 NSS      0.245700
     32 HAT         2.8400   -1.0590   -1.3490 hn        1 NSS      0.338300
     33 HA          2.9480   -3.2330   -2.2000 hx        1 NSS      0.106700
     34 HN1         0.7620   -4.3340   -1.3660 hn        1 NSS      0.252800
     35 HN2         1.8210   -5.1920   -2.2670 hn        1 NSS      0.252800
     36 HN3         0.4790   -4.5660   -2.9590 hn        1 NSS      0.252800
     37 HB1         2.3970   -3.9020   -4.5370 hc        1 NSS      0.088200
     38 HB2         0.9570   -2.8890   -4.4650 hc        1 NSS      0.088200
     39 HD21        3.3860   -0.9040   -6.1880 hn        1 NSS      0.267467
     40 HD22        3.2420   -2.5270   -6.3220 hn        1 NSS      0.267467
     41 H5'1        0.6130    2.7280   -0.3380 h1        1 NSS      0.033700
     42 H5'2        2.1410    2.7340    0.5550 h1        1 NSS      0.033700
     43 H4'         3.3220    3.4410   -1.5170 h1        1 NSS      0.061700
     44 H3'         1.9350    5.1500    0.0850 h1        1 NSS      0.033700
     45 H2          3.5170    6.2700   -0.8690 ho        1 NSS      0.417000
     46 H2'        -0.1390    4.9080   -1.0820 h1        1 NSS      0.011700
     47 H1         -0.1020    7.0540   -1.1760 ho        1 NSS      0.412000
     48 H1'         1.3750    5.2070   -3.6700 h2        1 NSS      0.097700
     49 H3         -1.5920    7.3760   -6.4910 h5        1 NSS      0.014100
     50 HN61       -5.1670    4.0170   -5.5210 hn        1 NSS      0.287800
     51 HN62       -4.3430    3.2850   -6.8580 hn        1 NSS      0.287800
     52 H8         -0.8440    2.3030   -2.6010 h5        1 NSS      0.006800
     53 HAT2        2.1970   -2.0630   -0.2410 hn        1 NSS      0.338300
     54 HD23        1.9060   -1.5810   -6.2880 hn        1 NSS      0.267467
@<TRIPOS>BOND
     1    1    2 2   
     2    2    3 2   
     3    2    4 1   
     4    2   13 1   
     5    4    5 1   
     6    4   32 1   
     7    4   53 1   
     8    5    6 2   
     9    5    7 1   
    10    7    8 1   
    11    7    9 1   
    12    7   33 1   
    13    8   34 1   
    14    8   35 1   
    15    8   36 1   
    16    9   10 1   
    17    9   37 1   
    18    9   38 1   
    19   10   11 2   
    20   10   12 1   
    21   12   39 1   
    22   12   40 1   
    23   12   54 1   
    24   13   14 1   
    25   14   15 1   
    26   14   41 1   
    27   14   42 1   
    28   15   16 1   
    29   15   21 1   
    30   15   43 1   
    31   16   17 1   
    32   16   18 1   
    33   16   44 1   
    34   17   45 1   
    35   18   19 1   
    36   18   20 1   
    37   18   46 1   
    38   19   47 1   
    39   20   21 1   
    40   20   22 1   
    41   20   48 1   
    42   22   23 1   
    43   22   31 1   
    44   23   24 ar  
    45   23   29 ar  
    46   24   25 ar  
    47   25   26 ar  
    48   25   49 1   
    49   26   27 ar  
    50   27   28 1   
    51   27   29 ar  
    52   28   50 1   
    53   28   51 1   
    54   29   30 1   
    55   30   31 2   
    56   31   52 1   
@<TRIPOS>SUBSTRUCTURE
     1 NSS         1 TEMP              0 ****  ****    0 ROOT
