@<TRIPOS>MOLECULE
NSS
   54    55     1     0     0
SMALL
bcc


@<TRIPOS>ATOM
      1 OAX      -379.9370  822.1560  331.5240 o         1 NSS     -0.637800
      2 SBE      -379.8720  820.7870  331.4900 s6        1 NSS      1.819000
      3 OAY      -380.8070  819.9080  331.9000 o         1 NSS     -0.637800
      4 NAT       647.3510-1395.3940 -571.4140 n         1 NSS     -0.606000
      5 C         646.0270-1395.2040 -571.2310 c         1 NSS      0.624100
      6 O         645.1410-1395.4090 -572.0810 o         1 NSS     -0.556100
      7 CA        645.5270-1394.7630 -569.8090 c3        1 NSS      0.027500
      8 N         644.4780-1393.7110 -570.0010 n4        1 NSS     -0.833600
      9 CB        644.9660-1396.0160 -569.1090 c3        1 NSS     -0.181400
     10 CG        646.0990-1396.9180 -568.6990 c         1 NSS      0.547100
     11 OD1       647.2850-1396.6360 -568.6530 o         1 NSS     -0.368100
     12 ND2       645.7360-1398.3180 -568.2890 n4        1 NSS     -0.750400
     13 O5'      -378.3490  820.3560  331.9890 os        1 NSS     -0.547500
     14 C5'      -377.4340  819.9730  330.9840 c3        1 NSS      0.131400
     15 C4'      -378.0840  820.3150  329.6210 c3        1 NSS      0.139100
     16 C3'      -377.4020  821.5150  328.9410 c3        1 NSS      0.121100
     17 O3'      -377.9460  821.6180  327.6420 oh        1 NSS     -0.582800
     18 C2'      -377.5840  822.8650  329.6870 c3        1 NSS      0.021800
     19 O2'      -376.6490  823.7500  329.1080 oh        1 NSS     -0.575800
     20 C1'      -378.9850  823.4040  329.4550 c2        1 NSS      0.471200
     21 O4'      -379.4440  820.5720  329.8780 os        1 NSS     -0.563500
     22 N9       -379.4600  824.5440  329.8770 na        1 NSS     -0.211000
     23 C4       -378.8630  825.5430  330.7500 ca        1 NSS      0.485800
     24 N3       -377.6440  825.5700  331.3010 nb        1 NSS     -0.741000
     25 C2       -377.4520  826.6860  332.1000 ca        1 NSS      0.727900
     26 N1       -378.2920  827.6880  332.3690 nb        1 NSS     -0.725000
     27 C6       -379.5680  827.6610  331.7910 ca        1 NSS      0.795200
     28 N6       -380.4570  828.6520  332.0290 nh        1 NSS     -0.904500
     29 C5       -379.8870  826.5500  330.9450 ca        1 NSS     -0.263200
     30 N7       -381.0640  826.2110  330.2340 nc        1 NSS     -0.415100
     31 C8       -380.8290  825.0720  329.6280 cd        1 NSS      0.410700
     32 HAT       648.0230-1395.1400 -570.7270 hn        1 NSS      0.363500
     33 HA        646.3570-1394.3110 -569.1850 hx        1 NSS      0.146700
     34 HN1       644.9300-1392.8250 -570.2730 hn        1 NSS      0.489133
     35 HN2       643.8430-1393.9970 -570.7700 hn        1 NSS      0.489133
     36 HN3       643.9380-1393.5630 -569.1430 hn        1 NSS      0.489133
     37 HB1       644.2640-1396.5530 -569.8130 hc        1 NSS      0.137200
     38 HB2       644.3900-1395.7380 -568.1800 hc        1 NSS      0.137200
     39 HD21      646.5840-1398.8210 -567.9730 hn        1 NSS      0.494467
     40 HD22      645.3310-1398.8320 -569.0840 hn        1 NSS      0.494467
     41 H5'1     -376.4840  820.5390  331.1660 h1        1 NSS      0.096200
     42 H5'2     -377.2520  818.8700  331.0830 h1        1 NSS      0.096200
     43 H4'      -378.0490  819.4400  328.9100 h1        1 NSS      0.134700
     44 H3'      -376.2930  821.3080  328.8990 h1        1 NSS      0.090700
     45 H2       -377.2880  822.0670  327.0910 ho        1 NSS      0.438000
     46 H2'      -377.4300  822.7220  330.7960 h1        1 NSS      0.114700
     47 H1       -376.1920  824.2280  329.8160 ho        1 NSS      0.454000
     48 H1'      -379.6550  822.7450  328.8410 h4        1 NSS      0.101800
     49 H3       -376.4480  826.7460  332.5820 h5        1 NSS      0.089100
     50 HN61     -380.2260  829.4180  332.6210 hn        1 NSS      0.474800
     51 HN62     -381.3600  828.6140  331.6140 hn        1 NSS      0.474800
     52 H8       -381.5120  824.4940  328.9880 h5        1 NSS      0.115800
     53 HAT2      647.6790-1395.6330 -572.3300 hn        1 NSS      0.363500
     54 HD23      645.0540-1398.3080 -567.5190 hn        1 NSS      0.494467
@<TRIPOS>BOND
     1    1    2 2   
     2    2    3 2   
     3    2   13 1   
     4    2   21 1   
     5    4    5 1   
     6    4   32 1   
     7    4   53 1   
     8    5    6 2   
     9    5    7 1   
    10    7    8 1   
    11    7    9 1   
    12    7   33 1   
    13    8   34 1   
    14    8   35 1   
    15    8   36 1   
    16    9   10 1   
    17    9   37 1   
    18    9   38 1   
    19   10   11 2   
    20   10   12 1   
    21   12   39 1   
    22   12   40 1   
    23   12   54 1   
    24   13   14 1   
    25   14   15 1   
    26   14   41 1   
    27   14   42 1   
    28   15   16 1   
    29   15   21 1   
    30   15   43 1   
    31   16   17 1   
    32   16   18 1   
    33   16   44 1   
    34   17   45 1   
    35   18   19 1   
    36   18   20 1   
    37   18   46 1   
    38   19   47 1   
    39   20   22 2   
    40   20   48 1   
    41   22   23 1   
    42   22   31 1   
    43   23   24 ar  
    44   23   29 ar  
    45   24   25 ar  
    46   25   26 ar  
    47   25   49 1   
    48   26   27 ar  
    49   27   28 1   
    50   27   29 ar  
    51   28   50 1   
    52   28   51 1   
    53   29   30 1   
    54   30   31 2   
    55   31   52 1   
@<TRIPOS>SUBSTRUCTURE
     1 NSS         1 TEMP              0 ****  ****    0 ROOT
