@<TRIPOS>MOLECULE
NST
   28    23     1     0     0
SMALL
bcc


@<TRIPOS>ATOM
      1 N1         -0.1010   -0.3340    0.5120 n3        1 NST     -0.815000
      2 C2          1.3150   -0.3800    0.4370 c2        1 NST      0.147000
      3 C3          2.0810    0.3020    1.3700 c2        1 NST     -0.169000
      4 C4          1.9320   -1.1660   -0.5240 c1        1 NST     -0.137000
      5 C5          3.4630    0.1980    1.3420 c1        1 NST     -0.111000
      6 C6          3.3140   -1.2690   -0.5520 c1        1 NST     -0.097000
      7 C7          4.0790   -0.5870    0.3810 c1        1 NST     -0.136000
      8 N2          3.9470   -2.0460   -1.5560 no        1 NST      0.564000
      9 S13        -0.9540    0.5460   -0.5820 s4        1 NST      2.113800
     10 C15        -2.6090    0.8090   -0.0030 c1        1 NST     -0.489000
     11 O16        -0.9470   -0.0820   -1.8740 o         1 NST     -0.563400
     12 O17        -0.3000    1.7910   -0.8730 o         1 NST     -0.563400
     13 C18        -3.9740    0.4070   -0.2840 c1        1 NST     -0.377000
     14 C19        -2.6460    2.0510    0.9920 c1        1 NST     -0.489000
     15 S20        -4.9210    1.3550    0.5010 ss        1 NST      0.639000
     16 C21        -4.3990   -0.7670   -1.1380 c1        1 NST      0.377000
     17 C22        -4.0340    2.3620    1.2810 c1        1 NST     -0.377000
     18 O23        -4.6080   -0.6070   -2.3690 o         1 NST     -0.527500
     19 O24        -4.5540   -1.9020   -0.6160 o         1 NST     -0.527500
     20 O1          5.3100   -2.0800   -1.6360 o         1 NST     -0.374000
     21 O2          3.2720   -2.6690   -2.3630 o         1 NST     -0.374000
     22 HN1        -0.5390   -0.7980    1.1640 hn        1 NST      0.301000
     23 H3          1.6460    0.8550    2.0470 ha        1 NST      0.186000
     24 H4          1.3940   -1.6410   -1.1850 ha        1 NST      0.185000
     25 H5          4.0010    0.6790    1.9990 ha        1 NST      0.134000
     26 H7          5.0530   -0.6600    0.3610 ha        1 NST      0.156000
     27 H19        -1.8680    2.5230    1.3460 DU        1 NST      0.161000
     28 H22        -4.3530    3.1100    1.8210 DU        1 NST      0.161000
@<TRIPOS>BOND
     1    1    2 1   
     2    1    9 1   
     3    1   22 1   
     4    2    3 1   
     5    2    4 1   
     6    3    5 1   
     7    3   23 1   
     8    4   24 1   
     9    5   25 1   
    10    6    7 1   
    11    6    8 1   
    12    7   26 1   
    13    8   20 1   
    14    8   21 1   
    15    9   11 1   
    16    9   12 1   
    17   10   13 1   
    18   10   14 1   
    19   13   15 1   
    20   14   17 1   
    21   15   17 1   
    22   16   18 1   
    23   16   19 1   
@<TRIPOS>SUBSTRUCTURE
     1 NST         1 TEMP              0 ****  ****    0 ROOT
