@<TRIPOS>MOLECULE
NST
   28    29     1     0     0
SMALL
bcc


@<TRIPOS>ATOM
      1 N1          0.5570    0.8450   -0.1580 nh        1 NST     -0.765500
      2 C2          1.8210    0.2800   -0.0950 ca        1 NST      0.228600
      3 C3          2.4560   -0.0520    1.1280 ca        1 NST     -0.169000
      4 C4          2.5190    0.0090   -1.3030 ca        1 NST     -0.137000
      5 C5          3.7220   -0.6260    1.1390 ca        1 NST     -0.111000
      6 C6          3.7910   -0.5700   -1.2560 ca        1 NST     -0.142200
      7 C7          4.4100   -0.8950   -0.0400 ca        1 NST     -0.136000
      8 N2          4.5130   -0.8490   -2.5260 no        1 NST      0.309200
      9 S13        -0.4720    1.3510    1.0250 sy        1 NST      1.558200
     10 C15        -0.7750    2.9170    0.6140 cc        1 NST     -0.468500
     11 O16         0.1950    1.3300    2.2840 o         1 NST     -0.675800
     12 O17        -1.6290    0.5560    1.0210 o         1 NST     -0.675800
     13 C18        -1.3570    3.4500   -0.5330 cd        1 NST      0.006300
     14 C19        -0.4440    3.9670    1.5450 cc        1 NST     -0.065000
     15 S20        -1.4900    5.1030   -0.4350 ss        1 NST      0.099200
     16 C21        -1.8370    2.7310   -1.7890 c         1 NST      0.928200
     17 C22        -0.7880    5.2080    1.0760 cd        1 NST     -0.241100
     18 O23        -2.9060    3.1380   -2.3060 o         1 NST     -0.792800
     19 O24        -1.1110    1.8060   -2.2490 o         1 NST     -0.792800
     20 O1          5.6080   -1.3530   -2.4760 o         1 NST     -0.224000
     21 O2          4.0020   -0.5700   -3.5770 o         1 NST     -0.224000
     22 HN1         0.2330    0.9800   -1.1110 hn        1 NST      0.505800
     23 H3          1.9560    0.1480    2.0930 ha        1 NST      0.186000
     24 H4          2.0580    0.2540   -2.2780 ha        1 NST      0.185000
     25 H5          4.1910   -0.8720    2.1040 ha        1 NST      0.134000
     26 H7          5.4110   -1.3510   -0.0210 ha        1 NST      0.156000
     27 H19         0.0280    3.7530    2.5110 ha        1 NST      0.164000
     28 H22        -0.6360    6.1470    1.6010 h4        1 NST      0.158000
@<TRIPOS>BOND
     1    1    2 1   
     2    1    9 1   
     3    1   22 1   
     4    2    3 ar  
     5    2    4 ar  
     6    3    5 ar  
     7    3   23 1   
     8    4    6 ar  
     9    4   24 1   
    10    5    7 ar  
    11    5   25 1   
    12    6    7 ar  
    13    6    8 1   
    14    7   26 1   
    15    8   20 1   
    16    8   21 1   
    17    9   10 1   
    18    9   11 2   
    19    9   12 2   
    20   10   13 2   
    21   10   14 1   
    22   13   15 1   
    23   13   16 1   
    24   14   17 2   
    25   14   27 1   
    26   15   17 1   
    27   16   18 1   
    28   16   19 1   
    29   17   28 1   
@<TRIPOS>SUBSTRUCTURE
     1 NST         1 TEMP              0 ****  ****    0 ROOT
