@<TRIPOS>MOLECULE
NST
   28    29     1     0     0
SMALL
bcc


@<TRIPOS>ATOM
      1 N1          0.0800    0.5660    0.4920 nh        1 NST     -0.765500
      2 C2          1.4100    0.8210    0.1950 ca        1 NST      0.228600
      3 C3          1.8430    2.0180   -0.4280 ca        1 NST     -0.169000
      4 C4          2.3930   -0.1480    0.5330 ca        1 NST     -0.137000
      5 C5          3.1900    2.2320   -0.6970 ca        1 NST     -0.111000
      6 C6          3.7390    0.1000    0.2500 ca        1 NST     -0.142200
      7 C7          4.1570    1.2890   -0.3670 ca        1 NST     -0.136000
      8 N2          4.7600   -0.9200    0.6070 no        1 NST      0.309200
      9 S13        -1.2930    1.4200    0.1740 sy        1 NST      1.558200
     10 C15        -2.2370    0.3290   -0.6210 cc        1 NST     -0.468500
     11 O16        -0.9950    2.4960   -0.7110 o         1 NST     -0.675800
     12 O17        -1.8690    1.8610    1.3760 o         1 NST     -0.675800
     13 C18        -2.7430   -0.8990   -0.2010 cd        1 NST      0.006300
     14 C19        -2.6830    0.6270   -1.9590 cc        1 NST     -0.065000
     15 S20        -3.6980   -1.5940   -1.3690 ss        1 NST      0.099200
     16 C21        -2.5160   -1.6300    1.1170 c         1 NST      0.928200
     17 C22        -3.4880   -0.3580   -2.4710 cd        1 NST     -0.241100
     18 O23        -3.5030   -2.2180    1.6210 o         1 NST     -0.792800
     19 O24        -1.3450   -1.6350    1.5910 o         1 NST     -0.792800
     20 O1          5.9200   -0.6960    0.3640 o         1 NST     -0.224000
     21 O2          4.4200   -1.9480    1.1290 o         1 NST     -0.224000
     22 HN1        -0.0530   -0.3180    0.9760 hn        1 NST      0.505800
     23 H3          1.1140    2.7970   -0.7170 ha        1 NST      0.186000
     24 H4          2.0950   -1.0950    1.0210 ha        1 NST      0.185000
     25 H5          3.4960    3.1710   -1.1820 ha        1 NST      0.134000
     26 H7          5.2210    1.4680   -0.5820 ha        1 NST      0.156000
     27 H19        -2.3910    1.5490   -2.4730 ha        1 NST      0.164000
     28 H22        -3.9420   -0.3530   -3.4590 h4        1 NST      0.158000
@<TRIPOS>BOND
     1    1    2 1   
     2    1    9 1   
     3    1   22 1   
     4    2    3 ar  
     5    2    4 ar  
     6    3    5 ar  
     7    3   23 1   
     8    4    6 ar  
     9    4   24 1   
    10    5    7 ar  
    11    5   25 1   
    12    6    7 ar  
    13    6    8 1   
    14    7   26 1   
    15    8   20 1   
    16    8   21 1   
    17    9   10 1   
    18    9   11 2   
    19    9   12 2   
    20   10   13 2   
    21   10   14 1   
    22   13   15 1   
    23   13   16 1   
    24   14   17 2   
    25   14   27 1   
    26   15   17 1   
    27   16   18 1   
    28   16   19 1   
    29   17   28 1   
@<TRIPOS>SUBSTRUCTURE
     1 NST         1 TEMP              0 ****  ****    0 ROOT
