@<TRIPOS>MOLECULE
NST
   28    29     1     0     0
SMALL
bcc


@<TRIPOS>ATOM
      1 N1          0.5600    0.8460   -0.1560 nh        1 NST     -0.765500
      2 C2          1.8250    0.2830   -0.0960 ca        1 NST      0.228600
      3 C3          2.4630   -0.0490    1.1260 ca        1 NST     -0.169000
      4 C4          2.5210    0.0120   -1.3050 ca        1 NST     -0.137000
      5 C5          3.7290   -0.6210    1.1350 ca        1 NST     -0.111000
      6 C6          3.7930   -0.5650   -1.2610 ca        1 NST     -0.142200
      7 C7          4.4150   -0.8900   -0.0450 ca        1 NST     -0.136000
      8 N2          4.5140   -0.8440   -2.5310 no        1 NST      0.309200
      9 S13        -0.4680    1.3490    1.0290 sy        1 NST      1.558200
     10 C15        -0.7770    2.9140    0.6170 cc        1 NST     -0.468500
     11 O16         0.2020    1.3320    2.2860 o         1 NST     -0.675800
     12 O17        -1.6220    0.5500    1.0290 o         1 NST     -0.675800
     13 C18        -1.3640    3.4440   -0.5290 cd        1 NST      0.006300
     14 C19        -0.4480    3.9660    1.5470 cc        1 NST     -0.065000
     15 S20        -1.5030    5.0960   -0.4320 ss        1 NST      0.099200
     16 C21        -1.8450    2.7220   -1.7830 c         1 NST      0.928200
     17 C22        -0.7980    5.2050    1.0770 cd        1 NST     -0.241100
     18 O23        -2.9160    3.1240   -2.2980 o         1 NST     -0.792800
     19 O24        -1.1150    1.8000   -2.2450 o         1 NST     -0.792800
     20 O1          5.6080   -1.3470   -2.4840 o         1 NST     -0.224000
     21 O2          4.0000   -0.5650   -3.5820 o         1 NST     -0.224000
     22 HN1         0.2340    0.9810   -1.1090 hn        1 NST      0.505800
     23 H3          1.9640    0.1510    2.0920 ha        1 NST      0.186000
     24 H4          2.0570    0.2570   -2.2790 ha        1 NST      0.185000
     25 H5          4.2000   -0.8670    2.0990 ha        1 NST      0.134000
     26 H7          5.4170   -1.3450   -0.0280 ha        1 NST      0.156000
     27 H19         0.0270    3.7550    2.5110 ha        1 NST      0.164000
     28 H22        -0.6480    6.1450    1.6010 h4        1 NST      0.158000
@<TRIPOS>BOND
     1    1    2 1   
     2    1    9 1   
     3    1   22 1   
     4    2    3 ar  
     5    2    4 ar  
     6    3    5 ar  
     7    3   23 1   
     8    4    6 ar  
     9    4   24 1   
    10    5    7 ar  
    11    5   25 1   
    12    6    7 ar  
    13    6    8 1   
    14    7   26 1   
    15    8   20 1   
    16    8   21 1   
    17    9   10 1   
    18    9   11 2   
    19    9   12 2   
    20   10   13 2   
    21   10   14 1   
    22   13   15 1   
    23   13   16 1   
    24   14   17 2   
    25   14   27 1   
    26   15   17 1   
    27   16   18 1   
    28   16   19 1   
    29   17   28 1   
@<TRIPOS>SUBSTRUCTURE
     1 NST         1 TEMP              0 ****  ****    0 ROOT
