@<TRIPOS>MOLECULE
NSZ
  102   105     1     0     0
SMALL
bcc


@<TRIPOS>ATOM
      1 C1          1.4490    2.0400   -0.5760 c3        1 NSZ     -0.101100
      2 C2          1.6550    0.6260   -1.0890 c         1 NSZ      0.670100
      3 O3          1.5200    0.3670   -2.3060 o         1 NSZ     -0.646100
      4 C4          3.0440    2.8870    3.3220 cp        1 NSZ     -0.028000
      5 C5          3.8340    3.0600    2.1770 ca        1 NSZ     -0.119000
      6 C6          3.3190    2.7760    0.9150 ca        1 NSZ     -0.122000
      7 C7          2.0050    2.3130    0.7730 ca        1 NSZ     -0.114300
      8 C8          1.2120    2.1430    1.9150 ca        1 NSZ     -0.122000
      9 C9          1.7280    2.4260    3.1770 ca        1 NSZ     -0.119000
     10 C10         4.6180    3.7560    7.1890 ca        1 NSZ     -0.125000
     11 C11         3.2860    2.3550    5.7380 ca        1 NSZ     -0.116500
     12 C12         3.5830    3.1850    4.6480 cp        1 NSZ     -0.042000
     13 C13         3.8030    2.6400    7.0000 ca        1 NSZ     -0.130500
     14 C14         4.4040    4.3050    4.8450 ca        1 NSZ     -0.116500
     15 C15         4.9160    4.5880    6.1100 ca        1 NSZ     -0.130500
     16 N16         1.9360   -0.3790   -0.1890 n         1 NSZ     -0.556900
     17 C17         2.1780   -1.7330   -0.6120 c3        1 NSZ      0.050700
     18 C18         0.8300   -2.4960   -0.7490 c         1 NSZ      0.642100
     19 O19         0.4710   -3.3380    0.1010 o         1 NSZ     -0.632100
     20 C20         3.0670   -2.5280    0.3440 c3        1 NSZ     -0.038300
     21 C22         5.5270   -2.2290   -0.8700 c3        1 NSZ     -0.051000
     22 N29         0.0640   -2.1980   -1.8520 n         1 NSZ     -0.554900
     23 C30        -1.2700   -2.7200   -2.0190 c3        1 NSZ      0.041700
     24 C31        -1.7200   -2.7620   -3.4840 c3        1 NSZ     -0.080400
     25 C32        -0.9030   -3.7450   -4.2920 c3        1 NSZ     -0.088400
     26 C33        -1.4840   -3.8530   -5.7030 c3        1 NSZ      0.176800
     27 N34        -0.7860   -4.8150   -6.5270 nh        1 NSZ     -0.841200
     28 C35        -1.0560   -4.7690   -7.9410 c2        1 NSZ      0.742100
     29 N36         0.0040   -5.2830   -8.7670 nh        1 NSZ     -0.881800
     30 N37        -2.1530   -4.3340   -8.5070 n2        1 NSZ     -0.874100
     31 C38        -2.3080   -1.8820   -1.2210 c         1 NSZ      0.639100
     32 O39        -3.2280   -1.2610   -1.7920 o         1 NSZ     -0.631100
     33 N40        -2.1410   -1.8440    0.1420 n         1 NSZ     -0.558900
     34 C41        -2.9900   -1.0680    1.0090 c3        1 NSZ      0.045700
     35 C42        -2.5380    0.4200    1.0330 c         1 NSZ      0.637100
     36 O43        -1.9760    0.9080    2.0350 o         1 NSZ     -0.632100
     37 C44        -2.9970   -1.5820    2.4590 c3        1 NSZ     -0.040100
     38 C45        -3.4560   -2.9930    2.5500 ca        1 NSZ     -0.091300
     39 C46        -2.5310   -4.0430    2.4970 ca        1 NSZ     -0.124000
     40 C47        -4.8160   -3.2830    2.7050 ca        1 NSZ     -0.124000
     41 C48        -2.9640   -5.3640    2.5960 ca        1 NSZ     -0.127500
     42 C49        -5.2460   -4.6050    2.8040 ca        1 NSZ     -0.127500
     43 C50        -4.3210   -5.6480    2.7500 ca        1 NSZ     -0.128000
     44 C52        -3.2450    4.8840   -0.3290 ca        1 NSZ     -0.084300
     45 C53        -3.4560    5.5810   -1.5240 ca        1 NSZ     -0.126000
     46 C54        -3.0660    6.9150   -1.6380 ca        1 NSZ     -0.128000
     47 C55        -2.4620    7.5620   -0.5610 ca        1 NSZ     -0.130000
     48 C56        -2.2500    6.8730    0.6330 ca        1 NSZ     -0.128000
     49 C57        -2.6400    5.5400    0.7500 ca        1 NSZ     -0.126000
     50 C58        -3.6700    3.4650   -0.1960 c3        1 NSZ     -0.060100
     51 C59        -2.4440    2.5410   -0.2240 c3        1 NSZ      0.087000
     52 N60        -2.7560    1.1430   -0.1130 n         1 NSZ     -0.563900
     53 SG2         4.6650   -1.8450    0.6060 ss        1 NSZ     -0.262200
     54 H11         1.9100    2.7310   -1.3350 hc        1 NSZ      0.089200
     55 H21         0.3370    2.2230   -0.5810 hc        1 NSZ      0.089200
     56 H5          4.8710    3.4160    2.2770 ha        1 NSZ      0.141000
     57 H6          3.9490    2.9170    0.0240 ha        1 NSZ      0.149500
     58 H8          0.1680    1.7910    1.8210 ha        1 NSZ      0.149500
     59 H9          1.0910    2.2950    4.0660 ha        1 NSZ      0.141000
     60 H10         5.0240    3.9800    8.1860 ha        1 NSZ      0.132000
     61 H11A        2.6470    1.4710    5.5930 ha        1 NSZ      0.135000
     62 H13         3.5670    1.9810    7.8490 ha        1 NSZ      0.132500
     63 H14         4.6370    4.9670    3.9980 ha        1 NSZ      0.135000
     64 H15         5.5560    5.4700    6.2560 ha        1 NSZ      0.132500
     65 HN16        2.1080   -0.1540    0.7650 hn        1 NSZ      0.340500
     66 H17         2.6720   -1.7090   -1.6340 h1        1 NSZ      0.086700
     67 H120        2.5940   -2.5840    1.3590 h1        1 NSZ      0.098200
     68 H220        3.1340   -3.5740   -0.0460 h1        1 NSZ      0.098200
     69 H122        6.5690   -1.8600   -0.7200 h1        1 NSZ      0.066367
     70 H222        5.5560   -3.3250   -1.0630 h1        1 NSZ      0.066367
     71 H322        5.0900   -1.7220   -1.7590 h1        1 NSZ      0.066367
     72 HN29        0.3420   -1.4460   -2.4490 hn        1 NSZ      0.349500
     73 H30        -1.2910   -3.7730   -1.5990 h1        1 NSZ      0.094700
     74 H131       -2.8030   -3.0600   -3.4930 hc        1 NSZ      0.071700
     75 H231       -1.6600   -1.7360   -3.9350 hc        1 NSZ      0.071700
     76 H132        0.1650   -3.4070   -4.3440 hc        1 NSZ      0.052700
     77 H232       -0.9150   -4.7500   -3.7940 hc        1 NSZ      0.052700
     78 H133       -2.5590   -4.1870   -5.6260 h1        1 NSZ      0.043200
     79 H233       -1.4820   -2.8210   -6.1660 h1        1 NSZ      0.043200
     80 HN34        0.1860   -4.8780   -6.3020 hn        1 NSZ      0.398800
     81 H136        0.3230   -6.1780   -8.4560 hn        1 NSZ      0.390300
     82 H236       -0.2530   -5.3110   -9.7350 hn        1 NSZ      0.390300
     83 H137       -2.8130   -3.8930   -7.9060 hn        1 NSZ      0.394400
     84 HN40       -1.4540   -2.4250    0.5760 hn        1 NSZ      0.346500
     85 H41        -4.0490   -1.1060    0.6060 h1        1 NSZ      0.084700
     86 H144       -1.9690   -1.4730    2.8990 hc        1 NSZ      0.075200
     87 H244       -3.6770   -0.9080    3.0460 hc        1 NSZ      0.075200
     88 H46        -1.4570   -3.8280    2.3780 ha        1 NSZ      0.135500
     89 H47        -5.5480   -2.4630    2.7510 ha        1 NSZ      0.135500
     90 H48        -2.2320   -6.1840    2.5530 ha        1 NSZ      0.133000
     91 H49        -6.3170   -4.8250    2.9260 ha        1 NSZ      0.133000
     92 H50        -4.6610   -6.6910    2.8290 ha        1 NSZ      0.132000
     93 H53        -3.9340    5.0750   -2.3760 ha        1 NSZ      0.134500
     94 H54        -3.2360    7.4560   -2.5800 ha        1 NSZ      0.132000
     95 H55        -2.1550    8.6140   -0.6520 ha        1 NSZ      0.131000
     96 H56        -1.7750    7.3810    1.4850 ha        1 NSZ      0.132000
     97 H57        -2.4740    4.9970    1.6940 ha        1 NSZ      0.134500
     98 H58        -4.2230    3.3290    0.7720 hc        1 NSZ      0.055200
     99 H59        -1.8990    2.7000   -1.1990 h1        1 NSZ      0.060700
    100 HN60       -3.2480    0.7180   -0.8690 hn        1 NSZ      0.339500
    101 H58A       -4.3730    3.1910   -1.0260 hc        1 NSZ      0.055200
    102 H59A       -1.7530    2.8310    0.6200 h1        1 NSZ      0.060700
@<TRIPOS>BOND
     1    1    2 1   
     2    1    7 1   
     3    1   54 1   
     4    1   55 1   
     5    2    3 2   
     6    2   16 1   
     7    4    5 ar  
     8    4    9 ar  
     9    4   12 1   
    10    5    6 ar  
    11    5   56 1   
    12    6    7 ar  
    13    6   57 1   
    14    7    8 ar  
    15    8    9 ar  
    16    8   58 1   
    17    9   59 1   
    18   10   13 ar  
    19   10   15 ar  
    20   10   60 1   
    21   11   12 ar  
    22   11   13 ar  
    23   11   61 1   
    24   12   14 ar  
    25   13   62 1   
    26   14   15 ar  
    27   14   63 1   
    28   15   64 1   
    29   16   17 1   
    30   16   65 1   
    31   17   18 1   
    32   17   20 1   
    33   17   66 1   
    34   18   19 2   
    35   18   22 1   
    36   20   53 1   
    37   20   67 1   
    38   20   68 1   
    39   21   53 1   
    40   21   69 1   
    41   21   70 1   
    42   21   71 1   
    43   22   23 1   
    44   22   72 1   
    45   23   24 1   
    46   23   31 1   
    47   23   73 1   
    48   24   25 1   
    49   24   74 1   
    50   24   75 1   
    51   25   26 1   
    52   25   76 1   
    53   25   77 1   
    54   26   27 1   
    55   26   78 1   
    56   26   79 1   
    57   27   28 1   
    58   27   80 1   
    59   28   29 1   
    60   28   30 2   
    61   29   81 1   
    62   29   82 1   
    63   30   83 1   
    64   31   32 2   
    65   31   33 1   
    66   33   34 1   
    67   33   84 1   
    68   34   35 1   
    69   34   37 1   
    70   34   85 1   
    71   35   36 2   
    72   35   52 1   
    73   37   38 1   
    74   37   86 1   
    75   37   87 1   
    76   38   39 ar  
    77   38   40 ar  
    78   39   41 ar  
    79   39   88 1   
    80   40   42 ar  
    81   40   89 1   
    82   41   43 ar  
    83   41   90 1   
    84   42   43 ar  
    85   42   91 1   
    86   43   92 1   
    87   44   45 ar  
    88   44   49 ar  
    89   44   50 1   
    90   45   46 ar  
    91   45   93 1   
    92   46   47 ar  
    93   46   94 1   
    94   47   48 ar  
    95   47   95 1   
    96   48   49 ar  
    97   48   96 1   
    98   49   97 1   
    99   50   51 1   
   100   50   98 1   
   101   50  101 1   
   102   51   52 1   
   103   51   99 1   
   104   51  102 1   
   105   52  100 1   
@<TRIPOS>SUBSTRUCTURE
     1 NSZ         1 TEMP              0 ****  ****    0 ROOT
