@<TRIPOS>MOLECULE
NSZ
  102   105     1     0     0
SMALL
bcc


@<TRIPOS>ATOM
      1 C1          5.0080    1.8100    0.2890 c3        1 NSZ     -0.101100
      2 C2          4.9780    0.4050   -0.2830 c         1 NSZ      0.671100
      3 O3          5.8570   -0.4270    0.0330 o         1 NSZ     -0.641100
      4 C4          1.3690    4.0660   -0.0730 cp        1 NSZ     -0.029000
      5 C5          2.3450    4.1220   -1.0790 ca        1 NSZ     -0.119500
      6 C6          3.5210    3.3850   -0.9670 ca        1 NSZ     -0.122000
      7 C7          3.7440    2.5780    0.1550 ca        1 NSZ     -0.113300
      8 C8          2.7750    2.5240    1.1640 ca        1 NSZ     -0.122000
      9 C9          1.5980    3.2590    1.0510 ca        1 NSZ     -0.119500
     10 C10        -2.2350    6.3190   -0.4210 ca        1 NSZ     -0.125000
     11 C11        -1.0910    4.2850    0.2090 ca        1 NSZ     -0.117000
     12 C12         0.1340    4.8380   -0.1920 cp        1 NSZ     -0.042000
     13 C13        -2.2670    5.0220    0.0930 ca        1 NSZ     -0.130500
     14 C14         0.1590    6.1410   -0.7100 ca        1 NSZ     -0.117000
     15 C15        -1.0200    6.8750   -0.8220 ca        1 NSZ     -0.130500
     16 N16         3.9960    0.0730   -1.1920 n         1 NSZ     -0.561900
     17 C17         3.8890   -1.2480   -1.7530 c3        1 NSZ      0.064700
     18 C18         4.8320   -1.3870   -2.9830 c         1 NSZ      0.641100
     19 O19         4.3850   -1.3720   -4.1490 o         1 NSZ     -0.635100
     20 C20         2.4770   -1.6040   -2.2150 c3        1 NSZ     -0.029300
     21 C22        -0.0880   -2.2290   -1.5340 c3        1 NSZ     -0.042000
     22 N29         6.1730   -1.5260   -2.7140 n         1 NSZ     -0.553900
     23 C30         7.1660   -1.5190   -3.7600 c3        1 NSZ      0.042700
     24 C31         8.4610   -2.2390   -3.3640 c3        1 NSZ     -0.080400
     25 C32         8.2380   -3.7200   -3.1590 c3        1 NSZ     -0.089400
     26 C33         9.5820   -4.4100   -2.9190 c3        1 NSZ      0.177800
     27 N34         9.4490   -5.8250   -2.6500 nh        1 NSZ     -0.841200
     28 C35        10.6520   -6.6110   -2.7220 c2        1 NSZ      0.742100
     29 N36        10.4400   -8.0010   -3.0280 nh        1 NSZ     -0.881800
     30 N37        11.8720   -6.1820   -2.5170 n2        1 NSZ     -0.875100
     31 C38         7.5300   -0.0690   -4.1820 c         1 NSZ      0.640100
     32 O39         8.6840    0.3860   -4.0400 o         1 NSZ     -0.630100
     33 N40         6.5070    0.6900   -4.6980 n         1 NSZ     -0.558900
     34 C41         6.6790    2.0660   -5.0850 c3        1 NSZ      0.045700
     35 C42         6.5850    3.0020   -3.8470 c         1 NSZ      0.637100
     36 O43         5.5930    3.7390   -3.6680 o         1 NSZ     -0.632100
     37 C44         5.6320    2.5350   -6.1110 c3        1 NSZ     -0.040100
     38 C45         5.6690    1.7260   -7.3570 ca        1 NSZ     -0.090300
     39 C46         4.8580    0.5930   -7.4900 ca        1 NSZ     -0.124000
     40 C47         6.5060    2.0990   -8.4160 ca        1 NSZ     -0.124000
     41 C48         4.8860   -0.1560   -8.6650 ca        1 NSZ     -0.127500
     42 C49         6.5310    1.3490   -9.5900 ca        1 NSZ     -0.127500
     43 C50         5.7220    0.2200   -9.7170 ca        1 NSZ     -0.128000
     44 C52         8.7590    5.7130   -0.6490 ca        1 NSZ     -0.084300
     45 C53         9.8190    5.5940    0.2570 ca        1 NSZ     -0.126000
     46 C54         9.8350    6.3560    1.4240 ca        1 NSZ     -0.128500
     47 C55         8.7940    7.2420    1.6960 ca        1 NSZ     -0.130000
     48 C56         7.7340    7.3660    0.7970 ca        1 NSZ     -0.128500
     49 C57         7.7160    6.6060   -0.3710 ca        1 NSZ     -0.126000
     50 C58         8.7410    4.9110   -1.9010 c3        1 NSZ     -0.060100
     51 C59         7.7070    3.7820   -1.7930 c3        1 NSZ      0.087000
     52 N60         7.6250    2.9420   -2.9540 n         1 NSZ     -0.563900
     53 SG2         1.4210   -1.7240   -0.8020 ss        1 NSZ     -0.281200
     54 H11         5.2920    1.7120    1.3730 hc        1 NSZ      0.089700
     55 H21         5.8470    2.3510   -0.2340 hc        1 NSZ      0.089700
     56 H5          2.1790    4.7490   -1.9690 ha        1 NSZ      0.141000
     57 H6          4.2810    3.4500   -1.7670 ha        1 NSZ      0.150500
     58 H8          2.9440    1.8990    2.0540 ha        1 NSZ      0.150500
     59 H9          0.8460    3.2130    1.8530 ha        1 NSZ      0.141000
     60 H10        -3.1640    6.8990   -0.5110 ha        1 NSZ      0.132000
     61 H11A       -1.1210    3.2610    0.6110 ha        1 NSZ      0.136000
     62 H13        -3.2230    4.5800    0.4080 ha        1 NSZ      0.132500
     63 H14         1.1150    6.5860   -1.0230 ha        1 NSZ      0.136000
     64 H15        -0.9910    7.8980   -1.2260 ha        1 NSZ      0.132500
     65 HN16        3.2870    0.7340   -1.4180 hn        1 NSZ      0.339500
     66 H17         4.2180   -2.0010   -0.9690 h1        1 NSZ      0.102700
     67 H120        2.5200   -2.5820   -2.7560 h1        1 NSZ      0.084200
     68 H220        2.0920   -0.8460   -2.9410 h1        1 NSZ      0.084200
     69 H122        0.0100   -3.2060   -2.0580 h1        1 NSZ      0.066700
     70 H222       -0.4730   -1.4750   -2.2570 h1        1 NSZ      0.066700
     71 H322       -0.8160   -2.3360   -0.6970 h1        1 NSZ      0.066700
     72 HN29        6.4940   -1.4410   -1.7720 hn        1 NSZ      0.351500
     73 H30         6.7240   -2.0350   -4.6680 h1        1 NSZ      0.093700
     74 H131        9.2040   -2.0680   -4.1890 hc        1 NSZ      0.071200
     75 H231        8.8910   -1.7750   -2.4370 hc        1 NSZ      0.071200
     76 H132        7.5600   -3.8900   -2.2820 hc        1 NSZ      0.053700
     77 H232        7.7370   -4.1570   -4.0630 hc        1 NSZ      0.053700
     78 H133       10.2470   -4.2130   -3.8120 h1        1 NSZ      0.043200
     79 H233       10.0740   -3.9360   -2.0200 h1        1 NSZ      0.043200
     80 HN34        8.6670   -6.2340   -3.1220 hn        1 NSZ      0.398800
     81 H136       11.2890   -8.5300   -2.9840 hn        1 NSZ      0.390300
     82 H236        9.7340   -8.4100   -2.4500 hn        1 NSZ      0.390300
     83 H137       11.9790   -5.1980   -2.4100 hn        1 NSZ      0.394400
     84 HN40        5.6220    0.2700   -4.8840 hn        1 NSZ      0.346500
     85 H41         7.7110    2.1880   -5.5380 h1        1 NSZ      0.084700
     86 H144        5.8490    3.6140   -6.3360 hc        1 NSZ      0.075200
     87 H244        4.6100    2.4970   -5.6470 hc        1 NSZ      0.075200
     88 H46         4.1940    0.2890   -6.6650 ha        1 NSZ      0.135500
     89 H47         7.1440    2.9910   -8.3200 ha        1 NSZ      0.135500
     90 H48         4.2460   -1.0460   -8.7620 ha        1 NSZ      0.133000
     91 H49         7.1910    1.6490  -10.4180 ha        1 NSZ      0.133000
     92 H50         5.7420   -0.3710  -10.6440 ha        1 NSZ      0.132000
     93 H53        10.6450    4.8970    0.0460 ha        1 NSZ      0.134000
     94 H54        10.6730    6.2580    2.1310 ha        1 NSZ      0.132000
     95 H55         8.8070    7.8430    2.6170 ha        1 NSZ      0.131000
     96 H56         6.9120    8.0650    1.0080 ha        1 NSZ      0.132000
     97 H57         6.8810    6.7050   -1.0810 ha        1 NSZ      0.134000
     98 H58         9.7570    4.4790   -2.1000 hc        1 NSZ      0.055200
     99 H59         6.6920    4.2380   -1.5970 h1        1 NSZ      0.061200
    100 HN60        8.4130    2.3690   -3.1660 hn        1 NSZ      0.339500
    101 H58A        8.4830    5.5770   -2.7680 hc        1 NSZ      0.055200
    102 H59A        7.9780    3.1320   -0.9110 h1        1 NSZ      0.061200
@<TRIPOS>BOND
     1    1    2 1   
     2    1    7 1   
     3    1   54 1   
     4    1   55 1   
     5    2    3 2   
     6    2   16 1   
     7    4    5 ar  
     8    4    9 ar  
     9    4   12 1   
    10    5    6 ar  
    11    5   56 1   
    12    6    7 ar  
    13    6   57 1   
    14    7    8 ar  
    15    8    9 ar  
    16    8   58 1   
    17    9   59 1   
    18   10   13 ar  
    19   10   15 ar  
    20   10   60 1   
    21   11   12 ar  
    22   11   13 ar  
    23   11   61 1   
    24   12   14 ar  
    25   13   62 1   
    26   14   15 ar  
    27   14   63 1   
    28   15   64 1   
    29   16   17 1   
    30   16   65 1   
    31   17   18 1   
    32   17   20 1   
    33   17   66 1   
    34   18   19 2   
    35   18   22 1   
    36   20   53 1   
    37   20   67 1   
    38   20   68 1   
    39   21   53 1   
    40   21   69 1   
    41   21   70 1   
    42   21   71 1   
    43   22   23 1   
    44   22   72 1   
    45   23   24 1   
    46   23   31 1   
    47   23   73 1   
    48   24   25 1   
    49   24   74 1   
    50   24   75 1   
    51   25   26 1   
    52   25   76 1   
    53   25   77 1   
    54   26   27 1   
    55   26   78 1   
    56   26   79 1   
    57   27   28 1   
    58   27   80 1   
    59   28   29 1   
    60   28   30 2   
    61   29   81 1   
    62   29   82 1   
    63   30   83 1   
    64   31   32 2   
    65   31   33 1   
    66   33   34 1   
    67   33   84 1   
    68   34   35 1   
    69   34   37 1   
    70   34   85 1   
    71   35   36 2   
    72   35   52 1   
    73   37   38 1   
    74   37   86 1   
    75   37   87 1   
    76   38   39 ar  
    77   38   40 ar  
    78   39   41 ar  
    79   39   88 1   
    80   40   42 ar  
    81   40   89 1   
    82   41   43 ar  
    83   41   90 1   
    84   42   43 ar  
    85   42   91 1   
    86   43   92 1   
    87   44   45 ar  
    88   44   49 ar  
    89   44   50 1   
    90   45   46 ar  
    91   45   93 1   
    92   46   47 ar  
    93   46   94 1   
    94   47   48 ar  
    95   47   95 1   
    96   48   49 ar  
    97   48   96 1   
    98   49   97 1   
    99   50   51 1   
   100   50   98 1   
   101   50  101 1   
   102   51   52 1   
   103   51   99 1   
   104   51  102 1   
   105   52  100 1   
@<TRIPOS>SUBSTRUCTURE
     1 NSZ         1 TEMP              0 ****  ****    0 ROOT
