@<TRIPOS>MOLECULE
NSZ
  102    91     1     0     0
SMALL
bcc


@<TRIPOS>ATOM
      1 C1         -2.3960   -0.0010    2.5670 c3        1 NSZ     -0.142000
      2 C2         -2.2150   -1.2860    1.7530 c2        1 NSZ      0.308000
      3 O3         -1.3730   -2.0750    2.0610 o         1 NSZ     -0.396000
      4 C4          0.8110    0.5280    5.4720 c1        1 NSZ     -0.042000
      5 C5          1.1120    0.3730    4.1170 c1        1 NSZ     -0.115700
      6 C6          0.0790    0.1690    3.1850 c1        1 NSZ     -0.115700
      7 C7         -1.2480    0.1210    3.6110 c1        1 NSZ     -0.106000
      8 C8         -1.5490    0.2750    4.9630 c1        1 NSZ     -0.133000
      9 C9         -0.5080    0.4800    5.9010 c1        1 NSZ     -0.090000
     10 C10         3.8100    1.3260    8.3070 c1        1 NSZ     -0.115700
     11 C11         2.1400    2.1160    6.7710 c1        1 NSZ     -0.115700
     12 C12         1.8530    0.7990    6.4040 c1        1 NSZ     -0.042000
     13 C13         3.1210    2.3730    7.7260 c1        1 NSZ     -0.115700
     14 C14         2.5440   -0.2480    6.9880 c1        1 NSZ     -0.090000
     15 C15         3.5230    0.0120    7.9400 c1        1 NSZ     -0.115700
     16 N16        -3.1130   -1.5750    0.6380 n         1 NSZ     -0.364000
     17 C17        -2.6860   -2.4280   -0.4160 c3        1 NSZ      0.022000
     18 C18        -2.6740   -1.6370   -1.7430 c2        1 NSZ      0.294000
     19 O19        -3.4380   -0.6620   -1.8940 o         1 NSZ     -0.394000
     20 C20        -3.6360   -3.5940   -0.5330 c3        1 NSZ     -0.299000
     21 C22        -4.5710   -5.9640    0.8400 c3        1 NSZ     -0.347000
     22 N29        -1.8310   -2.0860   -2.8570 n         1 NSZ     -0.367000
     23 C30        -1.3470   -1.1530   -3.7940 c3        1 NSZ      0.020000
     24 C31        -1.2500   -1.8190   -5.1840 c3        1 NSZ     -0.163000
     25 C32        -2.2250   -1.1200   -6.1670 c3        1 NSZ     -0.170000
     26 C33        -1.7280   -1.3030   -7.5960 c3        1 NSZ     -0.049000
     27 N34        -1.6300   -0.0030   -8.2430 n3        1 NSZ     -0.333000
     28 C35        -1.2790    0.0860   -9.6260 c1        1 NSZ      0.157000
     29 N36        -0.0130    0.6100  -10.0040 n2        1 NSZ     -0.323000
     30 N37        -2.1390   -0.3200  -10.5610 n1        1 NSZ     -0.342000
     31 C38         0.0370   -0.6740   -3.3640 c2        1 NSZ      0.277000
     32 O39         0.9210   -1.4770   -3.1830 o         1 NSZ     -0.388000
     33 N40         0.3310    0.7170   -3.3440 n         1 NSZ     -0.358000
     34 C41         1.2430    1.2530   -2.3390 c3        1 NSZ      0.006000
     35 C42         0.5360    1.3160   -1.0030 c2        1 NSZ      0.281000
     36 O43        -0.6670    1.5230   -0.9590 o         1 NSZ     -0.377000
     37 C44         1.6760    2.6300   -2.7400 c3        1 NSZ     -0.123000
     38 C45         3.2340    2.6910   -2.8080 c2        1 NSZ     -0.085000
     39 C46         3.8630    3.2160   -3.9460 c2        1 NSZ     -0.126000
     40 C47         3.9940    2.3020   -1.7150 c1        1 NSZ     -0.115000
     41 C48         5.2520    3.3460   -3.9780 c1        1 NSZ     -0.134000
     42 C49         5.3870    2.4340   -1.7500 c1        1 NSZ     -0.115700
     43 C50         6.0120    2.9570   -2.8840 c1        1 NSZ     -0.115700
     44 C52         0.2850    0.4540    3.8850 c1        1 NSZ     -0.072000
     45 C53        -0.0920   -0.8350    4.2890 c2        1 NSZ     -0.072000
     46 C54        -0.9730   -1.0020    5.3650 c1        1 NSZ     -0.148000
     47 C55        -1.4720    0.1070    6.0300 c1        1 NSZ     -0.115700
     48 C56        -1.0950    1.3930    5.6270 c1        1 NSZ     -0.115700
     49 C57        -0.2140    1.5600    4.5500 c1        1 NSZ     -0.105000
     50 C58         1.3520    0.6490    2.6720 c2        1 NSZ     -0.145000
     51 C59         0.7050    1.4960    1.5430 c3        1 NSZ     -0.023000
     52 N60         1.3200    1.1620    0.2750 n         1 NSZ     -0.379000
     53 SG2        -3.8040   -4.3880    1.0540 ss        1 NSZ      0.083000
     54 H11        -2.3730    0.7650    1.9690 hc        1 NSZ      0.126500
     55 H21        -3.2590   -0.0260    3.0290 hc        1 NSZ      0.126500
     56 H5          2.0680    0.4070    3.8080 ha        1 NSZ      0.125800
     57 H6          0.2930    0.0610    2.2310 ha        1 NSZ      0.125800
     58 H8         -2.4860    0.2410    5.2650 ha        1 NSZ      0.131000
     59 H9         -0.7180    0.5890    6.8520 ha        1 NSZ      0.124000
     60 H10         4.4970    1.5060    8.9750 ha        1 NSZ      0.125800
     61 H11A        1.6490    2.8610    6.3570 ha        1 NSZ      0.125800
     62 H13         3.3260    3.3070    7.9870 ha        1 NSZ      0.125800
     63 H14         2.3480   -1.1540    6.7370 ha        1 NSZ      0.124000
     64 H15         4.0060   -0.7200    8.3480 ha        1 NSZ      0.125800
     65 HN16       -3.9900   -1.2880    0.6680 hn        1 NSZ      0.247000
     66 H17        -1.7780   -2.7610   -0.2240 h1        1 NSZ      0.127000
     67 H120       -3.2820   -4.2450   -1.1920 h1        1 NSZ      0.143500
     68 H220       -4.5090   -3.2740   -0.8300 h1        1 NSZ      0.143500
     69 H122       -4.5280   -6.4700    1.6860 h1        1 NSZ      0.106333
     70 H222       -4.0990   -6.4630    0.1340 h1        1 NSZ      0.106333
     71 H322       -5.4960   -5.8400    0.5840 h1        1 NSZ      0.106333
     72 HN29       -1.6540   -2.9660   -2.9630 hn        1 NSZ      0.265000
     73 H30        -1.9680   -0.3760   -3.8400 h1        1 NSZ      0.123000
     74 H131       -1.4870   -2.7710   -5.1080 hc        1 NSZ      0.107500
     75 H231       -0.3190   -1.7370   -5.5250 hc        1 NSZ      0.107500
     76 H132       -2.2690   -0.1820   -5.9630 hc        1 NSZ      0.096000
     77 H232       -3.1250   -1.5190   -6.0780 hc        1 NSZ      0.096000
     78 H133       -2.3470   -1.8580   -8.0810 h1        1 NSZ      0.080500
     79 H233       -0.8560   -1.7250   -7.5850 h1        1 NSZ      0.080500
     80 HN34       -1.7180    0.7410   -7.7580 hn        1 NSZ      0.200000
     81 H136        0.1730    0.7570  -10.8790 hn        1 NSZ      0.183500
     82 H236        0.5900    0.8640   -9.3580 hn        1 NSZ      0.183500
     83 H137       -2.9600   -0.6590  -10.3170 DU        1 NSZ      0.151000
     84 HN40        0.0060    1.2630   -4.0070 hn        1 NSZ      0.256000
     85 H41         2.0280    0.6710   -2.2660 h1        1 NSZ      0.138000
     86 H144        1.3010    2.8470   -3.6220 hc        1 NSZ      0.111000
     87 H244        1.3520    3.2820   -2.0750 hc        1 NSZ      0.111000
     88 H46         3.3210    3.4950   -4.7290 ha        1 NSZ      0.129000
     89 H47         3.5520    1.9320   -0.9110 ha        1 NSZ      0.158000
     90 H48         5.6900    3.7120   -4.7700 ha        1 NSZ      0.130000
     91 H49         5.9160    2.1650   -0.9930 ha        1 NSZ      0.125800
     92 H50         7.0050    3.0510   -2.9080 ha        1 NSZ      0.125800
     93 H53         0.2570   -1.6160    3.8200 ha        1 NSZ      0.106000
     94 H54        -1.2360   -1.8930    5.6450 ha        1 NSZ      0.127000
     95 H55        -2.1050   -0.0120    6.8040 ha        1 NSZ      0.125800
     96 H56        -1.4450    2.1730    6.0950 ha        1 NSZ      0.125800
     97 H57         0.0440    2.4390    4.2740 ha        1 NSZ      0.125000
     98 H58         1.6060   -0.2280    2.3170 ha        1 NSZ      0.096000
     99 H59         0.8400    2.4520    1.7330 h1        1 NSZ      0.090500
    100 HN60        2.2230    0.9490    0.2430 hn        1 NSZ      0.246000
    101 H58A        2.1740    1.1230    3.0190 ha        1 NSZ      0.096000
    102 H59A       -0.2370    1.3070    1.5020 h1        1 NSZ      0.090500
@<TRIPOS>BOND
     1    1    2 1   
     2    1    7 1   
     3    1   54 1   
     4    1   55 1   
     5    2    3 1   
     6    2   16 1   
     7    4    9 1   
     8    5    6 1   
     9    5   56 1   
    10    6   57 1   
    11    7    8 1   
    12    8   58 1   
    13    9   59 1   
    14   10   15 1   
    15   10   60 1   
    16   11   13 1   
    17   11   61 1   
    18   12   14 1   
    19   13   62 1   
    20   14   63 1   
    21   15   64 1   
    22   16   17 1   
    23   16   65 1   
    24   17   18 1   
    25   17   20 1   
    26   17   66 1   
    27   18   19 1   
    28   18   22 1   
    29   20   53 1   
    30   20   67 1   
    31   20   68 1   
    32   21   53 1   
    33   21   69 1   
    34   21   70 1   
    35   21   71 1   
    36   22   23 1   
    37   22   72 1   
    38   23   24 1   
    39   23   31 1   
    40   23   73 1   
    41   24   25 1   
    42   24   74 1   
    43   24   75 1   
    44   25   26 1   
    45   25   76 1   
    46   25   77 1   
    47   26   27 1   
    48   26   78 1   
    49   26   79 1   
    50   27   28 1   
    51   27   80 1   
    52   28   30 1   
    53   29   81 1   
    54   29   82 1   
    55   31   32 1   
    56   31   33 1   
    57   33   34 1   
    58   33   84 1   
    59   34   35 1   
    60   34   37 1   
    61   34   85 1   
    62   35   36 1   
    63   35   52 1   
    64   37   38 1   
    65   37   86 1   
    66   37   87 1   
    67   38   39 1   
    68   38   40 1   
    69   39   41 1   
    70   39   88 1   
    71   40   89 1   
    72   41   90 1   
    73   42   43 1   
    74   42   91 1   
    75   43   92 1   
    76   44   45 1   
    77   44   49 1   
    78   45   46 1   
    79   45   93 1   
    80   46   94 1   
    81   47   48 1   
    82   47   95 1   
    83   48   96 1   
    84   49   97 1   
    85   50   51 1   
    86   50   98 1   
    87   50  101 1   
    88   51   52 1   
    89   51   99 1   
    90   51  102 1   
    91   52  100 1   
@<TRIPOS>SUBSTRUCTURE
     1 NSZ         1 TEMP              0 ****  ****    0 ROOT
