@<TRIPOS>MOLECULE
NSZ
  108   111     1     0     0
SMALL
bcc


@<TRIPOS>ATOM
      1 C1          0.0000    0.0000    0.0000 c3        1 NSZ     -0.021100
      2 C2          1.5070    0.0000    0.0000 c         1 NSZ      0.305100
      3 O3          2.1130    0.0000    1.0510 o         1 NSZ     -0.358100
      4 C4         -1.4270   -0.0010    4.0310 cp        1 NSZ      0.012000
      5 C5         -1.1930    1.2040    3.3720 ca        1 NSZ     -0.000500
      6 C6         -0.7330    1.1990    2.0700 ca        1 NSZ     -0.093000
      7 C7         -0.5030   -0.0000    1.4210 ca        1 NSZ     -0.027300
      8 C8         -0.7330   -1.2000    2.0690 ca        1 NSZ     -0.093000
      9 C9         -1.1940   -1.2060    3.3700 ca        1 NSZ     -0.000500
     10 C10        -2.8260   -0.0030    8.0460 ca        1 NSZ      0.201000
     11 C11        -2.1490   -1.2080    6.0900 ca        1 NSZ     -0.038500
     12 C12        -1.9150   -0.0020    5.4310 cp        1 NSZ      0.098000
     13 C13        -2.6030   -1.2020    7.3930 ca        1 NSZ     -0.075000
     14 C14        -2.1510    1.2030    6.0900 ca        1 NSZ     -0.038500
     15 C15        -2.6010    1.1970    7.3940 ca        1 NSZ     -0.075000
     16 N16         2.1820   -0.0000   -1.1670 ny        1 NSZ      0.166200
     17 C17         3.6470    0.0000   -1.1670 c3        1 NSZ     -0.026500
     18 C18         4.1500    0.6010   -2.4530 c         1 NSZ      0.039100
     19 O19         3.3610    0.9910   -3.2890 o         1 NSZ     -0.649100
     20 C20         4.1560   -1.4370   -1.0410 c3        1 NSZ     -0.002300
     21 C22         4.2480   -3.8350    0.4770 c3        1 NSZ      0.161000
     22 N29         5.4740    0.7050   -2.6770 ny        1 NSZ      0.269200
     23 C30         5.9630    1.2890   -3.9270 c3        1 NSZ     -0.094500
     24 C31         6.0150    0.2090   -5.0090 c3        1 NSZ     -0.040400
     25 C32         4.5960   -0.2750   -5.3150 c3        1 NSZ     -0.041400
     26 C33         4.6470   -1.3560   -6.3960 c3        1 NSZ     -0.034200
     27 N34         3.2890   -1.8190   -6.6900 ny        1 NSZ      0.065000
     28 C35         3.0840   -2.7960   -7.6360 c2        1 NSZ     -0.060900
     29 N36         1.8090   -3.2300   -7.9110 nz        1 NSZ      0.197400
     30 N37         4.0990   -3.3100   -8.2710 n2        1 NSZ     -0.226100
     31 C38         7.3440    1.8510   -3.7130 c         1 NSZ      0.255100
     32 O39         7.8700    1.7730   -2.6230 o         1 NSZ     -0.404100
     33 N40         7.9970    2.4430   -4.7340 ny        1 NSZ      0.204200
     34 C41         9.3400    2.9900   -4.5260 c3        1 NSZ     -0.147500
     35 C42         9.6000    4.0820   -5.5320 c         1 NSZ      0.375100
     36 O43         8.7470    4.3730   -6.3440 o         1 NSZ     -0.414100
     37 C44        10.3760    1.8780   -4.7000 c3        1 NSZ      0.044900
     38 C45        10.1930    0.8470   -3.6170 ca        1 NSZ     -0.185300
     39 C46         9.3470   -0.2270   -3.8210 ca        1 NSZ     -0.098500
     40 C47        10.8770    0.9710   -2.4220 ca        1 NSZ     -0.098500
     41 C48         9.1800   -1.1740   -2.8270 ca        1 NSZ     -0.065500
     42 C49        10.7090    0.0260   -1.4280 ca        1 NSZ     -0.065500
     43 C50         9.8580   -1.0450   -1.6290 ca        1 NSZ     -0.031000
     44 C52        12.6940    7.4550   -7.2980 ca        1 NSZ     -0.180300
     45 C53        12.3660    8.7650   -6.9990 ca        1 NSZ     -0.081500
     46 C54        12.6100    9.7660   -7.9200 ca        1 NSZ     -0.069000
     47 C55        13.1810    9.4590   -9.1390 ca        1 NSZ     -0.025000
     48 C56        13.5090    8.1500   -9.4390 ca        1 NSZ     -0.069000
     49 C57        13.2650    7.1480   -8.5190 ca        1 NSZ     -0.081500
     50 C58        12.4340    6.3640   -6.2910 c3        1 NSZ      0.059900
     51 C59        11.0320    5.7930   -6.5090 c3        1 NSZ     -0.032200
     52 N60        10.7800    4.7320   -5.5300 ny        1 NSZ      0.139200
     53 SG2         3.5500   -2.1600    0.5080 ss        1 NSZ     -0.341200
     54 H11        -0.3610   -0.8840   -0.5110 hc        1 NSZ      0.066200
     55 H21        -0.3610    0.8850   -0.5110 hc        1 NSZ      0.066200
     56 H5         -1.4310    2.1430    3.8590 ha        1 NSZ      0.148500
     57 H6         -0.5350    2.1350    1.5630 ha        1 NSZ      0.127500
     58 H8         -0.5360   -2.1360    1.5610 ha        1 NSZ      0.127500
     59 H9         -1.4650   -2.2250    3.6200 ha        1 NSZ      0.148500
     60 H10        -3.1810   -0.0030    9.0690 ha        1 NSZ      0.154000
     61 H11A       -1.9030   -2.1450    5.6070 ha        1 NSZ      0.139000
     62 H13        -2.7830   -2.1380    7.9070 ha        1 NSZ      0.165000
     63 H14        -1.9760    2.1440    5.5810 ha        1 NSZ      0.139000
     64 H15        -2.7820    2.1330    7.9090 ha        1 NSZ      0.165000
     65 HN16        1.8910    0.8140   -1.6710 hn        1 NSZ      0.269800
     66 H17         4.0070    0.5850   -0.3290 hx        1 NSZ      0.123700
     67 H120        3.7950   -2.0230   -1.8780 h1        1 NSZ      0.043700
     68 H220        5.2390   -1.4370   -1.0400 h1        1 NSZ      0.043700
     69 H122        5.3290   -3.7770    0.4950 h1        1 NSZ      0.057700
     70 H222        3.9280   -4.3430   -0.4250 h1        1 NSZ      0.057700
     71 H322        3.9020   -4.3860    1.3440 h1        1 NSZ      0.057700
     72 HN29        5.8520   -0.2200   -2.6200 hn        1 NSZ      0.224300
     73 H30         5.2950    2.0820   -4.2410 hx        1 NSZ      0.128700
     74 H131        6.6130   -0.6240   -4.6590 hc        1 NSZ      0.053700
     75 H231        6.4580    0.6190   -5.9080 hc        1 NSZ      0.053700
     76 H132        4.1520   -0.6850   -4.4160 hc        1 NSZ      0.062200
     77 H232        3.9990    0.5580   -5.6660 hc        1 NSZ      0.062200
     78 H133        5.2450   -2.1890   -6.0460 hx        1 NSZ      0.092200
     79 H233        5.0910   -0.9470   -7.2960 hx        1 NSZ      0.092200
     80 HN34        2.7640   -1.0180   -6.9800 hn        1 NSZ      0.246800
     81 H136        1.4550   -3.7430   -7.1280 hn        1 NSZ      0.253133
     82 H236        1.8250   -3.8230   -8.7170 hn        1 NSZ      0.253133
     83 H137        5.0290   -2.9960   -8.0730 hn        1 NSZ      0.377400
     84 HN40        8.0690    1.7640   -5.4660 hn        1 NSZ      0.263300
     85 H41         9.4120    3.3970   -3.5250 hx        1 NSZ      0.140700
     86 H144       11.3720    2.3000   -4.6330 hc        1 NSZ      0.061700
     87 H244       10.2460    1.4120   -5.6690 hc        1 NSZ      0.061700
     88 H46         8.8160   -0.3280   -4.7590 ha        1 NSZ      0.096000
     89 H47        11.5440    1.8100   -2.2640 ha        1 NSZ      0.096000
     90 H48         8.5150   -2.0140   -2.9850 ha        1 NSZ      0.127000
     91 H49        11.2430    0.1250   -0.4900 ha        1 NSZ      0.127000
     92 H50         9.7200   -1.7820   -0.8470 ha        1 NSZ      0.139000
     93 H53        11.9190    9.0060   -6.0420 ha        1 NSZ      0.097500
     94 H54        12.3710   10.7950   -7.6770 ha        1 NSZ      0.133000
     95 H55        13.3720   10.2440   -9.8610 ha        1 NSZ      0.136000
     96 H56        13.9730    7.9130  -10.3890 ha        1 NSZ      0.133000
     97 H57        13.5220    6.1230   -8.7540 ha        1 NSZ      0.097500
     98 H58        12.5070    6.7720   -5.2900 hc        1 NSZ      0.035200
     99 H59        10.9590    5.3850   -7.5100 hx        1 NSZ      0.098200
    100 HN60       10.8850    5.1420   -4.6230 hn        1 NSZ      0.279800
    101 H58A       13.1680    5.5770   -6.4140 hc        1 NSZ      0.035200
    102 H59A       10.2980    6.5800   -6.3850 hx        1 NSZ      0.098200
    103 H162        1.8900   -0.8140   -1.6710 hn        1 NSZ      0.269800
    104 H292        5.8520    1.2580   -1.9330 hn        1 NSZ      0.224300
    105 H342        2.9040   -2.1610   -5.8320 hn        1 NSZ      0.246800
    106 H363        1.2180   -2.4420   -8.0900 hn        1 NSZ      0.253133
    107 H402        7.4210    3.1980   -5.0490 hn        1 NSZ      0.263300
    108 H602       11.4920    4.0430   -5.6680 hn        1 NSZ      0.279800
@<TRIPOS>BOND
     1    1    2 1   
     2    1    7 1   
     3    1   54 1   
     4    1   55 1   
     5    2    3 2   
     6    2   16 1   
     7    4    5 ar  
     8    4    9 ar  
     9    4   12 1   
    10    5    6 ar  
    11    5   56 1   
    12    6    7 ar  
    13    6   57 1   
    14    7    8 ar  
    15    8    9 ar  
    16    8   58 1   
    17    9   59 1   
    18   10   13 ar  
    19   10   15 ar  
    20   10   60 1   
    21   11   12 ar  
    22   11   13 ar  
    23   11   61 1   
    24   12   14 ar  
    25   13   62 1   
    26   14   15 ar  
    27   14   63 1   
    28   15   64 1   
    29   16   17 1   
    30   16   65 1   
    31   16  103 1   
    32   17   18 1   
    33   17   20 1   
    34   17   66 1   
    35   18   19 2   
    36   18   22 1   
    37   20   53 1   
    38   20   67 1   
    39   20   68 1   
    40   21   53 1   
    41   21   69 1   
    42   21   70 1   
    43   21   71 1   
    44   22   23 1   
    45   22   72 1   
    46   22  104 1   
    47   23   24 1   
    48   23   31 1   
    49   23   73 1   
    50   24   25 1   
    51   24   74 1   
    52   24   75 1   
    53   25   26 1   
    54   25   76 1   
    55   25   77 1   
    56   26   27 1   
    57   26   78 1   
    58   26   79 1   
    59   27   28 1   
    60   27   80 1   
    61   27  105 1   
    62   28   29 1   
    63   28   30 2   
    64   29   81 1   
    65   29   82 1   
    66   29  106 1   
    67   30   83 1   
    68   31   32 2   
    69   31   33 1   
    70   33   34 1   
    71   33   84 1   
    72   33  107 1   
    73   34   35 1   
    74   34   37 1   
    75   34   85 1   
    76   35   36 2   
    77   35   52 1   
    78   37   38 1   
    79   37   86 1   
    80   37   87 1   
    81   38   39 ar  
    82   38   40 ar  
    83   39   41 ar  
    84   39   88 1   
    85   40   42 ar  
    86   40   89 1   
    87   41   43 ar  
    88   41   90 1   
    89   42   43 ar  
    90   42   91 1   
    91   43   92 1   
    92   44   45 ar  
    93   44   49 ar  
    94   44   50 1   
    95   45   46 ar  
    96   45   93 1   
    97   46   47 ar  
    98   46   94 1   
    99   47   48 ar  
   100   47   95 1   
   101   48   49 ar  
   102   48   96 1   
   103   49   97 1   
   104   50   51 1   
   105   50   98 1   
   106   50  101 1   
   107   51   52 1   
   108   51   99 1   
   109   51  102 1   
   110   52  100 1   
   111   52  108 1   
@<TRIPOS>SUBSTRUCTURE
     1 NSZ         1 TEMP              0 ****  ****    0 ROOT
