@<TRIPOS>MOLECULE
NT
   61    62     1     0     0
SMALL
bcc


@<TRIPOS>ATOM
      1 C1          1.7210    0.3140   -0.6010 c2        1 NT       0.619100
      2 N1          1.9130    1.1290    0.3570 n2        1 NT      -0.604100
      3 N2          2.4620    0.2160   -1.9060 n4        1 NT      -0.865600
      4 N3          0.6160   -0.7040   -0.4330 n4        1 NT      -0.722000
      5 C2         -0.7340   -0.1710   -0.8160 c3        1 NT       0.011800
      6 C3         -0.9890   -0.3070   -2.3380 c         1 NT       0.637100
      7 O1          0.0150   -0.5480   -3.0670 o         1 NT      -0.711100
      8 N4         -2.2610   -0.1700   -2.7640 n         1 NT      -0.317100
      9 C4         -2.6900   -0.2980   -4.0910 cc        1 NT      -0.121400
     10 C5         -4.0420   -0.0740   -4.5390 cc        1 NT      -0.133000
     11 C6         -4.0580   -0.3390   -5.9210 cd        1 NT      -0.163900
     12 N5         -2.7640   -0.7110   -6.3220 na        1 NT       0.014900
     13 C8         -2.3750   -1.0790   -7.6560 c3        1 NT       0.002600
     14 C7         -1.9290   -0.6900   -5.2280 cd        1 NT      -0.081300
     15 C9         -5.1960   -0.2920   -6.8700 c         1 NT       0.721700
     16 O2         -5.1280   -0.7820   -8.0150 o         1 NT      -0.599100
     17 N6         -6.3550    0.3270   -6.4160 n         1 NT      -0.438100
     18 C10        -7.5180    0.4580   -7.1610 cc        1 NT       0.001600
     19 C11        -7.8330   -0.0420   -8.4480 cc        1 NT      -0.110000
     20 C12        -9.1720    0.3750   -8.7460 cd        1 NT      -0.293900
     21 N7         -9.6570    1.1230   -7.6440 na        1 NT       0.049900
     22 C14       -10.9630    1.7190   -7.5550 c3        1 NT      -0.016400
     23 C13        -8.6840    1.1810   -6.6950 cd        1 NT      -0.071300
     24 C15        -9.9840    0.1520   -9.8940 c         1 NT       0.601700
     25 O3        -11.1280    0.5170  -10.1410 o         1 NT      -0.463100
     26 N8         -9.3220   -0.6880  -11.0120 n4        1 NT      -0.673800
     27 C16       -10.2510   -0.8740  -12.1600 c3        1 NT       0.099800
     28 C17        -9.6770   -1.7000  -13.3100 c3        1 NT      -0.190700
     29 C18       -10.7030   -1.8280  -14.4230 c2        1 NT       0.518200
     30 N9        -11.8890   -1.3810  -14.5490 n2        1 NT      -0.666100
     31 N10       -10.2010   -2.6390  -15.5860 n4        1 NT      -0.822600
     32 HN1         2.6170    1.8470    0.3880 hn        1 NT       0.547400
     33 HN21        1.7950    0.1720   -2.7130 hn        1 NT       0.509467
     34 HN22        3.0580   -0.6260   -1.9210 hn        1 NT       0.509467
     35 HN3         0.5880   -0.9810    0.5710 hn        1 NT       0.511300
     36 H21        -1.4930   -0.7790   -0.2320 hx        1 NT       0.157700
     37 H22        -0.8190    0.9110   -0.5020 hx        1 NT       0.157700
     38 HN4        -2.9890    0.0210   -2.1020 hn        1 NT       0.356500
     39 H5         -4.8830    0.2260   -3.9180 ha        1 NT       0.169000
     40 H81        -2.6440   -0.2490   -8.3650 h1        1 NT       0.086033
     41 H82        -1.2700   -1.2670   -7.6890 h1        1 NT       0.086033
     42 H83        -2.9330   -2.0050   -7.9650 h1        1 NT       0.086033
     43 H7         -0.8670   -0.9440   -5.2910 h4        1 NT       0.205000
     44 HN6        -6.3590    0.7470   -5.5130 hn        1 NT       0.338500
     45 H11        -7.1690   -0.6290   -9.0810 ha        1 NT       0.184000
     46 H141      -11.0710    2.2490   -6.5710 h1        1 NT       0.098367
     47 H142      -11.1010    2.4530   -8.3960 h1        1 NT       0.098367
     48 H143      -11.7490    0.9180   -7.6400 h1        1 NT       0.098367
     49 H13        -8.8250    1.7100   -5.7440 h4        1 NT       0.214000
     50 HN8        -9.0550   -1.5950  -10.6150 hn        1 NT       0.461800
     51 H161      -11.1850   -1.3670  -11.7530 hx        1 NT       0.130700
     52 H162      -10.5340    0.1600  -12.5260 hx        1 NT       0.130700
     53 H171       -9.3970   -2.7280  -12.9460 hc        1 NT       0.102700
     54 H172       -8.7510   -1.2060  -13.7170 hc        1 NT       0.102700
     55 HN9       -12.3270   -0.8310  -13.8410 hn        1 NT       0.500400
     56 HN01       -9.9690   -3.5860  -15.2660 hn        1 NT       0.487133
     57 HN02      -10.9200   -2.7090  -16.3300 hn        1 NT       0.487133
     58 H23         3.0670    1.0440   -2.0310 hn        1 NT       0.509467
     59 H32         0.8140   -1.5440   -1.0060 hn        1 NT       0.511300
     60 H821       -8.4690   -0.2050  -11.3130 hn        1 NT       0.461800
     61 H103       -9.3660   -2.1910  -15.9790 hn        1 NT       0.487133
@<TRIPOS>BOND
     1    1    2 2   
     2    1    3 1   
     3    1    4 1   
     4    2   32 1   
     5    3   33 1   
     6    3   34 1   
     7    3   58 1   
     8    4    5 1   
     9    4   35 1   
    10    4   59 1   
    11    5    6 1   
    12    5   36 1   
    13    5   37 1   
    14    6    7 2   
    15    6    8 1   
    16    8    9 1   
    17    8   38 1   
    18    9   10 1   
    19    9   14 2   
    20   10   11 2   
    21   10   39 1   
    22   11   12 1   
    23   11   15 1   
    24   12   13 1   
    25   12   14 1   
    26   13   40 1   
    27   13   41 1   
    28   13   42 1   
    29   14   43 1   
    30   15   16 2   
    31   15   17 1   
    32   17   18 1   
    33   17   44 1   
    34   18   19 1   
    35   18   23 2   
    36   19   20 2   
    37   19   45 1   
    38   20   21 1   
    39   20   24 1   
    40   21   22 1   
    41   21   23 1   
    42   22   46 1   
    43   22   47 1   
    44   22   48 1   
    45   23   49 1   
    46   24   25 2   
    47   24   26 1   
    48   26   27 1   
    49   26   50 1   
    50   26   60 1   
    51   27   28 1   
    52   27   51 1   
    53   27   52 1   
    54   28   29 1   
    55   28   53 1   
    56   28   54 1   
    57   29   30 2   
    58   29   31 1   
    59   30   55 1   
    60   31   56 1   
    61   31   57 1   
    62   31   61 1   
@<TRIPOS>SUBSTRUCTURE
     1 NT          1 TEMP              0 ****  ****    0 ROOT
