@<TRIPOS>MOLECULE
NT
   57    58     1     0     0
SMALL
bcc


@<TRIPOS>ATOM
      1 C1          1.3060    0.6760    9.1510 c2        1 NT       0.752100
      2 N1          0.6450   -0.1040    9.9730 n2        1 NT      -0.882100
      3 N2          2.4510    1.4620    9.5100 nh        1 NT      -0.932800
      4 N3          0.9000    0.7900    7.7750 nh        1 NT      -0.792200
      5 C2         -0.0750   -0.1700    7.3050 c3        1 NT       0.121800
      6 C3         -0.1720   -0.1570    5.7700 c         1 NT       0.658100
      7 O1          0.8390    0.0190    5.0620 o         1 NT      -0.608100
      8 N4         -1.4260   -0.3990    5.2440 n         1 NT      -0.438100
      9 C4         -1.7190   -0.4810    3.8870 cc        1 NT      -0.026400
     10 C5         -0.8200   -0.3450    2.7760 cc        1 NT      -0.149000
     11 C6         -1.5870   -0.5110    1.6040 cd        1 NT      -0.184900
     12 N5         -2.9190   -0.7420    1.9690 na        1 NT      -0.004100
     13 C8         -4.0070   -0.9570    1.0660 c3        1 NT       0.018600
     14 C7         -3.0130   -0.7270    3.3500 cd        1 NT      -0.185300
     15 C9         -1.1460   -0.4640    0.1920 c         1 NT       0.712700
     16 O2         -1.9500   -0.6150   -0.7530 o         1 NT      -0.624100
     17 N6          0.2060   -0.2430   -0.0110 n         1 NT      -0.434100
     18 C10         0.8150   -0.1630   -1.2570 cc        1 NT      -0.020400
     19 C11         0.2170   -0.3050   -2.5550 cc        1 NT      -0.147000
     20 C12         1.2480   -0.1400   -3.5040 cd        1 NT      -0.187900
     21 N7          2.4490    0.0960   -2.8240 na        1 NT      -0.007100
     22 C14         3.7230    0.3150   -3.4350 c3        1 NT       0.020600
     23 C13         2.2020    0.0850   -1.4620 cd        1 NT      -0.186300
     24 C15         1.1580   -0.1860   -4.9760 c         1 NT       0.700700
     25 O3          2.1520    0.0240   -5.7100 o         1 NT      -0.639100
     26 N8         -0.0710   -0.5120   -5.5180 n         1 NT      -0.554900
     27 C16        -0.3060   -0.4730   -6.9340 c3        1 NT       0.090000
     28 C17        -0.8890    0.8480   -7.4450 c3        1 NT      -0.153700
     29 C18        -0.9690    0.7910   -8.9700 c2        1 NT       0.610200
     30 N9         -2.0990    0.4630   -9.5170 n2        1 NT      -0.843100
     31 N10         0.2170    1.1740   -9.6270 nh        1 NT      -0.965800
     32 HN1         0.9290   -0.0640   10.9260 hn        1 NT       0.394400
     33 HN21        2.4210    1.8000   10.4470 hn        1 NT       0.393300
     34 HN22        2.7020    2.1780    8.8630 hn        1 NT       0.393300
     35 HN3         1.6790    0.8660    7.1440 hn        1 NT       0.415800
     36 H21        -1.0600    0.0930    7.7850 h1        1 NT       0.076200
     37 H22         0.1760   -1.2340    7.5910 h1        1 NT       0.076200
     38 HN4        -2.1930   -0.5100    5.8670 hn        1 NT       0.322500
     39 H5          0.2480   -0.1500    2.8560 ha        1 NT       0.182000
     40 H81        -4.1200   -0.0650    0.3910 h1        1 NT       0.066033
     41 H82        -3.7930   -1.8530    0.4230 h1        1 NT       0.066033
     42 H83        -4.9520   -1.1200    1.6470 h1        1 NT       0.066033
     43 H7         -3.9610   -0.8850    3.8620 h4        1 NT       0.173000
     44 HN6         0.7990   -0.1300    0.7790 hn        1 NT       0.328500
     45 H11        -0.8370   -0.5040   -2.7420 ha        1 NT       0.183000
     46 H141        3.9870   -0.5650   -4.0840 h1        1 NT       0.064700
     47 H142        3.6770    1.2270   -4.0900 h1        1 NT       0.064700
     48 H143        4.5030    0.4520   -2.6420 h1        1 NT       0.064700
     49 H13         2.9940    0.2470   -0.7330 h4        1 NT       0.173000
     50 HN8        -0.8660   -0.5410   -4.9240 hn        1 NT       0.319500
     51 H161        0.6720   -0.6750   -7.4600 h1        1 NT       0.066200
     52 H162       -1.0250   -1.3050   -7.1870 h1        1 NT       0.066200
     53 H171       -1.9130    1.0110   -7.0160 hc        1 NT       0.072700
     54 H172       -0.2510    1.7140   -7.1270 hc        1 NT       0.072700
     55 HN9        -2.1240    0.4320  -10.5130 hn        1 NT       0.381400
     56 HN01        0.3280    0.8880  -10.5710 hn        1 NT       0.401800
     57 HN02        1.0470    1.1370   -9.0830 hn        1 NT       0.401800
@<TRIPOS>BOND
     1    1    2 2   
     2    1    3 1   
     3    1    4 1   
     4    2   32 1   
     5    3   33 1   
     6    3   34 1   
     7    4    5 1   
     8    4   35 1   
     9    5    6 1   
    10    5   36 1   
    11    5   37 1   
    12    6    7 2   
    13    6    8 1   
    14    8    9 1   
    15    8   38 1   
    16    9   10 1   
    17    9   14 2   
    18   10   11 2   
    19   10   39 1   
    20   11   12 1   
    21   11   15 1   
    22   12   13 1   
    23   12   14 1   
    24   13   40 1   
    25   13   41 1   
    26   13   42 1   
    27   14   43 1   
    28   15   16 2   
    29   15   17 1   
    30   17   18 1   
    31   17   44 1   
    32   18   19 1   
    33   18   23 2   
    34   19   20 2   
    35   19   45 1   
    36   20   21 1   
    37   20   24 1   
    38   21   22 1   
    39   21   23 1   
    40   22   46 1   
    41   22   47 1   
    42   22   48 1   
    43   23   49 1   
    44   24   25 2   
    45   24   26 1   
    46   26   27 1   
    47   26   50 1   
    48   27   28 1   
    49   27   51 1   
    50   27   52 1   
    51   28   29 1   
    52   28   53 1   
    53   28   54 1   
    54   29   30 2   
    55   29   31 1   
    56   30   55 1   
    57   31   56 1   
    58   31   57 1   
@<TRIPOS>SUBSTRUCTURE
     1 NT          1 TEMP              0 ****  ****    0 ROOT
