@<TRIPOS>MOLECULE
NT
   61    62     1     0     0
SMALL
bcc


@<TRIPOS>ATOM
      1 C1          1.7410    0.3400   -0.6250 c2        1 NT       0.619100
      2 N1          1.9260    1.1480    0.3390 n2        1 NT      -0.604100
      3 N2          2.4770    0.2650   -1.9350 nz        1 NT      -0.865600
      4 N3          0.6500   -0.6950   -0.4630 ny        1 NT      -0.722000
      5 C2         -0.7090   -0.1760   -0.8350 c3        1 NT       0.011800
      6 C3         -0.9690   -0.3000   -2.3570 c         1 NT       0.637100
      7 O1          0.0350   -0.5200   -3.0930 o         1 NT      -0.711100
      8 N4         -2.2450   -0.1760   -2.7760 ns        1 NT      -0.317100
      9 C4         -2.6770   -0.2960   -4.1030 cc        1 NT      -0.121400
     10 C5         -4.0330   -0.0830   -4.5430 cc        1 NT      -0.133000
     11 C6         -4.0520   -0.3350   -5.9280 cd        1 NT      -0.163900
     12 N5         -2.7560   -0.6890   -6.3380 na        1 NT       0.014900
     13 C8         -2.3680   -1.0380   -7.6760 c3        1 NT       0.002600
     14 C7         -1.9170   -0.6680   -5.2460 cd        1 NT      -0.081300
     15 C9         -5.1950   -0.2930   -6.8710 c         1 NT       0.721700
     16 O2         -5.1270   -0.7730   -8.0200 o         1 NT      -0.599100
     17 N6         -6.3580    0.3100   -6.4070 ns        1 NT      -0.438100
     18 C10        -7.5260    0.4360   -7.1460 cc        1 NT       0.001600
     19 C11        -7.8420   -0.0590   -8.4350 cc        1 NT      -0.110000
     20 C12        -9.1860    0.3480   -8.7250 cd        1 NT      -0.293900
     21 N7         -9.6730    1.0840   -7.6160 na        1 NT       0.049900
     22 C14       -10.9850    1.6660   -7.5170 c3        1 NT      -0.016400
     23 C13        -8.6960    1.1440   -6.6700 cd        1 NT      -0.071300
     24 C15       -10.0000    0.1250   -9.8710 c         1 NT       0.601700
     25 O3        -11.1490    0.4820  -10.1110 o         1 NT      -0.463100
     26 N8         -9.3350   -0.7020  -10.9970 ny        1 NT      -0.673800
     27 C16       -10.2670   -0.8860  -12.1440 c3        1 NT       0.099800
     28 C17        -9.6910   -1.7010  -13.3010 c3        1 NT      -0.190700
     29 C18       -10.7200   -1.8290  -14.4110 c2        1 NT       0.518200
     30 N9        -11.9090   -1.3900  -14.5300 n2        1 NT      -0.666100
     31 N10       -10.2170   -2.6300  -15.5800 nz        1 NT      -0.822600
     32 HN1         2.6190    1.8750    0.3750 hn        1 NT       0.547400
     33 HN21        3.0850   -0.5680   -1.9610 hn        1 NT       0.509467
     34 HN22        3.0700    1.1030   -2.0540 hn        1 NT       0.509467
     35 HN3         0.6310   -0.9830    0.5380 hn        1 NT       0.511300
     36 H21        -1.4560   -0.8010   -0.2540 hx        1 NT       0.157700
     37 H22        -0.8070    0.9010   -0.5090 hx        1 NT       0.157700
     38 HN4        -2.9710   -0.0010   -2.1090 hn        1 NT       0.356500
     39 H5         -4.8750    0.2000   -3.9150 ha        1 NT       0.169000
     40 H81        -2.6510   -0.2060   -8.3770 h1        1 NT       0.086033
     41 H82        -2.9160   -1.9700   -7.9920 h1        1 NT       0.086033
     42 H83        -1.2610   -1.2130   -7.7150 h1        1 NT       0.086033
     43 H7         -0.8510   -0.9090   -5.3170 h4        1 NT       0.205000
     44 HN6        -6.3620    0.7230   -5.5000 hn        1 NT       0.338500
     45 H11        -7.1750   -0.6360   -9.0750 ha        1 NT       0.184000
     46 H141      -11.1330    2.4050   -8.3530 h1        1 NT       0.098367
     47 H142      -11.7630    0.8590   -7.6040 h1        1 NT       0.098367
     48 H143      -11.0920    2.1890   -6.5290 h1        1 NT       0.098367
     49 H13        -8.8380    1.6650   -5.7150 h4        1 NT       0.214000
     50 HN8        -8.4880   -0.2090  -11.2980 hn        1 NT       0.461800
     51 H161      -11.1960   -1.3890  -11.7370 hx        1 NT       0.130700
     52 H162      -10.5590    0.1480  -12.5010 hx        1 NT       0.130700
     53 H171       -9.4010   -2.7280  -12.9440 hc        1 NT       0.102700
     54 H172       -8.7700   -1.1970  -13.7080 hc        1 NT       0.102700
     55 HN9       -12.3480   -0.8460  -13.8170 hn        1 NT       0.500400
     56 HN01       -9.9780   -3.5780  -15.2670 hn        1 NT       0.487133
     57 HN02      -10.9380   -2.7000  -16.3230 hn        1 NT       0.487133
     58 H23         1.8070    0.2200   -2.7390 hn        1 NT       0.509467
     59 H32         0.8580   -1.5260   -1.0460 hn        1 NT       0.511300
     60 H821       -9.0600   -1.6090  -10.6080 hn        1 NT       0.461800
     61 H103       -9.3850   -2.1740  -15.9730 hn        1 NT       0.487133
@<TRIPOS>BOND
     1    1    2 2   
     2    1    3 1   
     3    1    4 1   
     4    2   32 1   
     5    3   33 1   
     6    3   34 1   
     7    3   58 1   
     8    4    5 1   
     9    4   35 1   
    10    4   59 1   
    11    5    6 1   
    12    5   36 1   
    13    5   37 1   
    14    6    7 2   
    15    6    8 1   
    16    8    9 1   
    17    8   38 1   
    18    9   10 1   
    19    9   14 2   
    20   10   11 2   
    21   10   39 1   
    22   11   12 1   
    23   11   15 1   
    24   12   13 1   
    25   12   14 1   
    26   13   40 1   
    27   13   41 1   
    28   13   42 1   
    29   14   43 1   
    30   15   16 2   
    31   15   17 1   
    32   17   18 1   
    33   17   44 1   
    34   18   19 1   
    35   18   23 2   
    36   19   20 2   
    37   19   45 1   
    38   20   21 1   
    39   20   24 1   
    40   21   22 1   
    41   21   23 1   
    42   22   46 1   
    43   22   47 1   
    44   22   48 1   
    45   23   49 1   
    46   24   25 2   
    47   24   26 1   
    48   26   27 1   
    49   26   50 1   
    50   26   60 1   
    51   27   28 1   
    52   27   51 1   
    53   27   52 1   
    54   28   29 1   
    55   28   53 1   
    56   28   54 1   
    57   29   30 2   
    58   29   31 1   
    59   30   55 1   
    60   31   56 1   
    61   31   57 1   
    62   31   61 1   
@<TRIPOS>SUBSTRUCTURE
     1 NT          1 TEMP              0 ****  ****    0 ROOT
