@<TRIPOS>MOLECULE
NT
   63    64     1     0     0
SMALL
bcc


@<TRIPOS>ATOM
      1 C1          1.7260    1.1990    0.3700 c2        1 NT       0.633100
      2 N1          1.7060    2.4500    0.1660 n2        1 NT      -0.605100
      3 N2          2.4550    0.4370    1.4460 n4        1 NT      -0.857600
      4 N3          0.9170    0.3020   -0.5740 n4        1 NT      -0.746000
      5 C2          0.2260    1.0540   -1.6900 c3        1 NT       0.046800
      6 C3         -0.5580    0.1130   -2.6250 c         1 NT       0.507100
      7 O1         -0.6490   -1.0900   -2.4460 o         1 NT      -0.350100
      8 N4         -1.2060    0.7580   -3.8260 n4        1 NT      -0.463200
      9 C4         -2.0510   -0.0940   -4.6310 cc        1 NT      -0.212400
     10 C5         -3.2920    0.2880   -5.2550 cc        1 NT      -0.046000
     11 C6         -3.7180   -0.8200   -6.0190 cd        1 NT      -0.207900
     12 N5         -2.7720   -1.8680   -5.8540 na        1 NT       0.055900
     13 C8         -2.8610   -3.1890   -6.4370 c3        1 NT      -0.031400
     14 C7         -1.7720   -1.4420   -5.0350 cd        1 NT       0.011700
     15 C9         -4.9200   -1.0600   -6.8290 c         1 NT       0.567700
     16 O2         -5.3710   -2.1560   -7.1200 o         1 NT      -0.354100
     17 N6         -5.6570    0.1500   -7.3980 n4        1 NT      -0.483200
     18 C10        -6.9890   -0.1360   -7.8750 cc        1 NT      -0.183400
     19 C11        -7.4350   -0.2440   -9.2340 cc        1 NT      -0.034000
     20 C12        -8.8200   -0.5280   -9.1850 cd        1 NT      -0.225900
     21 N7         -9.2150   -0.5980   -7.8220 na        1 NT       0.059900
     22 C14       -10.5460   -0.8950   -7.3400 c3        1 NT      -0.031400
     23 C13        -8.1310   -0.3620   -7.0340 cd        1 NT      -0.004300
     24 C15        -9.8030   -0.8330  -10.2220 c         1 NT       0.589700
     25 O3        -10.8560   -1.4310  -10.0550 o         1 NT      -0.376100
     26 N8         -9.5430   -0.3570  -11.6480 n4        1 NT      -0.667800
     27 C16       -10.6910   -0.7090  -12.5550 c3        1 NT       0.101800
     28 C17       -10.5380   -0.2060  -13.9910 c3        1 NT      -0.192700
     29 C18       -11.7530   -0.5980  -14.8220 c2        1 NT       0.515200
     30 N9        -12.7880   -1.2860  -14.5460 n2        1 NT      -0.650100
     31 N10       -11.6990   -0.0710  -16.2290 n4        1 NT      -0.819600
     32 HN1         2.1830    3.1690    0.6970 hn        1 NT       0.588400
     33 HN21        2.9590    1.1130    2.0660 hn        1 NT       0.524800
     34 HN22        3.1700   -0.2030    1.0530 hn        1 NT       0.524800
     35 HN3         0.1970   -0.1960   -0.0160 hn        1 NT       0.503800
     36 H21        -0.4920    1.8060   -1.2290 hx        1 NT       0.185700
     37 H22         1.0120    1.6180   -2.2860 hx        1 NT       0.185700
     38 HN4        -0.4470    1.1140   -4.4410 hn        1 NT       0.494300
     39 H5         -3.7990    1.2480   -5.1540 ha        1 NT       0.189000
     40 H81        -1.9290   -3.7730   -6.2020 h1        1 NT       0.120367
     41 H82        -2.9740   -3.1010   -7.5530 h1        1 NT       0.120367
     42 H83        -3.7580   -3.7260   -6.0130 h1        1 NT       0.120367
     43 H7         -0.9260   -2.0930   -4.7620 h4        1 NT       0.236000
     44 HN6        -5.7210    0.8800   -6.6750 hn        1 NT       0.475800
     45 H11        -6.8220   -0.1380  -10.1290 ha        1 NT       0.185000
     46 H141      -11.2840   -0.1850   -7.8060 h1        1 NT       0.118700
     47 H142      -10.8190   -1.9530   -7.6200 h1        1 NT       0.118700
     48 H143      -10.5780   -0.7830   -6.2210 h1        1 NT       0.118700
     49 H13        -8.2030   -0.3590   -5.9360 h4        1 NT       0.230000
     50 HN8        -8.6820   -0.7940  -11.9980 hn        1 NT       0.470800
     51 H161      -10.7840   -1.8380  -12.5430 hx        1 NT       0.137700
     52 H162      -11.6260   -0.2700  -12.0900 hx        1 NT       0.137700
     53 H171      -10.4320    0.9150  -14.0000 hc        1 NT       0.106700
     54 H172       -9.6180   -0.6520  -14.4640 hc        1 NT       0.106700
     55 HN9       -12.9460   -1.6940  -13.6500 hn        1 NT       0.497400
     56 HN01      -10.8610   -0.4300  -16.7020 hn        1 NT       0.494800
     57 HN02      -12.5350   -0.3730  -16.7700 hn        1 NT       0.494800
     58 H23         1.8080   -0.1020    2.0520 hn        1 NT       0.524800
     59 H32         1.5550   -0.3990   -0.9920 hn        1 NT       0.503800
     60 H42        -1.7760    1.5620   -3.5080 hn        1 NT       0.494300
     61 H62        -5.1020    0.5160   -8.1870 hn        1 NT       0.475800
     62 H821       -9.4120    0.6630  -11.6370 hn        1 NT       0.470800
     63 H103      -11.6790    0.9570  -16.2140 hn        1 NT       0.494800
@<TRIPOS>BOND
     1    1    2 2   
     2    1    3 1   
     3    1    4 1   
     4    2   32 1   
     5    3   33 1   
     6    3   34 1   
     7    3   58 1   
     8    4    5 1   
     9    4   35 1   
    10    4   59 1   
    11    5    6 1   
    12    5   36 1   
    13    5   37 1   
    14    6    7 2   
    15    6    8 1   
    16    8    9 1   
    17    8   38 1   
    18    8   60 1   
    19    9   10 1   
    20    9   14 2   
    21   10   11 2   
    22   10   39 1   
    23   11   12 1   
    24   11   15 1   
    25   12   13 1   
    26   12   14 1   
    27   13   40 1   
    28   13   41 1   
    29   13   42 1   
    30   14   43 1   
    31   15   16 2   
    32   15   17 1   
    33   17   18 1   
    34   17   44 1   
    35   17   61 1   
    36   18   19 1   
    37   18   23 2   
    38   19   20 2   
    39   19   45 1   
    40   20   21 1   
    41   20   24 1   
    42   21   22 1   
    43   21   23 1   
    44   22   46 1   
    45   22   47 1   
    46   22   48 1   
    47   23   49 1   
    48   24   25 2   
    49   24   26 1   
    50   26   27 1   
    51   26   50 1   
    52   26   62 1   
    53   27   28 1   
    54   27   51 1   
    55   27   52 1   
    56   28   29 1   
    57   28   53 1   
    58   28   54 1   
    59   29   30 2   
    60   29   31 1   
    61   30   55 1   
    62   31   56 1   
    63   31   57 1   
    64   31   63 1   
@<TRIPOS>SUBSTRUCTURE
     1 NT          1 TEMP              0 ****  ****    0 ROOT
