@<TRIPOS>MOLECULE
NT2
   36    31     1     0     0
SMALL
bcc


@<TRIPOS>ATOM
      1 S81        -2.8180    0.1780   -1.5740 ss        1 NT2      2.870000
      2 O82        -1.3140    0.0740   -1.3930 o         1 NT2     -0.750000
      3 C83        -0.8610   -0.0410   -0.0800 c3        1 NT2      0.094000
      4 C84        -0.0060    1.1850    0.2560 c3        1 NT2      0.013000
      5 O85         1.2610    0.9050    0.1930 os        1 NT2     -0.302000
      6 C86        -0.3520    1.6750    1.7140 c3        1 NT2      0.056000
      7 O87         0.2360    2.9710    1.9350 os        1 NT2     -0.747000
      8 C8C        -0.0690   -1.3930    0.0670 c3        1 NT2      0.101000
      9 O8D         0.4530   -1.5220    1.2430 os        1 NT2     -0.773000
     10 C8I         1.0210   -1.0800   -1.0320 c3        1 NT2      0.040000
     11 O8J         0.3810   -0.8670   -2.2560 os        1 NT2     -0.744000
     12 C8O         1.8630    0.1490   -0.6930 c3        1 NT2      0.137000
     13 O8P         2.0850    0.9280   -1.9150 oh        1 NT2     -0.378000
     14 S88        -0.0450    3.6110    3.2800 s4        1 NT2      2.080800
     15 O8A         0.4390    5.0570    3.3150 o         1 NT2     -0.706900
     16 O8B        -1.5240    3.7910    3.5030 o         1 NT2     -0.706900
     17 O89         0.5820    2.7940    4.3920 os        1 NT2     -1.093000
     18 O8Q        -3.3480    1.4860   -1.0250 o         1 NT2     -1.094000
     19 O8R        -3.1930    0.3030   -3.0510 o         1 NT2     -1.094000
     20 O8S        -3.5090   -1.0110   -0.9290 os        1 NT2     -1.093000
     21 S8E         0.3380   -2.9120    1.8860 s4        1 NT2      2.092800
     22 O8F         1.0930   -2.9740    3.1940 o         1 NT2     -0.705400
     23 O8G         1.0620   -3.9410    1.0850 o         1 NT2     -0.705400
     24 O8H        -1.1080   -3.2820    2.0730 os        1 NT2     -1.093000
     25 S8K         0.8420   -1.7800   -3.4330 s4        1 NT2      2.085800
     26 O8L         0.3690   -1.2400   -4.7670 o         1 NT2     -0.702400
     27 O8M         2.3590   -1.7300   -3.6140 o         1 NT2     -0.702400
     28 O8N         0.3710   -3.1820   -3.2140 os        1 NT2     -1.093000
     29 H83        -1.6150   -0.0610    0.5070 h1        1 NT2      0.095000
     30 H84        -0.2040    1.8870   -0.3660 h1        1 NT2      0.116000
     31 H861        0.0100    1.0350    2.3700 h1        1 NT2      0.077500
     32 H862       -1.3330    1.7360    1.8190 h1        1 NT2      0.077500
     33 H8C        -0.5990   -2.1340   -0.1700 h1        1 NT2      0.110000
     34 H8I         1.5970   -1.8300   -1.1150 h1        1 NT2      0.097000
     35 H8O         2.6960   -0.1290   -0.3490 h2        1 NT2      0.111000
     36 H8P         2.8390    1.3470   -1.8570 ho        1 NT2      0.229000
@<TRIPOS>BOND
     1    1   18 1   
     2    1   19 1   
     3    2    3 1   
     4    3    4 1   
     5    3    8 1   
     6    3   29 1   
     7    4    5 1   
     8    4    6 1   
     9    4   30 1   
    10    5   12 1   
    11    6    7 1   
    12    6   31 1   
    13    6   32 1   
    14    7   14 1   
    15    8    9 1   
    16    8   10 1   
    17    8   33 1   
    18    9   21 1   
    19   10   11 1   
    20   10   12 1   
    21   10   34 1   
    22   11   25 1   
    23   12   13 1   
    24   12   35 1   
    25   13   36 1   
    26   14   15 1   
    27   14   16 1   
    28   21   22 1   
    29   21   23 1   
    30   25   26 1   
    31   25   27 1   
@<TRIPOS>SUBSTRUCTURE
     1 NT2         1 TEMP              0 ****  ****    0 ROOT
