@<TRIPOS>MOLECULE
NT2
   36    36     1     0     0
SMALL
bcc


@<TRIPOS>ATOM
      1 S81         0.2080   -1.6840    0.3120 s6        1 NT2      1.691300
      2 O82         1.4850   -0.5540    0.2880 os        1 NT2     -0.612500
      3 C83         2.4150   -0.3010    1.3100 c3        1 NT2      0.202100
      4 C84         1.9130    0.9020    2.1470 c3        1 NT2      0.127100
      5 O85         2.4160    2.1610    1.7200 os        1 NT2     -0.435600
      6 C86         2.1460    0.7020    3.6600 c3        1 NT2      0.181400
      7 O87         1.1620    1.4030    4.3770 os        1 NT2     -0.612500
      8 C8C         3.8170   -0.1530    0.6420 c3        1 NT2      0.215100
      9 O8D         4.7430   -0.7800    1.4980 os        1 NT2     -0.638500
     10 C8I         4.3230    1.2950    0.4060 c3        1 NT2      0.165100
     11 O8J         3.9130    1.7600   -0.8480 os        1 NT2     -0.600500
     12 C8O         3.8220    2.2160    1.5340 c3        1 NT2      0.314900
     13 O8P         4.0190    3.5830    1.2720 oh        1 NT2     -0.632800
     14 S88         1.2320    1.6900    6.0480 s6        1 NT2      1.687300
     15 O8A         2.5620    2.0390    6.3330 o         1 NT2     -0.776867
     16 O8B         0.3130    2.7410    6.2270 o         1 NT2     -0.776867
     17 O89         0.8230    0.4920    6.6560 o         1 NT2     -0.776867
     18 O8Q         0.4640   -2.5300    1.4000 o         1 NT2     -0.771867
     19 O8R        -0.9500   -0.9020    0.4480 o         1 NT2     -0.771867
     20 O8S         0.2850   -2.3210   -0.9380 o         1 NT2     -0.771867
     21 S8E         5.9290   -1.9420    1.1070 s6        1 NT2      1.697300
     22 O8F         5.7420   -2.2720   -0.2400 o         1 NT2     -0.770533
     23 O8G         7.1390   -1.2840    1.3820 o         1 NT2     -0.770533
     24 O8H         5.6780   -2.9960    1.9990 o         1 NT2     -0.770533
     25 S8K         4.8030    2.7740   -1.8930 s6        1 NT2      1.690300
     26 O8L         6.1540    2.6290   -1.5540 o         1 NT2     -0.771533
     27 O8M         4.4860    2.3300   -3.1850 o         1 NT2     -0.771533
     28 O8N         4.2790    4.0490   -1.6030 o         1 NT2     -0.771533
     29 H83         2.4680   -1.2050    1.9890 h1        1 NT2      0.056700
     30 H84         0.8000    1.0140    1.9740 h1        1 NT2      0.091700
     31 H861        3.1630    1.0760    3.9560 h1        1 NT2      0.027700
     32 H862        2.0590   -0.3910    3.9130 h1        1 NT2      0.027700
     33 H8C         3.7810   -0.6780   -0.3550 h1        1 NT2      0.077700
     34 H8I         5.4530    1.2840    0.4470 h1        1 NT2      0.052700
     35 H8O         4.3730    1.9910    2.4890 h2        1 NT2      0.062700
     36 H8P         3.5750    3.7830    0.4310 ho        1 NT2      0.436000
@<TRIPOS>BOND
     1    1    2 1   
     2    1   18 1   
     3    1   19 1   
     4    1   20 1   
     5    2    3 1   
     6    3    4 1   
     7    3    8 1   
     8    3   29 1   
     9    4    5 1   
    10    4    6 1   
    11    4   30 1   
    12    5   12 1   
    13    6    7 1   
    14    6   31 1   
    15    6   32 1   
    16    7   14 1   
    17    8    9 1   
    18    8   10 1   
    19    8   33 1   
    20    9   21 1   
    21   10   11 1   
    22   10   12 1   
    23   10   34 1   
    24   11   25 1   
    25   12   13 1   
    26   12   35 1   
    27   13   36 1   
    28   14   15 1   
    29   14   16 1   
    30   14   17 1   
    31   21   22 1   
    32   21   23 1   
    33   21   24 1   
    34   25   26 1   
    35   25   27 1   
    36   25   28 1   
@<TRIPOS>SUBSTRUCTURE
     1 NT2         1 TEMP              0 ****  ****    0 ROOT
