@<TRIPOS>MOLECULE
NT2
   36    36     1     0     0
SMALL
bcc


@<TRIPOS>ATOM
      1 S81         2.2160   -0.7610   -0.8140 s6        1 NT2      1.691300
      2 O82         0.8680    0.1290   -1.3610 os        1 NT2     -0.612500
      3 C83        -0.3240    0.3810   -0.6620 c3        1 NT2      0.202100
      4 C84        -1.3740   -0.6810   -1.0770 c3        1 NT2      0.127100
      5 O85        -2.2140   -0.2830   -2.1520 os        1 NT2     -0.435600
      6 C86        -2.2120   -1.1750    0.1220 c3        1 NT2      0.181400
      7 O87        -2.6280   -2.4950   -0.1180 os        1 NT2     -0.612500
      8 C8C        -0.7040    1.8740   -0.9080 c3        1 NT2      0.215100
      9 O8D        -1.2080    2.3710    0.3100 os        1 NT2     -0.638500
     10 C8I        -1.7810    2.1460   -1.9910 c3        1 NT2      0.165100
     11 O8J        -1.1860    2.3150   -3.2460 os        1 NT2     -0.600500
     12 C8O        -2.8080    0.9980   -2.0100 c3        1 NT2      0.314900
     13 O8P        -3.6700    1.0350   -3.1200 oh        1 NT2     -0.632800
     14 S88        -3.8090   -3.2970    0.8010 s6        1 NT2      1.687300
     15 O8A        -4.8320   -2.3650    1.0300 o         1 NT2     -0.776867
     16 O8B        -4.1840   -4.3690   -0.0310 o         1 NT2     -0.776867
     17 O89        -3.1560   -3.7140    1.9740 o         1 NT2     -0.776867
     18 O8Q         2.0440   -0.9080    0.5690 o         1 NT2     -0.771867
     19 O8R         2.1580   -1.9640   -1.5350 o         1 NT2     -0.771867
     20 O8S         3.3210    0.0300   -1.1710 o         1 NT2     -0.771867
     21 S8E        -0.7630    3.7940    1.1390 s6        1 NT2      1.697300
     22 O8F         0.3160    4.3470    0.4410 o         1 NT2     -0.770533
     23 O8G        -1.9330    4.5700    1.1130 o         1 NT2     -0.770533
     24 O8H        -0.4450    3.3470    2.4310 o         1 NT2     -0.770533
     25 S8K        -1.6910    3.3880   -4.4720 s6        1 NT2      1.690300
     26 O8L        -2.4240    4.4060   -3.8500 o         1 NT2     -0.771533
     27 O8M        -0.5050    3.8250   -5.0810 o         1 NT2     -0.771533
     28 O8N        -2.4660    2.5590   -5.3060 o         1 NT2     -0.771533
     29 H83        -0.1290    0.2690    0.4470 h1        1 NT2      0.056700
     30 H84        -0.8250   -1.5690   -1.5130 h1        1 NT2      0.091700
     31 H861       -3.1120   -0.5200    0.2710 h1        1 NT2      0.027700
     32 H862       -1.5820   -1.1640    1.0530 h1        1 NT2      0.027700
     33 H8C         0.2350    2.4250   -1.2020 h1        1 NT2      0.077700
     34 H8I        -2.3310    3.0940   -1.7110 h1        1 NT2      0.052700
     35 H8O        -3.4610    1.0500   -1.0950 h2        1 NT2      0.062700
     36 H8P        -3.1160    1.0240   -3.9170 ho        1 NT2      0.436000
@<TRIPOS>BOND
     1    1    2 1   
     2    1   18 1   
     3    1   19 1   
     4    1   20 1   
     5    2    3 1   
     6    3    4 1   
     7    3    8 1   
     8    3   29 1   
     9    4    5 1   
    10    4    6 1   
    11    4   30 1   
    12    5   12 1   
    13    6    7 1   
    14    6   31 1   
    15    6   32 1   
    16    7   14 1   
    17    8    9 1   
    18    8   10 1   
    19    8   33 1   
    20    9   21 1   
    21   10   11 1   
    22   10   12 1   
    23   10   34 1   
    24   11   25 1   
    25   12   13 1   
    26   12   35 1   
    27   13   36 1   
    28   14   15 1   
    29   14   16 1   
    30   14   17 1   
    31   21   22 1   
    32   21   23 1   
    33   21   24 1   
    34   25   26 1   
    35   25   27 1   
    36   25   28 1   
@<TRIPOS>SUBSTRUCTURE
     1 NT2         1 TEMP              0 ****  ****    0 ROOT
