@<TRIPOS>MOLECULE
NT2
   36    36     1     0     0
SMALL
bcc


@<TRIPOS>ATOM
      1 S81         0.2260   -1.7030    0.3040 s6        1 NT2      1.691300
      2 O82         1.4980   -0.5670    0.2830 os        1 NT2     -0.612500
      3 C83         2.4210   -0.3050    1.3090 c3        1 NT2      0.202100
      4 C84         1.9070    0.8980    2.1390 c3        1 NT2      0.127100
      5 O85         2.4070    2.1580    1.7110 os        1 NT2     -0.435600
      6 C86         2.1340    0.7040    3.6550 c3        1 NT2      0.181400
      7 O87         1.1420    1.4030    4.3630 os        1 NT2     -0.612500
      8 C8C         3.8260   -0.1520    0.6490 c3        1 NT2      0.215100
      9 O8D         4.7500   -0.7720    1.5120 os        1 NT2     -0.638500
     10 C8I         4.3260    1.2970    0.4110 c3        1 NT2      0.165100
     11 O8J         3.9210    1.7560   -0.8470 os        1 NT2     -0.600500
     12 C8O         3.8130    2.2200    1.5330 c3        1 NT2      0.314900
     13 O8P         4.0050    3.5870    1.2660 oh        1 NT2     -0.632800
     14 S88         1.2020    1.6960    6.0340 s6        1 NT2      1.687300
     15 O8A         2.5270    2.0530    6.3250 o         1 NT2     -0.776867
     16 O8B         0.2750    2.7430    6.2040 o         1 NT2     -0.776867
     17 O89         0.7950    0.4970    6.6440 o         1 NT2     -0.776867
     18 O8Q         0.4800   -2.5440    1.3950 o         1 NT2     -0.771867
     19 O8R        -0.9360   -0.9250    0.4310 o         1 NT2     -0.771867
     20 O8S         0.3140   -2.3430   -0.9440 o         1 NT2     -0.771867
     21 S8E         5.9440   -1.9290    1.1320 s6        1 NT2      1.697300
     22 O8F         5.7660   -2.2650   -0.2140 o         1 NT2     -0.770533
     23 O8G         7.1490   -1.2640    1.4120 o         1 NT2     -0.770533
     24 O8H         5.6930   -2.9810    2.0260 o         1 NT2     -0.770533
     25 S8K         4.8120    2.7710   -1.8910 s6        1 NT2      1.690300
     26 O8L         6.1620    2.6340   -1.5420 o         1 NT2     -0.771533
     27 O8M         4.5050    2.3200   -3.1830 o         1 NT2     -0.771533
     28 O8N         4.2790    4.0440   -1.6090 o         1 NT2     -0.771533
     29 H83         2.4740   -1.2070    1.9920 h1        1 NT2      0.056700
     30 H84         0.7950    1.0040    1.9600 h1        1 NT2      0.091700
     31 H861        3.1470    1.0850    3.9550 h1        1 NT2      0.027700
     32 H862        2.0510   -0.3880    3.9110 h1        1 NT2      0.027700
     33 H8C         3.7990   -0.6810   -0.3460 h1        1 NT2      0.077700
     34 H8I         5.4560    1.2930    0.4590 h1        1 NT2      0.052700
     35 H8O         4.3600    2.0010    2.4920 h2        1 NT2      0.062700
     36 H8P         3.5650    3.7810    0.4230 ho        1 NT2      0.436000
@<TRIPOS>BOND
     1    1    2 1   
     2    1   18 1   
     3    1   19 1   
     4    1   20 1   
     5    2    3 1   
     6    3    4 1   
     7    3    8 1   
     8    3   29 1   
     9    4    5 1   
    10    4    6 1   
    11    4   30 1   
    12    5   12 1   
    13    6    7 1   
    14    6   31 1   
    15    6   32 1   
    16    7   14 1   
    17    8    9 1   
    18    8   10 1   
    19    8   33 1   
    20    9   21 1   
    21   10   11 1   
    22   10   12 1   
    23   10   34 1   
    24   11   25 1   
    25   12   13 1   
    26   12   35 1   
    27   13   36 1   
    28   14   15 1   
    29   14   16 1   
    30   14   17 1   
    31   21   22 1   
    32   21   23 1   
    33   21   24 1   
    34   25   26 1   
    35   25   27 1   
    36   25   28 1   
@<TRIPOS>SUBSTRUCTURE
     1 NT2         1 TEMP              0 ****  ****    0 ROOT
