@<TRIPOS>MOLECULE
NT4
   66    63     1     0     0
SMALL
bcc


@<TRIPOS>ATOM
      1 N1         -0.2330   -1.7300    0.6140 n         1 NT4     -0.426000
      2 N3         -8.3050    6.0770    2.7200 n2        1 NT4     -0.290000
      3 C4         -4.0210    1.3420    0.7070 c2        1 NT4     -0.193000
      4 C5         -2.6170    1.0250    0.9690 c2        1 NT4     -0.030000
      5 C6         -2.0460   -0.0990    0.5150 c2        1 NT4     -0.213000
      6 C7         -0.6380   -0.4430    0.8440 c2        1 NT4      0.344000
      7 C8          2.5150    2.4230    2.4930 c1        1 NT4     -0.229500
      8 C10        -5.6880    2.9840    0.8370 cx        1 NT4     -0.020000
      9 C13        -8.5760   -2.4410   -3.3590 ca        1 NT4     -0.127000
     10 C15        -7.3660   -4.0920   -2.2410 ca        1 NT4     -0.203500
     11 C17        -5.3250    6.3910    0.8630 c2        1 NT4     -0.457000
     12 C20        -6.6730    2.8930    1.9920 cx        1 NT4     -0.171000
     13 C21         3.2400   -2.1470    0.9710 c2        1 NT4     -0.234500
     14 C22         2.8470   -1.4670    2.0410 c2        1 NT4     -0.234500
     15 C24         6.4880    2.0890   -0.2490 c2        1 NT4     -0.336000
     16 O1          0.1600    0.4020    1.3140 o         1 NT4     -0.406000
     17 C23         6.1380    0.8960    0.2620 c2        1 NT4     -0.046000
     18 N2          5.3650    0.6810    1.3970 n3        1 NT4     -0.344000
     19 C25         3.4160    3.0740    2.9360 c1        1 NT4     -0.229500
     20 C16        -4.4360    6.1140   -0.0730 c1        1 NT4      0.251000
     21 C18        -6.1300    5.5050    1.6700 c2        1 NT4      0.053000
     22 N4         -6.3030    6.9660    3.6260 n3        1 NT4     -0.331000
     23 C19        -6.1590    4.1890    1.5410 cu        1 NT4     -0.184000
     24 C3         -4.8630    0.4380    0.1810 c1        1 NT4      0.128000
     25 C2         -4.4260   -2.8810   -0.3470 c2        1 NT4     -0.327000
     26 C1         -3.1290   -3.0730   -0.1460 c1        1 NT4      0.168000
     27 O2         -5.2460   -3.7600   -1.0460 os        1 NT4     -0.095000
     28 C9         -6.3210   -3.2060   -1.6890 ca        1 NT4      0.100000
     29 C11        -6.7120   -1.8960   -1.8000 ca        1 NT4     -0.203500
     30 C12        -7.9390   -1.5450   -2.5410 ca        1 NT4     -0.079000
     31 C14        -7.7000   -3.6210   -3.4900 ca        1 NT4     -0.079000
     32 H1          0.6960   -1.9960    0.8450 hn        1 NT4      0.242000
     33 H2         -8.6930    5.5650    1.9580 hn        1 NT4      0.154000
     34 H3         -2.0620    1.7680    1.5720 ha        1 NT4      0.186000
     35 H4         -0.8710   -2.4180    0.2930 hn        1 NT4      0.242000
     36 H5         -8.0820   -4.5000   -1.5160 ha        1 NT4      0.160000
     37 H6         -5.4750    7.4810    1.0590 ha        1 NT4      0.216000
     38 H7         -7.7210    2.6130    1.7760 hc        1 NT4      0.134500
     39 H8          2.9840   -1.8390   -0.0530 ha        1 NT4      0.119250
     40 H9          1.7100    1.8450    2.0990 ha        1 NT4      0.230500
     41 H10         3.8530   -3.0560    1.0350 ha        1 NT4      0.119250
     42 H11         2.2330   -0.5530    1.9760 ha        1 NT4      0.119250
     43 H12         4.2150    3.6500    3.3300 ha        1 NT4      0.230500
     44 H13         6.5380   -0.0400   -0.1790 h4        1 NT4      0.123000
     45 H14         3.1100   -1.7720    3.0630 ha        1 NT4      0.119250
     46 H15         4.8080   -0.1470    1.3620 hn        1 NT4      0.182500
     47 H16         4.8460    1.4740    1.7140 hn        1 NT4      0.182500
     48 H18         6.1220    3.0450    0.1400 ha        1 NT4      0.114500
     49 H19         7.1850    2.1570   -1.0900 ha        1 NT4      0.114500
     50 H20        -5.9970    2.7720   -0.2070 h1        1 NT4      0.142000
     51 H21        -6.8320    7.2850    4.4090 hn        1 NT4      0.199500
     52 H22        -5.4130    6.5930    3.8710 hn        1 NT4      0.199500
     53 H23        -6.3240    2.4950    2.9640 hc        1 NT4      0.134500
     54 H24        -4.9190   -1.9940    0.1140 h4        1 NT4      0.202000
     55 H25        -2.5940   -0.8130   -0.1250 ha        1 NT4      0.132000
     56 H26        -6.1550   -1.0680   -1.3370 ha        1 NT4      0.160000
     57 H27        -8.2990   -0.5120   -2.4220 ha        1 NT4      0.145500
     58 H28       -11.5520   -1.1580   -4.1070 hn        1 NT4      0.187500
     59 H29       -10.7730   -1.2770   -2.6470 hn        1 NT4      0.187500
     60 H30        -9.3670   -3.4840   -5.5560 hn        1 NT4      0.154000
     61 H31        -6.9770   -3.5900   -4.3210 ha        1 NT4      0.145500
     62 O3         -4.3340    2.6450    1.0860 os        1 NT4     -0.142000
     63 C27        -9.8120   -2.2320   -4.1440 c2        1 NT4      0.119000
     64 C26        -7.0100    6.1670    2.7050 c2        1 NT4      0.108000
     65 N5        -10.6730   -1.2250   -3.6380 n3        1 NT4     -0.326000
     66 N6        -10.0890   -2.8700   -5.2440 n2        1 NT4     -0.288000
@<TRIPOS>BOND
     1    1    6 1   
     2    1   32 1   
     3    1   35 1   
     4    2   33 1   
     5    2   64 1   
     6    3    4 1   
     7    3   24 1   
     8    3   62 1   
     9    4    5 1   
    10    4   34 1   
    11    5    6 1   
    12    5   55 1   
    13    6   16 1   
    14    7   19 1   
    15    7   40 1   
    16    8   12 1   
    17    8   23 1   
    18    8   50 1   
    19    8   62 1   
    20    9   30 1   
    21    9   31 1   
    22    9   63 1   
    23   10   28 1   
    24   10   31 1   
    25   10   36 1   
    26   11   20 1   
    27   11   21 1   
    28   11   37 1   
    29   12   23 1   
    30   12   38 1   
    31   12   53 1   
    32   13   14 1   
    33   13   39 1   
    34   13   41 1   
    35   14   42 1   
    36   14   45 1   
    37   15   17 1   
    38   15   48 1   
    39   15   49 1   
    40   17   18 1   
    41   17   44 1   
    42   18   46 1   
    43   18   47 1   
    44   19   43 1   
    45   21   23 1   
    46   21   64 1   
    47   22   51 1   
    48   22   52 1   
    49   22   64 1   
    50   25   26 1   
    51   25   27 1   
    52   25   54 1   
    53   27   28 1   
    54   28   29 1   
    55   29   30 1   
    56   29   56 1   
    57   30   57 1   
    58   31   61 1   
    59   58   65 1   
    60   59   65 1   
    61   60   66 1   
    62   63   65 1   
    63   63   66 1   
@<TRIPOS>SUBSTRUCTURE
     1 NT4         1 TEMP              0 ****  ****    0 ROOT
