@<TRIPOS>MOLECULE
NTA
   19    18     1     0     0
SMALL
bcc


@<TRIPOS>ATOM
      1 N1         -0.0450   -0.0460    0.0870 n3        1 NTA     -0.679600
      2 C6          1.3740   -0.0240    0.1200 c3        1 NTA      0.072800
      3 C10        -0.5400   -0.0090    1.4080 c3        1 NTA      0.072800
      4 C2         -0.4840   -1.2620   -0.5500 c3        1 NTA      0.072800
      5 C7          1.8900    0.9760   -0.8840 c         1 NTA      0.908600
      6 O8          1.5210    2.1920   -0.8200 o         1 NTA     -0.896800
      7 O9          2.6500    0.6020   -1.8050 o         1 NTA     -0.896800
      8 C3         -1.1230   -0.9360   -1.8770 c         1 NTA      0.908600
      9 C11        -1.1390    1.3860    1.6970 c         1 NTA      0.908600
     10 O12        -2.2250    1.7230    1.1640 o         1 NTA     -0.896800
     11 O13        -0.5720    2.1670    2.5560 o         1 NTA     -0.896800
     12 O4         -0.6830   -1.4560   -2.9290 o         1 NTA     -0.896800
     13 O5         -2.1120   -0.1580   -1.9250 o         1 NTA     -0.896800
     14 H61         1.7280   -0.9420   -0.1100 h1        1 NTA      0.019200
     15 H62         1.6740    0.2240    1.0070 h1        1 NTA      0.019200
     16 H101       -1.2200   -0.6760    1.5120 h1        1 NTA      0.019200
     17 H102        0.1620   -0.1820    2.0110 h1        1 NTA      0.019200
     18 H21         0.2930   -1.8560   -0.6950 h1        1 NTA      0.019200
     19 H22        -1.1480   -1.7210    0.0340 h1        1 NTA      0.019200
@<TRIPOS>BOND
     1    1    2 1   
     2    1    3 1   
     3    1    4 1   
     4    2    5 1   
     5    2   14 1   
     6    2   15 1   
     7    3    9 1   
     8    3   16 1   
     9    3   17 1   
    10    4    8 1   
    11    4   18 1   
    12    4   19 1   
    13    5    6 1   
    14    5    7 1   
    15    8   12 1   
    16    8   13 1   
    17    9   10 1   
    18    9   11 1   
@<TRIPOS>SUBSTRUCTURE
     1 NTA         1 TEMP              0 ****  ****    0 ROOT
