@<TRIPOS>MOLECULE
NTA
   19    18     1     0     0
SMALL
bcc


@<TRIPOS>ATOM
      1 N1         -0.0200   -0.0680   -0.1110 n3        1 NTA     -0.679600
      2 C6          1.4370   -0.1530   -0.0740 c3        1 NTA      0.072800
      3 C10        -0.6070   -0.2120    1.2180 c3        1 NTA      0.072800
      4 C2         -0.4770    1.1480   -0.7780 c3        1 NTA      0.072800
      5 C7          2.2180    0.1820   -1.3620 c         1 NTA      0.908600
      6 O8          2.5180    1.3900   -1.6220 o         1 NTA     -0.896800
      7 O9          2.6630   -0.7650   -2.0860 o         1 NTA     -0.896800
      8 C3         -1.9800    1.4890   -0.7200 c         1 NTA      0.908600
      9 C11        -0.0710   -1.3340    2.1320 c         1 NTA      0.908600
     10 O12         0.9560   -1.1250    2.8520 o         1 NTA     -0.896800
     11 O13        -0.7360   -2.4120    2.2500 o         1 NTA     -0.896800
     12 O4         -2.4450    2.1270    0.2770 o         1 NTA     -0.896800
     13 O5         -2.7150    1.2380   -1.7280 o         1 NTA     -0.896800
     14 H61         1.6740   -1.2180    0.2070 h1        1 NTA      0.019200
     15 H62         1.8630    0.5120    0.7350 h1        1 NTA      0.019200
     16 H101       -1.7050   -0.3970    1.0500 h1        1 NTA      0.019200
     17 H102       -0.5140    0.7480    1.8090 h1        1 NTA      0.019200
     18 H21         0.0680    2.0570   -0.3820 h1        1 NTA      0.019200
     19 H22        -0.1900    1.0300   -1.8610 h1        1 NTA      0.019200
@<TRIPOS>BOND
     1    1    2 1   
     2    1    3 1   
     3    1    4 1   
     4    2    5 1   
     5    2   14 1   
     6    2   15 1   
     7    3    9 1   
     8    3   16 1   
     9    3   17 1   
    10    4    8 1   
    11    4   18 1   
    12    4   19 1   
    13    5    6 1   
    14    5    7 1   
    15    8   12 1   
    16    8   13 1   
    17    9   10 1   
    18    9   11 1   
@<TRIPOS>SUBSTRUCTURE
     1 NTA         1 TEMP              0 ****  ****    0 ROOT
