@<TRIPOS>MOLECULE
NTA
   19    18     1     0     0
SMALL
bcc


@<TRIPOS>ATOM
      1 N1          0.0180    0.0270   -0.0250 n3        1 NTA     -0.679600
      2 C6          1.4200   -0.3800    0.0130 c3        1 NTA      0.072800
      3 C10        -0.6310   -0.3770   -1.2690 c3        1 NTA      0.072800
      4 C2         -0.7150   -0.4400    1.1470 c3        1 NTA      0.072800
      5 C7          2.1910   -0.2100    1.3390 c         1 NTA      0.908600
      6 O8          2.1340   -1.1210    2.2240 o         1 NTA     -0.896800
      7 O9          2.9760    0.7820    1.4810 o         1 NTA     -0.896800
      8 C3         -2.2490   -0.2700    1.1620 c         1 NTA      0.908600
      9 C11         0.1230   -0.1390   -2.5940 c         1 NTA      0.908600
     10 O12         0.9580   -1.0040   -3.0090 o         1 NTA     -0.896800
     11 O13        -0.1890    0.8590   -3.3190 o         1 NTA     -0.896800
     12 O4         -2.9870   -1.1550    0.6240 o         1 NTA     -0.896800
     13 O5         -2.7640    0.6890    1.8200 o         1 NTA     -0.896800
     14 H61         1.9400    0.2390   -0.7710 h1        1 NTA      0.019200
     15 H62         1.5360   -1.4650   -0.2820 h1        1 NTA      0.019200
     16 H101       -0.8960   -1.4750   -1.2500 h1        1 NTA      0.019200
     17 H102       -1.5970    0.2020   -1.3120 h1        1 NTA      0.019200
     18 H21        -0.5180   -1.5370    1.3400 h1        1 NTA      0.019200
     19 H22        -0.2950    0.1350    2.0210 h1        1 NTA      0.019200
@<TRIPOS>BOND
     1    1    2 1   
     2    1    3 1   
     3    1    4 1   
     4    2    5 1   
     5    2   14 1   
     6    2   15 1   
     7    3    9 1   
     8    3   16 1   
     9    3   17 1   
    10    4    8 1   
    11    4   18 1   
    12    4   19 1   
    13    5    6 1   
    14    5    7 1   
    15    8   12 1   
    16    8   13 1   
    17    9   10 1   
    18    9   11 1   
@<TRIPOS>SUBSTRUCTURE
     1 NTA         1 TEMP              0 ****  ****    0 ROOT
