@<TRIPOS>MOLECULE
NTB
   16    15     1     0     0
SMALL
bcc


@<TRIPOS>ATOM
      1 N          -1.5570   -0.0470    0.0270 n3        1 NTB     -0.896800
      2 C          -0.1350   -0.0470    0.0270 c3        1 NTB      0.169200
      3 C1          0.3700   -0.0470    1.4530 c3        1 NTB     -0.100100
      4 C2          0.3700    1.1890   -0.6860 c3        1 NTB     -0.100100
      5 C3          0.3700   -1.2820   -0.6860 c3        1 NTB     -0.100100
      6 HN1        -1.8610    0.6980    0.4570 hn        1 NTB      0.344800
      7 HN2        -1.8610   -0.0470   -0.8330 hn        1 NTB      0.344800
      8 H11         1.3440   -0.1080    1.4540 hc        1 NTB      0.037367
      9 H12         0.0960    0.7800    1.8950 hc        1 NTB      0.037367
     10 H13        -0.0050   -0.8110    1.9310 hc        1 NTB      0.037367
     11 H21         0.0440    1.9860   -0.2260 hc        1 NTB      0.037367
     12 H22         1.3460    1.1890   -0.6860 hc        1 NTB      0.037367
     13 H23         0.0440    1.1890   -1.6070 hc        1 NTB      0.037367
     14 H31        -0.0050   -2.0780   -0.2630 hc        1 NTB      0.037367
     15 H32         0.0960   -1.2520   -1.6230 hc        1 NTB      0.037367
     16 H33         1.3440   -1.3130   -0.6330 hc        1 NTB      0.037367
@<TRIPOS>BOND
     1    1    2 1   
     2    1    6 1   
     3    1    7 1   
     4    2    3 1   
     5    2    4 1   
     6    2    5 1   
     7    3    8 1   
     8    3    9 1   
     9    3   10 1   
    10    4   11 1   
    11    4   12 1   
    12    4   13 1   
    13    5   14 1   
    14    5   15 1   
    15    5   16 1   
@<TRIPOS>SUBSTRUCTURE
     1 NTB         1 TEMP              0 ****  ****    0 ROOT
