@<TRIPOS>MOLECULE
NTB
   16    15     1     0     0
SMALL
bcc


@<TRIPOS>ATOM
      1 N           0.8360   -0.0090   -1.2530 n3        1 NTB     -0.896800
      2 C           0.0250   -0.0030   -0.0330 c3        1 NTB      0.169200
      3 C1         -0.9280    1.2020   -0.0330 c3        1 NTB     -0.100100
      4 C2          0.8710    0.0730    1.2510 c3        1 NTB     -0.100100
      5 C3         -0.8250   -1.2810    0.0470 c3        1 NTB     -0.100100
      6 HN1         1.3830    0.8290   -1.2980 hn        1 NTB      0.344800
      7 HN2         1.4500   -0.7990   -1.2460 hn        1 NTB      0.344800
      8 H11        -0.3550    2.1600   -0.0360 hc        1 NTB      0.037367
      9 H12        -1.5920    1.1770   -0.9290 hc        1 NTB      0.037367
     10 H13        -1.5620    1.1700    0.8850 hc        1 NTB      0.037367
     11 H21         0.2020    0.0740    2.1440 hc        1 NTB      0.037367
     12 H22         1.5560   -0.8050    1.3240 hc        1 NTB      0.037367
     13 H23         1.4810    1.0070    1.2660 hc        1 NTB      0.037367
     14 H31        -1.4870   -1.3670   -0.8480 hc        1 NTB      0.037367
     15 H32        -0.1750   -2.1860    0.1020 hc        1 NTB      0.037367
     16 H33        -1.4620   -1.2420    0.9620 hc        1 NTB      0.037367
@<TRIPOS>BOND
     1    1    2 1   
     2    1    6 1   
     3    1    7 1   
     4    2    3 1   
     5    2    4 1   
     6    2    5 1   
     7    3    8 1   
     8    3    9 1   
     9    3   10 1   
    10    4   11 1   
    11    4   12 1   
    12    4   13 1   
    13    5   14 1   
    14    5   15 1   
    15    5   16 1   
@<TRIPOS>SUBSTRUCTURE
     1 NTB         1 TEMP              0 ****  ****    0 ROOT
