@<TRIPOS>MOLECULE
NTB
   17    16     1     0     0
SMALL
bcc


@<TRIPOS>ATOM
      1 N          -0.0500   -0.0000   -0.0000 nz        1 NTB     -0.850600
      2 C           1.4790   -0.0000   -0.0000 c3        1 NTB      0.152200
      3 C1          1.9760    0.0000    1.4450 c3        1 NTB     -0.134100
      4 C2          1.9760    1.2520   -0.7230 c3        1 NTB     -0.134100
      5 C3          1.9760   -1.2520   -0.7230 c3        1 NTB     -0.134100
      6 HN1        -0.3910   -0.8350    0.4820 hn        1 NTB      0.456800
      7 HN2        -0.3910    0.8350    0.4820 hn        1 NTB      0.456800
      8 H11         1.6370    0.9130    1.9940 hc        1 NTB      0.081033
      9 H12         1.6370   -0.9120    1.9950 hc        1 NTB      0.081033
     10 H13         3.0950    0.0000    1.4320 hc        1 NTB      0.081033
     11 H21         3.0950    1.2400   -0.7170 hc        1 NTB      0.081033
     12 H22         1.6370    2.1830   -0.2080 hc        1 NTB      0.081033
     13 H23         1.6370    1.2710   -1.7880 hc        1 NTB      0.081033
     14 H31         1.6370   -2.1840   -0.2070 hc        1 NTB      0.081033
     15 H32         3.0950   -1.2400   -0.7160 hc        1 NTB      0.081033
     16 H33         1.6370   -1.2720   -1.7870 hc        1 NTB      0.081033
     17 HN3        -0.3910   -0.0000   -0.9640 hn        1 NTB      0.456800
@<TRIPOS>BOND
     1    1    2 1   
     2    1    6 1   
     3    1    7 1   
     4    1   17 1   
     5    2    3 1   
     6    2    4 1   
     7    2    5 1   
     8    3    8 1   
     9    3    9 1   
    10    3   10 1   
    11    4   11 1   
    12    4   12 1   
    13    4   13 1   
    14    5   14 1   
    15    5   15 1   
    16    5   16 1   
@<TRIPOS>SUBSTRUCTURE
     1 NTB         1 TEMP              0 ****  ****    0 ROOT
