@<TRIPOS>MOLECULE
NTC
   18    17     1     0     0
SMALL
bcc


@<TRIPOS>ATOM
      1 N1         -2.2480    1.1560    0.0150 no        1 NTC      0.260300
      2 O1         -3.1020    1.6450   -0.6920 o         1 NTC     -0.272000
      3 O2         -2.5100    0.8650    1.1510 o         1 NTC     -0.272000
      4 C2         -0.8470    1.0600   -0.5360 c3        1 NTC     -0.074700
      5 C3         -0.0070   -0.1610   -0.1090 c3        1 NTC      0.060800
      6 O7          0.0050   -0.2880    1.2980 oh        1 NTC     -0.594800
      7 C4          1.4050    0.0620   -0.6620 c3        1 NTC     -0.208400
      8 C5          2.1100    1.3420   -0.2160 c         1 NTC      0.895600
      9 O3          1.6800    1.9910    0.7910 o         1 NTC     -0.875300
     10 O4          3.1270    1.7260   -0.8700 o         1 NTC     -0.875300
     11 C6         -0.5890   -1.4790   -0.7180 c         1 NTC      0.927600
     12 O5          0.0100   -2.5670   -0.5030 o         1 NTC     -0.847300
     13 O6         -1.6170   -1.3760   -1.4490 o         1 NTC     -0.847300
     14 H21        -0.9560    1.0450   -1.6530 h1        1 NTC      0.102700
     15 H22        -0.3370    1.9990   -0.1720 h1        1 NTC      0.102700
     16 HO7         0.5000    0.4760    1.6330 ho        1 NTC      0.415000
     17 H41         2.0260   -0.8100   -0.3290 hc        1 NTC      0.051700
     18 H42         1.3640    0.0440   -1.7800 hc        1 NTC      0.051700
@<TRIPOS>BOND
     1    1    2 1   
     2    1    3 1   
     3    1    4 1   
     4    4    5 1   
     5    4   14 1   
     6    4   15 1   
     7    5    6 1   
     8    5    7 1   
     9    5   11 1   
    10    6   16 1   
    11    7    8 1   
    12    7   17 1   
    13    7   18 1   
    14    8    9 1   
    15    8   10 1   
    16   11   12 1   
    17   11   13 1   
@<TRIPOS>SUBSTRUCTURE
     1 NTC         1 TEMP              0 ****  ****    0 ROOT
