@<TRIPOS>MOLECULE
NTC
   18    17     1     0     0
SMALL
bcc


@<TRIPOS>ATOM
      1 N1          0.2800    0.3590   -0.4030 no        1 NTC      0.238300
      2 O1          1.3970    0.0010   -0.1350 o         1 NTC     -0.277500
      3 O2         -0.2920    1.1330    0.3330 o         1 NTC     -0.277500
      4 C2         -0.4040   -0.0560   -1.6830 c3        1 NTC     -0.074700
      5 C3         -0.1050   -1.4840   -2.1640 c3        1 NTC      0.050800
      6 O7          1.2930   -1.6540   -2.3210 oh        1 NTC     -0.608800
      7 C4         -0.7840   -1.7030   -3.5170 c3        1 NTC     -0.167400
      8 C5         -0.5760   -0.6720   -4.6300 c         1 NTC      0.911600
      9 O3         -0.3570   -1.1060   -5.8020 o         1 NTC     -0.876800
     10 O4         -0.7000    0.5720   -4.3980 o         1 NTC     -0.876800
     11 C6         -0.6780   -2.5040   -1.1270 c         1 NTC      0.884600
     12 O5          0.1450   -3.3000   -0.5860 o         1 NTC     -0.844800
     13 O6         -1.9120   -2.4780   -0.8630 o         1 NTC     -0.844800
     14 H21        -0.0520    0.6870   -2.4610 h1        1 NTC      0.126700
     15 H22        -1.5090    0.0430   -1.5080 h1        1 NTC      0.126700
     16 HO7         1.6120   -2.0730   -1.5060 ho        1 NTC      0.417000
     17 H41        -1.8880   -1.7620   -3.3230 hc        1 NTC      0.047200
     18 H42        -0.4370   -2.6970   -3.8990 hc        1 NTC      0.047200
@<TRIPOS>BOND
     1    1    2 1   
     2    1    3 1   
     3    1    4 1   
     4    4    5 1   
     5    4   14 1   
     6    4   15 1   
     7    5    6 1   
     8    5    7 1   
     9    5   11 1   
    10    6   16 1   
    11    7    8 1   
    12    7   17 1   
    13    7   18 1   
    14    8    9 1   
    15    8   10 1   
    16   11   12 1   
    17   11   13 1   
@<TRIPOS>SUBSTRUCTURE
     1 NTC         1 TEMP              0 ****  ****    0 ROOT
