@<TRIPOS>MOLECULE
NTC
   18    16     1     0     0
SMALL
bcc


@<TRIPOS>ATOM
      1 N1          1.0200    1.3640    1.6970 n2        1 NTC      0.369100
      2 O1          2.3860    1.3640    1.6970 os        1 NTC     -0.461000
      3 O2          0.4090    1.3640    2.7560 o         1 NTC     -0.336300
      4 C2          0.3090    1.3660    0.4650 c3        1 NTC      0.069800
      5 C3          0.1620   -0.0550   -0.0330 c3        1 NTC      0.060800
      6 O7          1.4300   -0.5760   -0.3470 oh        1 NTC     -0.594800
      7 C4         -0.7080   -0.0670   -1.2700 c3        1 NTC     -0.208400
      8 C5         -1.0070   -1.4970   -1.6630 c         1 NTC      0.895600
      9 O3         -0.1430   -2.1740   -2.2790 o         1 NTC     -0.875300
     10 O4         -2.1190   -2.0110   -1.3720 o         1 NTC     -0.875300
     11 C6         -0.4800   -0.9030    1.0430 c         1 NTC      0.927600
     12 O5         -1.6340   -0.6220    1.4600 o         1 NTC     -0.847300
     13 O6          0.1400   -1.8880    1.5210 o         1 NTC     -0.847300
     14 H21         0.8010    1.8920   -0.1930 h1        1 NTC      0.102700
     15 H22        -0.5750    1.7570    0.6010 h1        1 NTC      0.102700
     16 HO7         1.7950   -0.0940   -0.9960 ho        1 NTC      0.415000
     17 H41        -1.5450    0.4010   -1.0850 hc        1 NTC      0.051700
     18 H42        -0.2410    0.3800   -2.0010 hc        1 NTC      0.051700
@<TRIPOS>BOND
     1    1    3 2   
     2    1    4 1   
     3    4    5 1   
     4    4   14 1   
     5    4   15 1   
     6    5    6 1   
     7    5    7 1   
     8    5   11 1   
     9    6   16 1   
    10    7    8 1   
    11    7   17 1   
    12    7   18 1   
    13    8    9 1   
    14    8   10 1   
    15   11   12 1   
    16   11   13 1   
@<TRIPOS>SUBSTRUCTURE
     1 NTC         1 TEMP              0 ****  ****    0 ROOT
