@<TRIPOS>MOLECULE
NTD
   33    34     1     0     0
SMALL
bcc


@<TRIPOS>ATOM
      1 O1          4.2340    1.9740   -0.1190 o         1 NTD     -0.530100
      2 C5          3.8480    0.8760    0.2900 c         1 NTD      0.592800
      3 C2          4.8220   -0.2210    0.6220 c3        1 NTD     -0.176900
      4 C3          4.1440   -1.5030    1.0450 c3        1 NTD     -0.074400
      5 C4          3.1140   -1.2470    2.1210 c3        1 NTD     -0.176900
      6 C1          2.0960   -0.2200    1.7100 c         1 NTD      0.592800
      7 O5          1.0670   -0.0400    2.3760 o         1 NTD     -0.530100
      8 C6          2.4160    0.5630    0.5030 ce        1 NTD     -0.330400
      9 C7          1.4710    0.9940   -0.3800 cf        1 NTD      0.241900
     10 O7          1.8860    1.7540   -1.4350 oh        1 NTD     -0.449100
     11 C8          0.0260    0.7100   -0.2610 ca        1 NTD     -0.043800
     12 C13        -0.6910    1.3290    0.7700 ca        1 NTD     -0.069000
     13 C12        -2.0560    1.0920    0.9350 ca        1 NTD     -0.047000
     14 C11        -2.7170    0.2180    0.0730 ca        1 NTD     -0.157300
     15 C14        -4.2060   -0.0640    0.2670 c3        1 NTD      0.690200
     16 F2         -4.9030    0.9700    0.8400 f         1 NTD     -0.227300
     17 F3         -4.8840   -0.3330   -0.8960 f         1 NTD     -0.227300
     18 F1         -4.4670   -1.1430    1.0740 f         1 NTD     -0.227300
     19 C10        -2.0290   -0.4230   -0.9570 ca        1 NTD     -0.036000
     20 C9         -0.6610   -0.1620   -1.1300 ca        1 NTD     -0.161200
     21 N           0.0420   -0.8450   -2.2530 no        1 NTD      0.310200
     22 ON2        -0.3450   -1.9230   -2.6050 o         1 NTD     -0.193000
     23 ON1         0.9600   -0.2810   -2.7880 o         1 NTD     -0.193000
     24 H21         5.4660   -0.4060   -0.2800 hc        1 NTD      0.079450
     25 H22         5.4970    0.1490    1.4410 hc        1 NTD      0.079450
     26 H31         3.6510   -1.9800    0.1570 hc        1 NTD      0.055700
     27 H32         4.9120   -2.2240    1.4280 hc        1 NTD      0.055700
     28 H41         2.5790   -2.2000    2.3800 hc        1 NTD      0.079450
     29 H42         3.6140   -0.8810    3.0580 hc        1 NTD      0.079450
     30 HO7         1.2060    1.7490   -2.1300 ho        1 NTD      0.446000
     31 H13        -0.1550    1.9830    1.4810 ha        1 NTD      0.183000
     32 H12        -2.6080    1.5900    1.7510 ha        1 NTD      0.172000
     33 H10        -2.5580   -1.1270   -1.6260 ha        1 NTD      0.189000
@<TRIPOS>BOND
     1    1    2 2   
     2    2    3 1   
     3    2    8 1   
     4    3    4 1   
     5    3   24 1   
     6    3   25 1   
     7    4    5 1   
     8    4   26 1   
     9    4   27 1   
    10    5    6 1   
    11    5   28 1   
    12    5   29 1   
    13    6    7 2   
    14    6    8 1   
    15    8    9 2   
    16    9   10 1   
    17    9   11 1   
    18   10   30 1   
    19   11   12 ar  
    20   11   20 ar  
    21   12   13 ar  
    22   12   31 1   
    23   13   14 ar  
    24   13   32 1   
    25   14   15 1   
    26   14   19 ar  
    27   15   16 1   
    28   15   17 1   
    29   15   18 1   
    30   19   20 ar  
    31   19   33 1   
    32   20   21 1   
    33   21   22 1   
    34   21   23 1   
@<TRIPOS>SUBSTRUCTURE
     1 NTD         1 TEMP              0 ****  ****    0 ROOT
