@<TRIPOS>MOLECULE
NTD
   33    34     1     0     0
SMALL
bcc


@<TRIPOS>ATOM
      1 O1         -0.0900   -0.0160    0.0840 o         1 NTD     -0.566600
      2 C5          1.1480   -0.1230    0.0650 c         1 NTD      0.602300
      3 C2          1.9280   -0.2290    1.3440 c3        1 NTD     -0.173900
      4 C3          3.3070    0.3680    1.1940 c3        1 NTD     -0.074400
      5 C4          4.0920   -0.3570    0.1280 c3        1 NTD     -0.173900
      6 C1          3.2950   -0.6640   -1.1110 c         1 NTD      0.602300
      7 O5          3.8000   -1.3460   -2.0140 o         1 NTD     -0.566600
      8 C6          1.9140   -0.1540   -1.1890 ce        1 NTD     -0.401400
      9 C7          1.3690    0.2810   -2.3690 cf        1 NTD      0.310900
     10 O7          0.1030    0.7390   -2.5330 oh        1 NTD     -0.480100
     11 C8          2.0860    0.3470   -3.6630 ca        1 NTD     -0.004800
     12 C13         2.4780   -0.8300   -4.3060 ca        1 NTD     -0.074000
     13 C12         3.1160   -0.7820   -5.5460 ca        1 NTD     -0.048000
     14 C11         3.3560    0.4490   -6.1570 ca        1 NTD     -0.161300
     15 C14         4.0670    0.5020   -7.5070 c3        1 NTD      0.690200
     16 F2          3.8800   -0.6120   -8.2870 f         1 NTD     -0.228633
     17 F3          3.6850    1.5500   -8.3070 f         1 NTD     -0.228633
     18 F1          5.4320    0.6260   -7.4120 f         1 NTD     -0.228633
     19 C10         2.9680    1.6400   -5.5420 ca        1 NTD     -0.036000
     20 C9          2.3320    1.5870   -4.2930 ca        1 NTD     -0.148200
     21 N           1.9290    2.8690   -3.6480 no        1 NTD      0.318200
     22 ON2         1.9620    3.8740   -4.3040 o         1 NTD     -0.196000
     23 ON1         1.5970    2.8680   -2.4930 o         1 NTD     -0.196000
     24 H21         1.3640    0.2920    2.1630 hc        1 NTD      0.080200
     25 H22         1.9990   -1.3150    1.6220 hc        1 NTD      0.080200
     26 H31         3.8540    0.3030    2.1710 hc        1 NTD      0.058700
     27 H32         3.2180    1.4560    0.9320 hc        1 NTD      0.058700
     28 H41         4.9830    0.2570   -0.1780 hc        1 NTD      0.080200
     29 H42         4.4860   -1.3290    0.5320 hc        1 NTD      0.080200
     30 HO7        -0.3480    0.8640   -1.6760 ho        1 NTD      0.481000
     31 H13         2.3070   -1.8020   -3.8110 ha        1 NTD      0.183000
     32 H12         3.4270   -1.7170   -6.0440 ha        1 NTD      0.170000
     33 H10         3.1530    2.6110   -6.0390 ha        1 NTD      0.191000
@<TRIPOS>BOND
     1    1    2 2   
     2    2    3 1   
     3    2    8 1   
     4    3    4 1   
     5    3   24 1   
     6    3   25 1   
     7    4    5 1   
     8    4   26 1   
     9    4   27 1   
    10    5    6 1   
    11    5   28 1   
    12    5   29 1   
    13    6    7 2   
    14    6    8 1   
    15    8    9 2   
    16    9   10 1   
    17    9   11 1   
    18   10   30 1   
    19   11   12 ar  
    20   11   20 ar  
    21   12   13 ar  
    22   12   31 1   
    23   13   14 ar  
    24   13   32 1   
    25   14   15 1   
    26   14   19 ar  
    27   15   16 1   
    28   15   17 1   
    29   15   18 1   
    30   19   20 ar  
    31   19   33 1   
    32   20   21 1   
    33   21   22 1   
    34   21   23 1   
@<TRIPOS>SUBSTRUCTURE
     1 NTD         1 TEMP              0 ****  ****    0 ROOT
