@<TRIPOS>MOLECULE
NTD
   33    34     1     0     0
SMALL
bcc


@<TRIPOS>ATOM
      1 O1         -0.1020   -0.0350    0.0690 o         1 NTD     -0.566600
      2 C5          1.1360   -0.1460    0.0540 c         1 NTD      0.602300
      3 C2          1.9100   -0.2660    1.3350 c3        1 NTD     -0.173900
      4 C3          3.2920    0.3290    1.1960 c3        1 NTD     -0.074400
      5 C4          4.0790   -0.3880    0.1260 c3        1 NTD     -0.173900
      6 C1          3.2860   -0.6810   -1.1180 c         1 NTD      0.602300
      7 O5          3.7930   -1.3550   -2.0260 o         1 NTD     -0.566600
      8 C6          1.9070   -0.1660   -1.1970 ce        1 NTD     -0.401400
      9 C7          1.3670    0.2810   -2.3750 cf        1 NTD      0.310900
     10 O7          0.1030    0.7450   -2.5400 oh        1 NTD     -0.480100
     11 C8          2.0890    0.3590   -3.6660 ca        1 NTD     -0.004800
     12 C13         2.4810   -0.8130   -4.3190 ca        1 NTD     -0.074000
     13 C12         3.1240   -0.7550   -5.5560 ca        1 NTD     -0.048000
     14 C11         3.3700    0.4810   -6.1530 ca        1 NTD     -0.161300
     15 C14         4.0870    0.5450   -7.5000 c3        1 NTD      0.690200
     16 F2          3.9010   -0.5610   -8.2910 f         1 NTD     -0.228633
     17 F3          3.7090    1.6010   -8.2920 f         1 NTD     -0.228633
     18 F1          5.4510    0.6660   -7.3980 f         1 NTD     -0.228633
     19 C10         2.9830    1.6670   -5.5290 ca        1 NTD     -0.036000
     20 C9          2.3420    1.6030   -4.2820 ca        1 NTD     -0.148200
     21 N           1.9390    2.8800   -3.6270 no        1 NTD      0.318200
     22 ON2         1.9770    3.8910   -4.2730 o         1 NTD     -0.196000
     23 ON1         1.6030    2.8690   -2.4740 o         1 NTD     -0.196000
     24 H21         1.9770   -1.3550    1.6030 hc        1 NTD      0.080200
     25 H22         1.3440    0.2490    2.1570 hc        1 NTD      0.080200
     26 H31         3.2070    1.4200    0.9440 hc        1 NTD      0.058700
     27 H32         3.8350    0.2530    2.1740 hc        1 NTD      0.058700
     28 H41         4.9730    0.2260   -0.1700 hc        1 NTD      0.080200
     29 H42         4.4680   -1.3650    0.5230 hc        1 NTD      0.080200
     30 HO7        -0.3500    0.8630   -1.6830 ho        1 NTD      0.481000
     31 H13         2.3060   -1.7900   -3.8340 ha        1 NTD      0.183000
     32 H12         3.4350   -1.6860   -6.0610 ha        1 NTD      0.170000
     33 H10         3.1720    2.6420   -6.0160 ha        1 NTD      0.191000
@<TRIPOS>BOND
     1    1    2 2   
     2    2    3 1   
     3    2    8 1   
     4    3    4 1   
     5    3   24 1   
     6    3   25 1   
     7    4    5 1   
     8    4   26 1   
     9    4   27 1   
    10    5    6 1   
    11    5   28 1   
    12    5   29 1   
    13    6    7 2   
    14    6    8 1   
    15    8    9 2   
    16    9   10 1   
    17    9   11 1   
    18   10   30 1   
    19   11   12 ar  
    20   11   20 ar  
    21   12   13 ar  
    22   12   31 1   
    23   13   14 ar  
    24   13   32 1   
    25   14   15 1   
    26   14   19 ar  
    27   15   16 1   
    28   15   17 1   
    29   15   18 1   
    30   19   20 ar  
    31   19   33 1   
    32   20   21 1   
    33   21   22 1   
    34   21   23 1   
@<TRIPOS>SUBSTRUCTURE
     1 NTD         1 TEMP              0 ****  ****    0 ROOT
