@<TRIPOS>MOLECULE
NTD
   33    30     1     0     0
SMALL
bcc


@<TRIPOS>ATOM
      1 O1          1.5470   -0.0870    0.5770 o         1 NTD     -0.309000
      2 C5          0.8350   -0.1420    1.5690 c1        1 NTD      0.286000
      3 C2          1.4550   -0.1880    2.9410 c2        1 NTD     -0.204000
      4 C3          0.7430   -1.0970    3.8620 c3        1 NTD     -0.147000
      5 C4         -0.7120   -0.8950    4.0400 c3        1 NTD     -0.208000
      6 C1         -1.4550   -0.8970    2.7050 c2        1 NTD      0.284000
      7 O5         -2.6630   -0.9270    2.6840 o         1 NTD     -0.261000
      8 C6         -0.6670   -0.5100    1.4300 c2        1 NTD     -0.294000
      9 C7         -1.2880   -0.4870    0.1970 c1        1 NTD      0.182000
     10 O7         -2.6650   -0.8240    0.0880 o         1 NTD     -0.204000
     11 C8         -0.5060   -0.0980   -1.0360 c2        1 NTD     -0.033000
     12 C13         0.2430   -1.0490   -1.7100 c2        1 NTD     -0.071000
     13 C12         0.8790   -0.7190   -2.8920 c1        1 NTD     -0.047000
     14 C11         0.7670    0.5710   -3.4080 c1        1 NTD     -0.151000
     15 C14         1.3980    0.9080   -4.7350 c3        1 NTD      0.469000
     16 F2          0.6870    0.3420   -5.7270 f         1 NTD     -0.155333
     17 F3          1.4120    2.2470   -4.8990 f         1 NTD     -0.155333
     18 F1          2.6520    0.4420   -4.7650 f         1 NTD     -0.155333
     19 C10         0.0210    1.5220   -2.7380 c1        1 NTD     -0.036000
     20 C9         -0.6180    1.1910   -1.5520 c1        1 NTD     -0.117000
     21 N          -1.4560    2.1570   -0.8930 no        1 NTD      0.565000
     22 ON2        -2.1650    1.8140    0.0360 o         1 NTD     -0.343000
     23 ON1        -1.4390    3.4810   -1.2980 o         1 NTD     -0.343000
     24 H21         1.5300    0.7150    3.2880 ha        1 NTD      0.115500
     25 H22         2.4010   -0.4480    2.8960 ha        1 NTD      0.115500
     26 H31         0.8800   -2.0120    3.5410 hc        1 NTD      0.097000
     27 H32         1.1690   -1.0200    4.7500 hc        1 NTD      0.097000
     28 H41        -1.0280   -1.4350    4.7940 hc        1 NTD      0.116500
     29 H42        -0.8860    0.0070    4.3960 hc        1 NTD      0.116500
     30 HO7        -2.7470   -1.6180   -0.3280 ho        1 NTD      0.244000
     31 H13         0.3240   -1.9700   -1.3430 ha        1 NTD      0.185000
     32 H12         1.4110   -1.3930   -3.3690 ha        1 NTD      0.173000
     33 H10        -0.0570    2.4210   -3.0990 ha        1 NTD      0.189000
@<TRIPOS>BOND
     1    1    2 1   
     2    2    8 1   
     3    3    4 1   
     4    3   24 1   
     5    3   25 1   
     6    4    5 1   
     7    4   26 1   
     8    4   27 1   
     9    5    6 1   
    10    5   28 1   
    11    5   29 1   
    12    6    7 1   
    13    6    8 1   
    14    8    9 1   
    15    9   11 1   
    16   10   30 1   
    17   11   12 1   
    18   11   20 1   
    19   12   13 1   
    20   12   31 1   
    21   13   32 1   
    22   14   15 1   
    23   14   19 1   
    24   15   16 1   
    25   15   17 1   
    26   15   18 1   
    27   19   33 1   
    28   20   21 1   
    29   21   22 1   
    30   21   23 1   
@<TRIPOS>SUBSTRUCTURE
     1 NTD         1 TEMP              0 ****  ****    0 ROOT
