@<TRIPOS>MOLECULE
NTD
   33    34     1     0     0
SMALL
bcc


@<TRIPOS>ATOM
      1 O1         -0.0740   -0.0700    0.0940 o         1 NTD     -0.566600
      2 C5          1.1650   -0.1620    0.0710 c         1 NTD      0.602300
      3 C2          1.9490   -0.2660    1.3470 c3        1 NTD     -0.173900
      4 C3          3.3200    0.3500    1.1970 c3        1 NTD     -0.074400
      5 C4          4.1120   -0.3580    0.1240 c3        1 NTD     -0.173900
      6 C1          3.3150   -0.6670   -1.1140 c         1 NTD      0.602300
      7 O5          3.8270   -1.3360   -2.0230 o         1 NTD     -0.566600
      8 C6          1.9270   -0.1740   -1.1860 ce        1 NTD     -0.401400
      9 C7          1.3740    0.2610   -2.3610 cf        1 NTD      0.310900
     10 O7          0.1020    0.7050   -2.5190 oh        1 NTD     -0.480100
     11 C8          2.0860    0.3460   -3.6570 ca        1 NTD     -0.004800
     12 C13         2.4910   -0.8220   -4.3080 ca        1 NTD     -0.074000
     13 C12         3.1260   -0.7580   -5.5500 ca        1 NTD     -0.048000
     14 C11         3.3490    0.4800   -6.1530 ca        1 NTD     -0.161300
     15 C14         4.0550    0.5510   -7.5050 c3        1 NTD      0.690200
     16 F2          3.8810   -0.5610   -8.2910 f         1 NTD     -0.228633
     17 F3          3.6560    1.5980   -8.2970 f         1 NTD     -0.228633
     18 F1          5.4180    0.6940   -7.4120 f         1 NTD     -0.228633
     19 C10         2.9470    1.6620   -5.5290 ca        1 NTD     -0.036000
     20 C9          2.3150    1.5920   -4.2790 ca        1 NTD     -0.148200
     21 N           1.8970    2.8650   -3.6240 no        1 NTD      0.318200
     22 ON2         1.9160    3.8740   -4.2730 o         1 NTD     -0.196000
     23 ON1         1.5690    2.8520   -2.4690 o         1 NTD     -0.196000
     24 H21         2.0350   -1.3530    1.6180 hc        1 NTD      0.080200
     25 H22         1.3810    0.2420    2.1710 hc        1 NTD      0.080200
     26 H31         3.2170    1.4380    0.9430 hc        1 NTD      0.058700
     27 H32         3.8710    0.2850    2.1720 hc        1 NTD      0.058700
     28 H41         4.5180   -1.3280    0.5210 hc        1 NTD      0.080200
     29 H42         4.9930    0.2690   -0.1800 hc        1 NTD      0.080200
     30 HO7        -0.3480    0.8180   -1.6590 ho        1 NTD      0.481000
     31 H13         2.3340   -1.7990   -3.8190 ha        1 NTD      0.183000
     32 H12         3.4470   -1.6850   -6.0540 ha        1 NTD      0.170000
     33 H10         3.1180    2.6390   -6.0200 ha        1 NTD      0.191000
@<TRIPOS>BOND
     1    1    2 2   
     2    2    3 1   
     3    2    8 1   
     4    3    4 1   
     5    3   24 1   
     6    3   25 1   
     7    4    5 1   
     8    4   26 1   
     9    4   27 1   
    10    5    6 1   
    11    5   28 1   
    12    5   29 1   
    13    6    7 2   
    14    6    8 1   
    15    8    9 2   
    16    9   10 1   
    17    9   11 1   
    18   10   30 1   
    19   11   12 ar  
    20   11   20 ar  
    21   12   13 ar  
    22   12   31 1   
    23   13   14 ar  
    24   13   32 1   
    25   14   15 1   
    26   14   19 ar  
    27   15   16 1   
    28   15   17 1   
    29   15   18 1   
    30   19   20 ar  
    31   19   33 1   
    32   20   21 1   
    33   21   22 1   
    34   21   23 1   
@<TRIPOS>SUBSTRUCTURE
     1 NTD         1 TEMP              0 ****  ****    0 ROOT
