@<TRIPOS>MOLECULE
NTF
   30    30     1     0     0
SMALL
bcc


@<TRIPOS>ATOM
      1 C1         -0.2400   -0.4530   -0.5590 c3        1 NTF      0.301500
      2 N1         -0.6950   -0.2810   -1.8740 n         1 NTF     -0.525900
      3 C2          1.2710   -0.4530   -0.5590 c3        1 NTF      0.124100
      4 O2          1.7370   -1.6280   -1.2540 oh        1 NTF     -0.585800
      5 C3          1.8350   -0.4530    0.8140 c3        1 NTF      0.073100
      6 O3          3.2750   -0.2690    0.7300 oh        1 NTF     -0.602800
      7 C4          1.2580    0.6330    1.6610 c3        1 NTF      0.075100
      8 O4          1.7120    0.4600    3.0110 oh        1 NTF     -0.586800
      9 C5         -0.2590    0.6300    1.6500 c3        1 NTF      0.076100
     10 O5         -0.8100    0.6260    0.2940 os        1 NTF     -0.444600
     11 C6         -0.7540    1.8540    2.3730 c3        1 NTF      0.137400
     12 O6         -2.1690    1.8150    2.4540 oh        1 NTF     -0.590800
     13 C7         -1.8110   -1.0520   -2.3570 c         1 NTF      0.644100
     14 O7         -2.3590   -1.8540   -1.6230 o         1 NTF     -0.526100
     15 C8         -2.3210   -0.8490   -3.7830 c3        1 NTF      0.558900
     16 F1         -3.4110   -1.6060   -3.9810 f         1 NTF     -0.220967
     17 F2         -2.6330    0.4420   -3.9660 f         1 NTF     -0.220967
     18 F3         -1.3650   -1.2050   -4.6540 f         1 NTF     -0.220967
     19 H1         -0.5550   -1.3150   -0.2270 h2        1 NTF      0.099700
     20 HN1        -0.3110    0.3500   -2.4100 hn        1 NTF      0.335500
     21 H2          1.5870    0.3410   -1.0300 h1        1 NTF      0.064700
     22 HO2         2.3860   -1.4010   -1.8170 ho        1 NTF      0.430000
     23 H3          1.6490   -1.3150    1.2330 h1        1 NTF      0.054700
     24 HO3         3.6840   -0.9810    1.0670 ho        1 NTF      0.428000
     25 H4          1.5750    1.4950    1.3290 h1        1 NTF      0.104700
     26 HO4         1.6120   -0.3890    3.2510 ho        1 NTF      0.407000
     27 H5         -0.5760   -0.1640    2.1210 h1        1 NTF      0.061700
     28 H61        -0.3770    1.8750    3.2730 h1        1 NTF      0.066700
     29 H62        -0.4780    2.6530    1.8860 h1        1 NTF      0.066700
     30 HO6        -2.4560    2.4950    2.9460 ho        1 NTF      0.414000
@<TRIPOS>BOND
     1    1    2 1   
     2    1    3 1   
     3    1   10 1   
     4    1   19 1   
     5    2   13 1   
     6    2   20 1   
     7    3    4 1   
     8    3    5 1   
     9    3   21 1   
    10    4   22 1   
    11    5    6 1   
    12    5    7 1   
    13    5   23 1   
    14    6   24 1   
    15    7    8 1   
    16    7    9 1   
    17    7   25 1   
    18    8   26 1   
    19    9   10 1   
    20    9   11 1   
    21    9   27 1   
    22   11   12 1   
    23   11   28 1   
    24   11   29 1   
    25   12   30 1   
    26   13   14 2   
    27   13   15 1   
    28   15   16 1   
    29   15   17 1   
    30   15   18 1   
@<TRIPOS>SUBSTRUCTURE
     1 NTF         1 TEMP              0 ****  ****    0 ROOT
