@<TRIPOS>MOLECULE
NTF
   30    30     1     0     0
SMALL
bcc


@<TRIPOS>ATOM
      1 C1          0.2490   -0.3410    0.2220 c3        1 NTF      0.250500
      2 N1         -1.1090   -0.3900   -0.2790 n         1 NTF     -0.524900
      3 C2          1.0620   -1.6080   -0.1640 c3        1 NTF      0.086100
      4 O2          0.5850   -2.7520    0.5180 oh        1 NTF     -0.596800
      5 C3          2.5160   -1.4250    0.3040 c3        1 NTF      0.109100
      6 O3          3.3320   -2.4750   -0.1830 oh        1 NTF     -0.604800
      7 C4          3.0970   -0.1220   -0.2690 c3        1 NTF      0.118100
      8 O4          4.3740    0.1360    0.2820 oh        1 NTF     -0.591800
      9 C5          2.1830    1.0540    0.1170 c3        1 NTF      0.149100
     10 O5          0.8680    0.8070   -0.3880 os        1 NTF     -0.438600
     11 C6          2.6540    2.3520   -0.5430 c3        1 NTF      0.136400
     12 O6          2.1930    3.4150    0.2730 oh        1 NTF     -0.595800
     13 C7         -2.1540    0.0510    0.5130 c         1 NTF      0.628100
     14 O7         -2.1140    0.2240    1.7330 o         1 NTF     -0.507100
     15 C8         -3.5310    0.2160   -0.2440 c3        1 NTF      0.556900
     16 F1         -4.4900    0.8160    0.5180 f         1 NTF     -0.220633
     17 F2         -3.4410    0.9690   -1.3860 f         1 NTF     -0.220633
     18 F3         -4.0650   -0.9800   -0.6460 f         1 NTF     -0.220633
     19 H1          0.2370   -0.2250    1.3480 h2        1 NTF      0.102700
     20 HN1        -1.2020   -0.2470   -1.2640 hn        1 NTF      0.325500
     21 H2          1.0360   -1.7730   -1.2760 h1        1 NTF      0.063700
     22 HO2        -0.3110   -2.9260    0.2040 ho        1 NTF      0.422000
     23 H3          2.5530   -1.4070    1.4300 h1        1 NTF      0.069700
     24 HO3         2.9530   -3.2990    0.1540 ho        1 NTF      0.429000
     25 H4          3.1750   -0.2060   -1.3890 h1        1 NTF      0.060700
     26 HO4         4.9030   -0.6600    0.1310 ho        1 NTF      0.427000
     27 H5          2.1510    1.1780    1.2340 h1        1 NTF      0.085700
     28 H61         2.2330    2.4380   -1.5800 h1        1 NTF      0.048700
     29 H62         3.7770    2.3550   -0.5780 h1        1 NTF      0.048700
     30 HO6         2.3820    4.2310   -0.2040 ho        1 NTF      0.406000
@<TRIPOS>BOND
     1    1    2 1   
     2    1    3 1   
     3    1   10 1   
     4    1   19 1   
     5    2   13 1   
     6    2   20 1   
     7    3    4 1   
     8    3    5 1   
     9    3   21 1   
    10    4   22 1   
    11    5    6 1   
    12    5    7 1   
    13    5   23 1   
    14    6   24 1   
    15    7    8 1   
    16    7    9 1   
    17    7   25 1   
    18    8   26 1   
    19    9   10 1   
    20    9   11 1   
    21    9   27 1   
    22   11   12 1   
    23   11   28 1   
    24   11   29 1   
    25   12   30 1   
    26   13   14 2   
    27   13   15 1   
    28   15   16 1   
    29   15   17 1   
    30   15   18 1   
@<TRIPOS>SUBSTRUCTURE
     1 NTF         1 TEMP              0 ****  ****    0 ROOT
