@<TRIPOS>MOLECULE
NTH
   56    59     1     0     0
SMALL
bcc


@<TRIPOS>ATOM
      1 C1         -0.0710    0.1400    0.1270 c3        1 NTH     -0.073400
      2 C2          1.4390    0.1740    0.1100 c3        1 NTH     -0.181400
      3 C3          2.0110    0.1120    1.4980 c         1 NTH      0.573300
      4 O3          3.0550    0.7040    1.8030 o         1 NTH     -0.549100
      5 C4          1.2790   -0.7310    2.4490 ce        1 NTH     -0.280200
      6 C5          0.0820   -1.2840    2.1770 c2        1 NTH     -0.018400
      7 C6         -0.5400   -2.2240    3.1520 c3        1 NTH     -0.055200
      8 C7         -2.0380   -2.0500    3.2730 c3        1 NTH     -0.074400
      9 C8         -2.6880   -2.0790    1.9020 c3        1 NTH     -0.049700
     10 C9         -2.1420   -0.9180    1.0570 c3        1 NTH     -0.052700
     11 C10        -0.6260   -1.0680    0.8740 c3        1 NTH     -0.036500
     12 C11        -2.8430   -0.8120   -0.2940 c3        1 NTH     -0.071400
     13 C12        -4.3610   -0.8310   -0.2120 c3        1 NTH     -0.064400
     14 C13        -4.8490   -2.0160    0.6010 c3        1 NTH     -0.055000
     15 C14        -4.1900   -1.9270    1.9940 c3        1 NTH     -0.066700
     16 C15        -4.9910   -2.8950    2.8540 c3        1 NTH     -0.069400
     17 C16        -6.4220   -2.7740    2.3270 c3        1 NTH     -0.095400
     18 C17        -6.3570   -2.0410    0.9680 c3        1 NTH      0.146100
     19 O17        -6.8180   -0.7020    1.1460 os        1 NTH     -0.453900
     20 C18        -4.5570   -3.3160   -0.1330 c3        1 NTH     -0.085100
     21 C20        -8.0140   -0.3230    0.5710 c         1 NTH      0.640100
     22 O20        -8.6170   -1.1650   -0.0980 o         1 NTH     -0.572000
     23 C21        -9.6520    1.2250    1.6280 c3        1 NTH     -0.201400
     24 C22        -8.3530    1.1020    0.8670 c3        1 NTH     -0.108400
     25 C23       -10.0830    2.7050    1.7200 c         1 NTH      0.913600
     26 O23        -9.6580    3.5100    0.8420 o         1 NTH     -0.842300
     27 O24       -10.8510    3.0230    2.6700 o         1 NTH     -0.842300
     28 H11        -0.4410    0.1190   -0.9320 hc        1 NTH      0.054200
     29 H12        -0.4610    1.0800    0.6010 hc        1 NTH      0.054200
     30 H21         1.7950    1.1040   -0.4070 hc        1 NTH      0.067700
     31 H22         1.8390   -0.7060   -0.4630 hc        1 NTH      0.067700
     32 H7          1.7820   -0.8960    3.4160 ha        1 NTH      0.144000
     33 H61        -0.3150   -3.2710    2.8030 hc        1 NTH      0.051700
     34 H62        -0.0690   -2.1030    4.1640 hc        1 NTH      0.051700
     35 H71        -2.2710   -1.0800    3.7850 hc        1 NTH      0.049700
     36 H72        -2.4600   -2.8740    3.9060 hc        1 NTH      0.049700
     37 H8         -2.4320   -3.0550    1.4050 hc        1 NTH      0.048700
     38 H9         -2.3360    0.0380    1.6230 hc        1 NTH      0.060700
     39 H10        -0.4390   -1.9910    0.2490 hc        1 NTH      0.060700
     40 H111       -2.4920   -1.6470   -0.9570 hc        1 NTH      0.035200
     41 H112       -2.5380    0.1520   -0.7830 hc        1 NTH      0.035200
     42 H121       -4.7310    0.1170    0.2620 hc        1 NTH      0.058200
     43 H122       -4.7840   -0.8780   -1.2490 hc        1 NTH      0.058200
     44 H14        -4.4030   -0.8890    2.3910 hc        1 NTH      0.069700
     45 H151       -4.9310   -2.6200    3.9350 hc        1 NTH      0.035200
     46 H152       -4.6090   -3.9400    2.7450 hc        1 NTH      0.035200
     47 H161       -6.8810   -3.7820    2.1910 hc        1 NTH      0.054700
     48 H162       -7.0580   -2.1900    3.0380 hc        1 NTH      0.054700
     49 H17        -6.9630   -2.5690    0.1850 h1        1 NTH      0.081700
     50 H181       -4.8740   -4.1910    0.4850 hc        1 NTH      0.033033
     51 H182       -5.1200   -3.3380   -1.0980 hc        1 NTH      0.033033
     52 H183       -3.4700   -3.4210   -0.3620 hc        1 NTH      0.033033
     53 H221      -10.4630    0.6610    1.1050 hc        1 NTH      0.036700
     54 H222       -9.5470    0.8110    2.6600 hc        1 NTH      0.036700
     55 H211       -8.4520    1.6540   -0.1090 hc        1 NTH      0.086700
     56 H212       -7.5230    1.5810    1.4500 hc        1 NTH      0.086700
@<TRIPOS>BOND
     1    1    2 1   
     2    1   11 1   
     3    1   28 1   
     4    1   29 1   
     5    2    3 1   
     6    2   30 1   
     7    2   31 1   
     8    3    4 2   
     9    3    5 1   
    10    5    6 2   
    11    5   32 1   
    12    6    7 1   
    13    6   11 1   
    14    7    8 1   
    15    7   33 1   
    16    7   34 1   
    17    8    9 1   
    18    8   35 1   
    19    8   36 1   
    20    9   10 1   
    21    9   15 1   
    22    9   37 1   
    23   10   11 1   
    24   10   12 1   
    25   10   38 1   
    26   11   39 1   
    27   12   13 1   
    28   12   40 1   
    29   12   41 1   
    30   13   14 1   
    31   13   42 1   
    32   13   43 1   
    33   14   15 1   
    34   14   18 1   
    35   14   20 1   
    36   15   16 1   
    37   15   44 1   
    38   16   17 1   
    39   16   45 1   
    40   16   46 1   
    41   17   18 1   
    42   17   47 1   
    43   17   48 1   
    44   18   19 1   
    45   18   49 1   
    46   19   21 1   
    47   20   50 1   
    48   20   51 1   
    49   20   52 1   
    50   21   22 2   
    51   21   24 1   
    52   23   24 1   
    53   23   25 1   
    54   23   53 1   
    55   23   54 1   
    56   24   55 1   
    57   24   56 1   
    58   25   26 1   
    59   25   27 1   
@<TRIPOS>SUBSTRUCTURE
     1 NTH         1 TEMP              0 ****  ****    0 ROOT
