@<TRIPOS>MOLECULE
NTH
   56    59     1     0     0
SMALL
bcc


@<TRIPOS>ATOM
      1 C1         -0.0990    0.1690    0.1670 c3        1 NTH     -0.073400
      2 C2          1.4110    0.2070    0.1300 c3        1 NTH     -0.181400
      3 C3          2.0030    0.1090    1.5070 c         1 NTH      0.573300
      4 O3          3.0500    0.6950    1.8130 o         1 NTH     -0.549100
      5 C4          1.2860   -0.7610    2.4450 ce        1 NTH     -0.280200
      6 C5          0.0870   -1.3090    2.1750 c2        1 NTH     -0.018400
      7 C6         -0.5190   -2.2780    3.1330 c3        1 NTH     -0.055200
      8 C7         -2.0160   -2.1100    3.2810 c3        1 NTH     -0.074400
      9 C8         -2.6860   -2.1020    1.9190 c3        1 NTH     -0.049700
     10 C9         -2.1550   -0.9180    1.0980 c3        1 NTH     -0.052700
     11 C10        -0.6410   -1.0600    0.8890 c3        1 NTH     -0.037500
     12 C11        -2.8750   -0.7780   -0.2390 c3        1 NTH     -0.070400
     13 C12        -4.3910   -0.8030   -0.1360 c3        1 NTH     -0.065400
     14 C13        -4.8660   -2.0080    0.6520 c3        1 NTH     -0.059000
     15 C14        -4.1870   -1.9550    2.0380 c3        1 NTH     -0.066700
     16 C15        -4.9740   -2.9460    2.8840 c3        1 NTH     -0.069400
     17 C16        -6.4130   -2.8110    2.3820 c3        1 NTH     -0.091400
     18 C17        -6.3690   -2.0450    1.0410 c3        1 NTH      0.145100
     19 O17        -6.8450   -0.7210    1.2780 os        1 NTH     -0.453900
     20 C18        -4.5830   -3.2880   -0.1190 c3        1 NTH     -0.085100
     21 C20        -7.8900   -0.2340    0.5180 c         1 NTH      0.640100
     22 O20        -8.3410   -0.9670   -0.3660 o         1 NTH     -0.572000
     23 C21        -9.7160    1.2260    1.3720 c3        1 NTH     -0.201400
     24 C22        -8.2770    1.1520    0.9190 c3        1 NTH     -0.108400
     25 C23       -10.1480    2.6980    1.5500 c         1 NTH      0.913600
     26 O23        -9.5340    3.5870    0.8930 o         1 NTH     -0.842300
     27 O24       -11.1050    2.9250    2.3410 o         1 NTH     -0.842300
     28 H11        -0.4840    0.1760   -0.8870 hc        1 NTH      0.054200
     29 H12        -0.4830    1.0950    0.6720 hc        1 NTH      0.054200
     30 H21         1.8050   -0.6560   -0.4720 hc        1 NTH      0.067700
     31 H22         1.7580    1.1510   -0.3670 hc        1 NTH      0.067700
     32 H7          1.8030   -0.9520    3.4000 ha        1 NTH      0.143000
     33 H61        -0.2980   -3.3140    2.7520 hc        1 NTH      0.051700
     34 H62        -0.0340   -2.1840    4.1410 hc        1 NTH      0.051700
     35 H71        -2.2430   -1.1540    3.8220 hc        1 NTH      0.049200
     36 H72        -2.4280   -2.9510    3.8980 hc        1 NTH      0.049200
     37 H8         -2.4360   -3.0640    1.3930 hc        1 NTH      0.048700
     38 H9         -2.3420    0.0220    1.6920 hc        1 NTH      0.060700
     39 H10        -0.4610   -1.9650    0.2360 hc        1 NTH      0.060700
     40 H111       -2.5330   -1.5940   -0.9290 hc        1 NTH      0.035200
     41 H112       -2.5790    0.2000   -0.7070 hc        1 NTH      0.035200
     42 H121       -4.7560    0.1320    0.3670 hc        1 NTH      0.058200
     43 H122       -4.8300   -0.8230   -1.1680 hc        1 NTH      0.058200
     44 H14        -4.3950   -0.9280    2.4650 hc        1 NTH      0.068700
     45 H151       -4.5940   -3.9870    2.7410 hc        1 NTH      0.035700
     46 H152       -4.8970   -2.7000    3.9710 hc        1 NTH      0.035700
     47 H161       -7.0370   -2.2450    3.1180 hc        1 NTH      0.054200
     48 H162       -6.8750   -3.8150    2.2270 hc        1 NTH      0.054200
     49 H17        -6.9830   -2.5550    0.2530 h1        1 NTH      0.083700
     50 H181       -5.1620   -3.2860   -1.0750 hc        1 NTH      0.033367
     51 H182       -3.5000   -3.3840   -0.3680 hc        1 NTH      0.033367
     52 H183       -4.8880   -4.1800    0.4800 hc        1 NTH      0.033367
     53 H221       -9.8550    0.6850    2.3390 hc        1 NTH      0.036700
     54 H222      -10.3880    0.7590    0.6090 hc        1 NTH      0.036700
     55 H211       -8.1430    1.8290    0.0290 hc        1 NTH      0.087200
     56 H212       -7.6010    1.5190    1.7330 hc        1 NTH      0.087200
@<TRIPOS>BOND
     1    1    2 1   
     2    1   11 1   
     3    1   28 1   
     4    1   29 1   
     5    2    3 1   
     6    2   30 1   
     7    2   31 1   
     8    3    4 2   
     9    3    5 1   
    10    5    6 2   
    11    5   32 1   
    12    6    7 1   
    13    6   11 1   
    14    7    8 1   
    15    7   33 1   
    16    7   34 1   
    17    8    9 1   
    18    8   35 1   
    19    8   36 1   
    20    9   10 1   
    21    9   15 1   
    22    9   37 1   
    23   10   11 1   
    24   10   12 1   
    25   10   38 1   
    26   11   39 1   
    27   12   13 1   
    28   12   40 1   
    29   12   41 1   
    30   13   14 1   
    31   13   42 1   
    32   13   43 1   
    33   14   15 1   
    34   14   18 1   
    35   14   20 1   
    36   15   16 1   
    37   15   44 1   
    38   16   17 1   
    39   16   45 1   
    40   16   46 1   
    41   17   18 1   
    42   17   47 1   
    43   17   48 1   
    44   18   19 1   
    45   18   49 1   
    46   19   21 1   
    47   20   50 1   
    48   20   51 1   
    49   20   52 1   
    50   21   22 2   
    51   21   24 1   
    52   23   24 1   
    53   23   25 1   
    54   23   53 1   
    55   23   54 1   
    56   24   55 1   
    57   24   56 1   
    58   25   26 1   
    59   25   27 1   
@<TRIPOS>SUBSTRUCTURE
     1 NTH         1 TEMP              0 ****  ****    0 ROOT
