@<TRIPOS>MOLECULE
NTH
   56    58     1     0     0
SMALL
bcc


@<TRIPOS>ATOM
      1 C1          2.2510    2.5510    0.3420 c3        1 NTH     -0.148000
      2 C2          3.6160    2.3480    0.3530 c3        1 NTH     -0.210000
      3 C3          4.1500    2.2800    1.7110 c2        1 NTH      0.265000
      4 O3          5.1850    2.8590    1.9900 o         1 NTH     -0.315000
      5 C4          3.1500    1.8350    2.8650 c2        1 NTH     -0.264000
      6 C5          1.6410    1.3560    2.3930 c1        1 NTH     -0.010000
      7 C6          0.6990    1.3620    3.1560 c2        1 NTH     -0.138000
      8 C7         -0.3930    0.8570    2.8040 c3        1 NTH     -0.156000
      9 C8         -0.6910    1.1280    1.5090 c3        1 NTH     -0.085000
     10 C9         -0.1720    2.0260    1.0620 c3        1 NTH     -0.084000
     11 C10         1.3240    1.5020    1.2130 c3        1 NTH     -0.084000
     12 C11        -0.4990    2.1980   -0.2040 c3        1 NTH     -0.150000
     13 C12        -0.3470    1.1570   -0.8490 c3        1 NTH     -0.148000
     14 C13        -0.8210    0.3350   -0.4250 c3        1 NTH     -0.050000
     15 C14        -0.5550    0.1740    0.8800 c3        1 NTH     -0.095000
     16 C15         0.8340   -0.4990    0.9370 c3        1 NTH     -0.150000
     17 C16         1.0480   -0.8470   -0.2330 c3        1 NTH     -0.172000
     18 C17        -0.3300   -0.5690   -0.9780 c3        1 NTH      0.032000
     19 O17        -1.2500   -1.8180   -0.8780 os        1 NTH     -0.278000
     20 C18        -2.3560    0.3810   -0.6840 c3        1 NTH     -0.204000
     21 C20        -1.2760   -2.6170   -2.0640 c2        1 NTH      0.311000
     22 O20        -0.6050   -2.3140   -3.0020 o         1 NTH     -0.396000
     23 C21        -2.5170   -4.1430   -3.5910 c3        1 NTH     -0.230000
     24 C22        -2.1640   -3.8510   -2.1320 c3        1 NTH     -0.137000
     25 C23        -3.1100   -5.5440   -3.7020 c2        1 NTH      0.333000
     26 O23        -4.2880   -5.7580   -3.3280 o         1 NTH     -0.576500
     27 O24        -2.4600   -6.4580   -4.2920 o         1 NTH     -0.576500
     28 H11         2.0800    3.4570    0.6830 hc        1 NTH      0.090500
     29 H12         1.9510    2.5170   -0.5850 hc        1 NTH      0.090500
     30 H21         4.0620    3.0410   -0.1890 hc        1 NTH      0.108500
     31 H22         3.8500    1.5670   -0.1270 hc        1 NTH      0.108500
     32 H7          3.4940    1.5590    3.7110 ha        1 NTH      0.144000
     33 H61         0.5890    2.2680    3.4860 ha        1 NTH      0.094000
     34 H62         0.9640    0.9040    3.9970 ha        1 NTH      0.094000
     35 H71        -0.3470   -0.0920    2.9210 hc        1 NTH      0.087000
     36 H72        -1.1030    1.2130    3.3730 hc        1 NTH      0.087000
     37 H8         -1.6380    1.3300    1.4900 hc        1 NTH      0.088000
     38 H9         -0.3250    2.8250    1.5870 hc        1 NTH      0.077000
     39 H10         1.3790    0.6440    0.7900 hc        1 NTH      0.116000
     40 H111        0.0650    2.9000   -0.5890 hc        1 NTH      0.081000
     41 H112       -1.4330    2.4740   -0.2580 hc        1 NTH      0.081000
     42 H121        0.6240    0.9640   -0.9150 hc        1 NTH      0.082000
     43 H122       -0.7100    1.2950   -1.7740 hc        1 NTH      0.082000
     44 H14        -1.1990   -0.4820    1.2230 hc        1 NTH      0.103000
     45 H151        0.8140   -1.2750    1.5250 hc        1 NTH      0.073500
     46 H152        1.5110    0.1380    1.2330 hc        1 NTH      0.073500
     47 H161        1.2770   -1.8190   -0.2710 hc        1 NTH      0.091500
     48 H162        1.7730   -0.3030   -0.6300 hc        1 NTH      0.091500
     49 H17        -0.1700   -0.3460   -1.9020 h1        1 NTH      0.120000
     50 H181       -2.7180    1.2330   -0.3540 hc        1 NTH      0.085333
     51 H182       -2.7910   -0.3630   -0.2120 hc        1 NTH      0.085333
     52 H183       -2.5270    0.3020   -1.6400 hc        1 NTH      0.085333
     53 H221       -3.1730   -3.4850   -3.9050 hc        1 NTH      0.073500
     54 H222       -1.7070   -4.0860   -4.1420 hc        1 NTH      0.073500
     55 H211       -1.6870   -4.6180   -1.7510 hc        1 NTH      0.126000
     56 H212       -2.9730   -3.6940   -1.6290 hc        1 NTH      0.126000
@<TRIPOS>BOND
     1    1    2 1   
     2    1   11 1   
     3    1   28 1   
     4    1   29 1   
     5    2    3 1   
     6    2   30 1   
     7    2   31 1   
     8    3    4 1   
     9    3    5 1   
    10    5    6 1   
    11    5   32 1   
    12    6   11 1   
    13    7    8 1   
    14    7   33 1   
    15    7   34 1   
    16    8    9 1   
    17    8   35 1   
    18    8   36 1   
    19    9   10 1   
    20    9   15 1   
    21    9   37 1   
    22   10   11 1   
    23   10   12 1   
    24   10   38 1   
    25   11   39 1   
    26   12   13 1   
    27   12   40 1   
    28   12   41 1   
    29   13   14 1   
    30   13   42 1   
    31   13   43 1   
    32   14   15 1   
    33   14   18 1   
    34   14   20 1   
    35   15   16 1   
    36   15   44 1   
    37   16   17 1   
    38   16   45 1   
    39   16   46 1   
    40   17   18 1   
    41   17   47 1   
    42   17   48 1   
    43   18   19 1   
    44   18   49 1   
    45   19   21 1   
    46   20   50 1   
    47   20   51 1   
    48   20   52 1   
    49   21   22 1   
    50   21   24 1   
    51   23   24 1   
    52   23   25 1   
    53   23   53 1   
    54   23   54 1   
    55   24   55 1   
    56   24   56 1   
    57   25   26 1   
    58   25   27 1   
@<TRIPOS>SUBSTRUCTURE
     1 NTH         1 TEMP              0 ****  ****    0 ROOT
