@<TRIPOS>MOLECULE
NTH
   56    59     1     0     0
SMALL
bcc


@<TRIPOS>ATOM
      1 C1         -1.8050   -0.9030   -3.9480 c3        1 NTH     -0.073400
      2 C2         -2.1450   -0.8830   -5.4200 c3        1 NTH     -0.181400
      3 C3         -1.8710    0.4610   -6.0340 c         1 NTH      0.573300
      4 O3         -2.5710    0.9190   -6.9470 o         1 NTH     -0.549100
      5 C4         -0.6970    1.1680   -5.5140 ce        1 NTH     -0.280200
      6 C5          0.0050    0.7480   -4.4440 c2        1 NTH     -0.018400
      7 C6          1.2570    1.4580   -4.0530 c3        1 NTH     -0.055200
      8 C7          1.4220    1.5880   -2.5540 c3        1 NTH     -0.074400
      9 C8          1.2530    0.2370   -1.8830 c3        1 NTH     -0.049700
     10 C9         -0.1610   -0.2940   -2.1590 c3        1 NTH     -0.052700
     11 C10        -0.3670   -0.4790   -3.6690 c3        1 NTH     -0.036500
     12 C11        -0.4420   -1.5940   -1.4120 c3        1 NTH     -0.071400
     13 C12        -0.0990   -1.5490    0.0680 c3        1 NTH     -0.064400
     14 C13         1.3190   -1.0530    0.2850 c3        1 NTH     -0.055000
     15 C14         1.4340    0.3340   -0.3840 c3        1 NTH     -0.066700
     16 C15         2.7190    0.9220    0.1810 c3        1 NTH     -0.069400
     17 C16         2.7670    0.4110    1.6230 c3        1 NTH     -0.095400
     18 C17         1.7340   -0.7320    1.7460 c3        1 NTH      0.146100
     19 O17         0.5970   -0.2480    2.4600 os        1 NTH     -0.453900
     20 C18         2.3210   -2.0710   -0.2400 c3        1 NTH     -0.085100
     21 C20         0.3410   -0.7380    3.7240 c         1 NTH      0.640100
     22 O20         1.1040   -1.6000    4.1660 o         1 NTH     -0.572000
     23 C21        -0.5480    0.6270    5.6060 c3        1 NTH     -0.201400
     24 C22        -0.8740   -0.1160    4.3330 c3        1 NTH     -0.108400
     25 C23        -1.8460    1.0620    6.3220 c         1 NTH      0.913600
     26 O23        -2.9050    0.4100    6.0940 o         1 NTH     -0.842300
     27 O24        -1.7670    2.0460    7.1080 o         1 NTH     -0.842300
     28 H11        -2.5060   -0.2260   -3.3930 hc        1 NTH      0.054200
     29 H12        -1.9630   -1.9440   -3.5590 hc        1 NTH      0.054200
     30 H21        -3.2240   -1.1550   -5.5670 hc        1 NTH      0.067700
     31 H22        -1.5260   -1.6410   -5.9710 hc        1 NTH      0.067700
     32 H7         -0.4100    2.0770   -6.0680 ha        1 NTH      0.144000
     33 H61         1.2880    2.4790   -4.5190 hc        1 NTH      0.051700
     34 H62         2.1230    0.8730   -4.4720 hc        1 NTH      0.051700
     35 H71         0.6690    2.3120   -2.1470 hc        1 NTH      0.049700
     36 H72         2.4410    1.9970   -2.3240 hc        1 NTH      0.049700
     37 H8          2.0110   -0.4740   -2.3140 hc        1 NTH      0.048700
     38 H9         -0.8950    0.4790   -1.7950 hc        1 NTH      0.060700
     39 H10         0.3230   -1.3030   -4.0190 hc        1 NTH      0.060700
     40 H111        0.1220   -2.4310   -1.9030 hc        1 NTH      0.035200
     41 H112       -1.5360   -1.8320   -1.5040 hc        1 NTH      0.035200
     42 H121       -0.2160   -2.5750    0.5040 hc        1 NTH      0.058200
     43 H122       -0.8120   -0.8700    0.6060 hc        1 NTH      0.058200
     44 H14         0.5850    0.9630    0.0210 hc        1 NTH      0.069700
     45 H151        3.6100    0.5730   -0.3990 hc        1 NTH      0.035200
     46 H152        2.7030    2.0380    0.1460 hc        1 NTH      0.035200
     47 H161        3.7850    0.0280    1.8750 hc        1 NTH      0.054700
     48 H162        2.5100    1.2280    2.3410 hc        1 NTH      0.054700
     49 H17         2.1710   -1.6300    2.2560 h1        1 NTH      0.081700
     50 H181        2.1460   -2.2970   -1.3180 hc        1 NTH      0.033033
     51 H182        3.3630   -1.6860   -0.1230 hc        1 NTH      0.033033
     52 H183        2.2250   -3.0230    0.3360 hc        1 NTH      0.033033
     53 H221        0.0270   -0.0300    6.3040 hc        1 NTH      0.036700
     54 H222        0.0700    1.5320    5.3890 hc        1 NTH      0.036700
     55 H211       -1.3580    0.5790    3.5980 hc        1 NTH      0.086700
     56 H212       -1.6110   -0.9340    4.5700 hc        1 NTH      0.086700
@<TRIPOS>BOND
     1    1    2 1   
     2    1   11 1   
     3    1   28 1   
     4    1   29 1   
     5    2    3 1   
     6    2   30 1   
     7    2   31 1   
     8    3    4 2   
     9    3    5 1   
    10    5    6 2   
    11    5   32 1   
    12    6    7 1   
    13    6   11 1   
    14    7    8 1   
    15    7   33 1   
    16    7   34 1   
    17    8    9 1   
    18    8   35 1   
    19    8   36 1   
    20    9   10 1   
    21    9   15 1   
    22    9   37 1   
    23   10   11 1   
    24   10   12 1   
    25   10   38 1   
    26   11   39 1   
    27   12   13 1   
    28   12   40 1   
    29   12   41 1   
    30   13   14 1   
    31   13   42 1   
    32   13   43 1   
    33   14   15 1   
    34   14   18 1   
    35   14   20 1   
    36   15   16 1   
    37   15   44 1   
    38   16   17 1   
    39   16   45 1   
    40   16   46 1   
    41   17   18 1   
    42   17   47 1   
    43   17   48 1   
    44   18   19 1   
    45   18   49 1   
    46   19   21 1   
    47   20   50 1   
    48   20   51 1   
    49   20   52 1   
    50   21   22 2   
    51   21   24 1   
    52   23   24 1   
    53   23   25 1   
    54   23   53 1   
    55   23   54 1   
    56   24   55 1   
    57   24   56 1   
    58   25   26 1   
    59   25   27 1   
@<TRIPOS>SUBSTRUCTURE
     1 NTH         1 TEMP              0 ****  ****    0 ROOT
