@<TRIPOS>MOLECULE
NTI
   30    26     1     0     0
SMALL
bcc


@<TRIPOS>ATOM
      1 S          -0.4600    3.6690    1.3480 ss        1 NTI      0.308200
      2 C1          0.4760   -0.6700   -1.1060 cg        1 NTI     -0.105200
      3 N1         -0.3180    1.5360   -0.1330 n         1 NTI     -0.428500
      4 O1          1.6110   -1.8790    0.0360 os        1 NTI     -0.383700
      5 C2          0.4500   -2.0070   -0.7430 c1        1 NTI      0.135600
      6 N2         -2.2480    2.0670    1.4680 ne        1 NTI     -0.609700
      7 O2         -0.6320   -0.4370    0.9710 o         1 NTI     -0.588100
      8 C3         -0.1910    0.1290   -0.0090 c         1 NTI      0.631300
      9 N3         -1.4490    5.5050    2.9410 ne        1 NTI      0.437700
     10 O3          1.4430   -3.8430    1.1630 o         1 NTI     -0.502000
     11 C4         -0.1200   -0.2610   -2.2880 c1        1 NTI     -0.001500
     12 O4         -0.4370    6.1850    2.8520 o         1 NTI     -0.322300
     13 C5         -0.1740   -2.9350   -1.5620 c1        1 NTI     -0.089500
     14 O5         -2.5110    5.9530    3.6720 os        1 NTI     -0.360000
     15 C6         -0.7440   -1.1890   -3.1070 c1        1 NTI     -0.055000
     16 C7         -0.9610    2.2830    0.8890 ce        1 NTI      0.268500
     17 C8         -0.7700   -2.5260   -2.7440 c1        1 NTI     -0.055000
     18 C9         -1.5370    4.2720    2.2440 ce        1 NTI     -0.266900
     19 C10        -2.6220    3.3240    2.3310 c1        1 NTI      0.267500
     20 C11         2.1310   -3.1030    0.4880 c         1 NTI      0.649100
     21 C12         3.5560   -3.4880    0.1580 c3        1 NTI     -0.152100
     22 HN1         0.0300    1.9630   -0.8600 hn        1 NTI      0.361500
     23 H4         -0.1020    0.6810   -2.5440 ha        1 NTI      0.105500
     24 H5         -0.1930   -3.8770   -1.3060 ha        1 NTI      0.106500
     25 H6         -1.1640   -0.9010   -3.9400 ha        1 NTI      0.090000
     26 H8         -1.2090   -3.1800   -3.3210 ha        1 NTI      0.090000
     27 H10        -3.4470    3.4440    2.8390 DU        1 NTI      0.208000
     28 H12         3.8430   -3.0160   -0.6510 hc        1 NTI      0.086033
     29 H12A        3.6070   -4.4550    0.0080 hc        1 NTI      0.086033
     30 H12B        4.1420   -3.2420    0.9050 hc        1 NTI      0.086033
@<TRIPOS>BOND
     1    1   16 1   
     2    1   18 1   
     3    2    8 1   
     4    2   11 3   
     5    3    8 1   
     6    3   16 2   
     7    3   22 1   
     8    4    5 1   
     9    4   20 1   
    10    5   13 3   
    11    6   16 1   
    12    6   19 2   
    13    7    8 2   
    14    9   12 2   
    15    9   18 1   
    16   10   20 2   
    17   11   23 1   
    18   13   24 1   
    19   15   17 3   
    20   15   25 1   
    21   17   26 1   
    22   18   19 2   
    23   20   21 1   
    24   21   28 1   
    25   21   29 1   
    26   21   30 1   
@<TRIPOS>SUBSTRUCTURE
     1 NTI         1 TEMP              0 ****  ****    0 ROOT
