@<TRIPOS>MOLECULE
NTI
   30    31     1     0     0
SMALL
bcc


@<TRIPOS>ATOM
      1 S           2.0940    0.8030    1.2320 ss        1 NTI     -0.049300
      2 C1         -2.2370   -1.1450   -0.6700 ca        1 NTI     -0.161600
      3 N1         -0.0300   -0.3120   -0.0190 n         1 NTI     -0.531400
      4 C2         -3.0760   -0.3250    0.1050 ca        1 NTI      0.138100
      5 N2          2.1570   -0.3520   -1.1170 nc        1 NTI     -0.659000
      6 C3         -0.8460   -0.7800   -1.0670 c         1 NTI      0.690700
      7 N3          4.8370    1.2350    0.9080 no        1 NTI      0.370200
      8 O3         -4.3530    2.0300   -0.0110 o         1 NTI     -0.499000
      9 C4         -2.7290   -2.3740   -1.1260 ca        1 NTI     -0.066000
     10 O4          5.8230    1.1060    0.2310 o         1 NTI     -0.210000
     11 C5         -4.3810   -0.7260    0.4190 ca        1 NTI     -0.141000
     12 O5          4.8680    1.7780    1.9820 o         1 NTI     -0.210000
     13 C6         -4.0240   -2.7780   -0.8100 ca        1 NTI     -0.142000
     14 C7          1.3180   -0.0280   -0.0930 cd        1 NTI      0.575300
     15 C8         -4.8470   -1.9560   -0.0400 ca        1 NTI     -0.086000
     16 C9          3.5760    0.7210    0.4130 cd        1 NTI     -0.363600
     17 C10         3.4200    0.0740   -0.8260 cc        1 NTI      0.467200
     18 C11        -3.2390    2.0440    0.4990 c         1 NTI      0.647100
     19 C12        -2.4600    3.1880    1.0460 c3        1 NTI     -0.151100
     20 HN1        -0.4840   -0.0780    0.8400 hn        1 NTI      0.345500
     21 H4         -2.0810   -3.0110   -1.7500 ha        1 NTI      0.160000
     22 H5         -5.0330   -0.0580    1.0020 ha        1 NTI      0.162000
     23 H6         -4.3990   -3.7460   -1.1770 ha        1 NTI      0.147000
     24 H8         -5.8730   -2.2740    0.2040 ha        1 NTI      0.146000
     25 H10         4.2320   -0.1060   -1.5500 h4        1 NTI      0.077100
     26 H12        -1.9730    3.7270    0.1960 hc        1 NTI      0.083700
     27 H12A       -3.1590    3.8850    1.5700 hc        1 NTI      0.083700
     28 H12B       -1.6740    2.8380    1.7570 hc        1 NTI      0.083700
     29 O1         -2.5390    0.8530    0.6160 os        1 NTI     -0.403200
     30 O2         -0.4370   -0.9150   -2.2250 o         1 NTI     -0.504100
@<TRIPOS>BOND
     1    1   14 1   
     2    1   16 1   
     3    2    4 ar  
     4    2    6 1   
     5    2    9 ar  
     6    3    6 1   
     7    3   14 1   
     8    3   20 1   
     9    4   11 ar  
    10    4   29 1   
    11    5   14 2   
    12    5   17 1   
    13    6   30 2   
    14    7   10 1   
    15    7   12 1   
    16    7   16 1   
    17    8   18 2   
    18    9   13 ar  
    19    9   21 1   
    20   11   15 ar  
    21   11   22 1   
    22   13   15 ar  
    23   13   23 1   
    24   15   24 1   
    25   16   17 2   
    26   17   25 1   
    27   18   19 1   
    28   18   29 1   
    29   19   26 1   
    30   19   27 1   
    31   19   28 1   
@<TRIPOS>SUBSTRUCTURE
     1 NTI         1 TEMP              0 ****  ****    0 ROOT
