@<TRIPOS>MOLECULE
NTI
   30    29     1     0     0
SMALL
bcc


@<TRIPOS>ATOM
      1 S           1.0120    0.5940    0.3530 ss        1 NTI      0.548000
      2 C1          4.2070    0.0610   -2.4700 c2        1 NTI     -0.189000
      3 N1          3.6180    0.3620   -0.0960 n         1 NTI     -0.315000
      4 C2          5.6120   -0.1610   -2.1200 c2        1 NTI      0.061000
      5 N2          3.0770    0.2510    2.1810 n2        1 NTI     -0.239000
      6 C3          3.1980    0.2070   -1.4030 c2        1 NTI      0.370000
      7 N3         -0.3780    0.0200    2.7670 no        1 NTI      0.881400
      8 O3          6.7610   -0.2760    0.2580 o         1 NTI     -0.336000
      9 C4          3.8230    0.0860   -3.7730 c2        1 NTI      0.069000
     10 O4         -1.5000    0.1360    3.1750 o         1 NTI     -0.486200
     11 C5          6.6380    0.6140   -2.5220 c2        1 NTI     -0.194000
     12 O5          0.3650   -0.8390    3.1670 o         1 NTI     -0.486200
     13 C6          4.7730   -0.0680   -4.8430 c2        1 NTI     -0.476000
     14 C7          2.6740    0.3920    0.9670 c2        1 NTI     -0.072000
     15 C8          6.0950    0.0230   -4.7280 c1        1 NTI      0.227000
     16 C9          0.1240    0.9680    1.7790 c2        1 NTI     -0.721000
     17 C10        -0.0120    2.2840    1.6120 c1        1 NTI      0.336000
     18 C11         6.4920   -1.3660   -0.2440 c2        1 NTI      0.313000
     19 C12         6.7470   -2.7400    0.2630 c3        1 NTI     -0.218000
     20 HN1         4.5940    0.3480    0.1310 hn        1 NTI      0.274000
     21 H4          2.7600    0.2360   -4.0390 ha        1 NTI      0.168000
     22 H5          6.4800    1.5800   -3.0250 ha        1 NTI      0.153500
     23 H6          4.3510   -0.2800   -5.8480 ha        1 NTI      0.200000
     24 H8          7.6780    0.3670   -2.2720 ha        1 NTI      0.153500
     25 H10         2.3800    0.2620    2.8950 hn        1 NTI      0.200000
     26 H12         7.8510   -2.8860    0.3620 hc        1 NTI      0.126667
     27 H12A        6.3290   -3.5100   -0.4300 hc        1 NTI      0.126667
     28 H12B        6.2710   -2.8450    1.2700 hc        1 NTI      0.126667
     29 O1          5.8180   -1.3710   -1.4510 os        1 NTI     -0.242000
     30 O2          1.9620    0.2180   -1.6570 o         1 NTI     -0.358000
@<TRIPOS>BOND
     1    1   14 1   
     2    1   16 1   
     3    2    4 1   
     4    2    6 1   
     5    2    9 1   
     6    3    6 1   
     7    3   14 1   
     8    3   20 1   
     9    4   11 1   
    10    4   29 1   
    11    5   14 1   
    12    5   25 1   
    13    6   30 1   
    14    7   10 2   
    15    7   12 2   
    16    7   16 1   
    17    8   18 1   
    18    9   13 1   
    19    9   21 1   
    20   11   22 1   
    21   11   24 1   
    22   13   15 1   
    23   13   23 1   
    24   16   17 1   
    25   18   19 1   
    26   18   29 1   
    27   19   26 1   
    28   19   27 1   
    29   19   28 1   
@<TRIPOS>SUBSTRUCTURE
     1 NTI         1 TEMP              0 ****  ****    0 ROOT
