@<TRIPOS>MOLECULE
NTI
   30    29     1     0     0
SMALL
bcc


@<TRIPOS>ATOM
      1 S           0.8780    0.6660    0.3530 ss        1 NTI      0.552000
      2 C1          4.2770    0.1970   -2.2330 c2        1 NTI     -0.190000
      3 N1          3.4980    0.3190    0.1130 ns        1 NTI     -0.304000
      4 C2          5.6770    0.0840   -1.8160 c2        1 NTI      0.071000
      5 N2          2.7500    0.0660    2.3180 n2        1 NTI     -0.245000
      6 C3          3.1910    0.2870   -1.2350 c2        1 NTI      0.369000
      7 N3         -0.7520    0.0130    2.5900 no        1 NTI      0.881400
      8 O3          7.7430   -1.6580   -1.9390 o         1 NTI     -0.319000
      9 C4          3.9490    0.1920   -3.5530 c2        1 NTI      0.070000
     10 O4         -1.9000    0.1650    2.9020 o         1 NTI     -0.486700
     11 C5          6.6620    0.9010   -2.2350 c2        1 NTI     -0.220000
     12 O5         -0.0950   -0.9130    2.9920 o         1 NTI     -0.486700
     13 C6          4.9280    0.1080   -4.6010 c2        1 NTI     -0.489000
     14 C7          2.4640    0.3180    1.0890 c2        1 NTI     -0.073000
     15 C8          6.2320    0.3490   -4.4920 c1        1 NTI      0.255000
     16 C9         -0.1110    0.9940    1.7230 c2        1 NTI     -0.722000
     17 C10        -0.1570    2.3250    1.6450 c1        1 NTI      0.335000
     18 C11         6.9470   -1.8190   -1.0210 c2        1 NTI      0.318000
     19 C12         6.9300   -2.8480    0.0540 c3        1 NTI     -0.219000
     20 HN1         4.4340    0.1350    0.4140 hn        1 NTI      0.271000
     21 H4          2.8850    0.2630   -3.8540 ha        1 NTI      0.168000
     22 H5          6.4500    1.8280   -2.7920 ha        1 NTI      0.158000
     23 H6          4.5450   -0.1760   -5.6040 ha        1 NTI      0.200000
     24 H8          7.7170    0.7230   -1.9870 ha        1 NTI      0.158000
     25 H10         1.9940    0.0660    2.9690 hn        1 NTI      0.200000
     26 H12         6.7740   -3.8510   -0.4150 hc        1 NTI      0.124333
     27 H12A        6.1140   -2.6530    0.7910 hc        1 NTI      0.124333
     28 H12B        7.9180   -2.8370    0.5780 hc        1 NTI      0.124333
     29 O1          5.8740   -0.9550   -0.9060 os        1 NTI     -0.263000
     30 O2          1.9820    0.3790   -1.5860 o         1 NTI     -0.364000
@<TRIPOS>BOND
     1    1   14 1   
     2    1   16 1   
     3    2    4 1   
     4    2    6 1   
     5    2    9 1   
     6    3    6 1   
     7    3   14 1   
     8    3   20 1   
     9    4   11 1   
    10    4   29 1   
    11    5   14 1   
    12    5   25 1   
    13    6   30 1   
    14    7   10 2   
    15    7   12 2   
    16    7   16 1   
    17    8   18 1   
    18    9   13 1   
    19    9   21 1   
    20   11   22 1   
    21   11   24 1   
    22   13   15 1   
    23   13   23 1   
    24   16   17 1   
    25   18   19 1   
    26   18   29 1   
    27   19   26 1   
    28   19   27 1   
    29   19   28 1   
@<TRIPOS>SUBSTRUCTURE
     1 NTI         1 TEMP              0 ****  ****    0 ROOT
