@<TRIPOS>MOLECULE
NTJ
   21    20     1     0     0
SMALL
bcc


@<TRIPOS>ATOM
      1 O1          1.8670   -0.6300   -0.5870 o         1 NTJ     -0.722300
      2 P1          3.0210   -0.3670    0.2530 p5        1 NTJ      1.355400
      3 N1          2.4790   -0.0670    1.8780 n4        1 NTJ     -0.678500
      4 C2          1.4950    1.0280    1.7860 c3        1 NTJ      0.050100
      5 C1          1.8710   -1.3260    2.3430 c3        1 NTJ      0.050100
      6 O2          3.8570    0.9330   -0.0950 os        1 NTJ     -0.588200
      7 C3          3.5420    1.6850   -1.2730 c3        1 NTJ      0.160400
      8 C4          3.0370    3.0550   -0.8910 c3        1 NTJ     -0.132100
      9 H2C1        0.6820    0.7210    1.0670 hx        1 NTJ      0.119533
     10 H2C2        2.0310    1.9390    1.3950 hx        1 NTJ      0.119533
     11 H2C3        1.0360    1.2600    2.7840 hx        1 NTJ      0.119533
     12 H1C1        1.0930   -1.6470    1.5910 hx        1 NTJ      0.119533
     13 H1C2        1.3760   -1.2020    3.3450 hx        1 NTJ      0.119533
     14 H1C3        2.6770   -2.1040    2.4260 hx        1 NTJ      0.119533
     15 H3C1        2.7890    1.1130   -1.8810 h1        1 NTJ      0.086200
     16 H3C2        4.5170    1.7730   -1.8350 h1        1 NTJ      0.086200
     17 H4C1        3.6850    3.5100   -0.1040 hc        1 NTJ      0.064367
     18 H4C2        3.0630    3.7120   -1.7970 hc        1 NTJ      0.064367
     19 H4C3        1.9850    3.0180   -0.5190 hc        1 NTJ      0.064367
     20 HP1         3.8890   -1.2700    0.5230 hp        1 NTJ     -0.050400
     21 H11         3.2140    0.2140    2.5330 hn        1 NTJ      0.470800
@<TRIPOS>BOND
     1    1    2 2   
     2    2    3 1   
     3    2    6 1   
     4    2   20 1   
     5    3    4 1   
     6    3    5 1   
     7    3   21 1   
     8    4    9 1   
     9    4   10 1   
    10    4   11 1   
    11    5   12 1   
    12    5   13 1   
    13    5   14 1   
    14    6    7 1   
    15    7    8 1   
    16    7   15 1   
    17    7   16 1   
    18    8   17 1   
    19    8   18 1   
    20    8   19 1   
@<TRIPOS>SUBSTRUCTURE
     1 NTJ         1 TEMP              0 ****  ****    0 ROOT
