@<TRIPOS>MOLECULE
NTJ
   21    20     1     0     0
SMALL
bcc


@<TRIPOS>ATOM
      1 O1          1.8400   -0.6240   -0.5790 o         1 NTJ     -0.722300
      2 P1          3.0150   -0.3630    0.2330 p5        1 NTJ      1.355400
      3 N1          2.5160   -0.0750    1.8730 nx        1 NTJ     -0.678500
      4 C2          1.5250    1.0170    1.8150 c3        1 NTJ      0.050100
      5 C1          1.9240   -1.3400    2.3460 c3        1 NTJ      0.050100
      6 O2          3.8370    0.9440   -0.1280 os        1 NTJ     -0.588200
      7 C3          3.4890    1.7020   -1.2920 c3        1 NTJ      0.160400
      8 C4          2.9870    3.0670   -0.8880 c3        1 NTJ     -0.132100
      9 H2C1        0.6950    0.7110    1.1150 hx        1 NTJ      0.119533
     10 H2C2        2.0480    1.9320    1.4160 hx        1 NTJ      0.119533
     11 H2C3        1.0920    1.2400    2.8260 hx        1 NTJ      0.119533
     12 H1C1        1.1270   -1.6580    1.6120 hx        1 NTJ      0.119533
     13 H1C2        1.4560   -1.2250    3.3610 hx        1 NTJ      0.119533
     14 H1C3        2.7340   -2.1160    2.4020 hx        1 NTJ      0.119533
     15 H3C1        2.7230    1.1300   -1.8840 h1        1 NTJ      0.086200
     16 H3C2        4.4480    1.7980   -1.8780 h1        1 NTJ      0.086200
     17 H4C1        3.6550    3.5190   -0.1140 hc        1 NTJ      0.064367
     18 H4C2        2.9870    3.7300   -1.7900 hc        1 NTJ      0.064367
     19 H4C3        1.9460    3.0220   -0.4890 hc        1 NTJ      0.064367
     20 HP1         3.8940   -1.2640    0.4740 hp        1 NTJ     -0.050400
     21 H11         3.2670    0.2030    2.5110 hn        1 NTJ      0.470800
@<TRIPOS>BOND
     1    1    2 2   
     2    2    3 1   
     3    2    6 1   
     4    2   20 1   
     5    3    4 1   
     6    3    5 1   
     7    3   21 1   
     8    4    9 1   
     9    4   10 1   
    10    4   11 1   
    11    5   12 1   
    12    5   13 1   
    13    5   14 1   
    14    6    7 1   
    15    7    8 1   
    16    7   15 1   
    17    7   16 1   
    18    8   17 1   
    19    8   18 1   
    20    8   19 1   
@<TRIPOS>SUBSTRUCTURE
     1 NTJ         1 TEMP              0 ****  ****    0 ROOT
