@<TRIPOS>MOLECULE
NTJ
   20    18     1     0     0
SMALL
bcc


@<TRIPOS>ATOM
      1 O1         -2.0140    0.7710   -0.0560 o         1 NTJ     -1.112000
      2 P1         -0.5340    0.7710   -0.0560 p3        1 NTJ      2.710000
      3 N1          0.0170    0.7710    1.5020 n2        1 NTJ     -0.873000
      4 C2         -0.7640    0.1760    2.5330 c3        1 NTJ     -0.074500
      5 C1          1.2690    1.3730    1.8140 c3        1 NTJ     -0.074500
      6 O2         -0.0070   -0.5200   -0.8010 os        1 NTJ     -0.764000
      7 C3         -0.3280   -0.6870   -2.1620 c3        1 NTJ      0.013000
      8 C4          0.3740   -1.9150   -2.6980 c3        1 NTJ     -0.237000
      9 H2C1       -1.0790   -0.7000    2.2380 h1        1 NTJ      0.081667
     10 H2C2       -0.2180    0.0720    3.3360 h1        1 NTJ      0.081667
     11 H2C3       -1.5300    0.7470    2.7320 h1        1 NTJ      0.081667
     12 H1C1        1.1170    2.2220    2.2710 h1        1 NTJ      0.081667
     13 H1C2        1.7800    0.7780    2.3950 h1        1 NTJ      0.081667
     14 H1C3        1.7680    1.5310    0.9910 h1        1 NTJ      0.081667
     15 H3C1       -1.2930   -0.7960   -2.2580 h1        1 NTJ      0.098000
     16 H3C2       -0.0380    0.0980   -2.6640 h1        1 NTJ      0.098000
     17 H4C1        0.0800   -2.7020   -2.2000 hc        1 NTJ      0.081333
     18 H4C2        0.1550   -2.0280   -3.6430 hc        1 NTJ      0.081333
     19 H4C3        1.3390   -1.8090   -2.5980 hc        1 NTJ      0.081333
     20 HP1        -0.0940    1.8470   -0.6770 hp        1 NTJ     -0.519000
@<TRIPOS>BOND
     1    1    2 1   
     2    2    6 1   
     3    2   20 1   
     4    3    4 1   
     5    3    5 1   
     6    4    9 1   
     7    4   10 1   
     8    4   11 1   
     9    5   12 1   
    10    5   13 1   
    11    5   14 1   
    12    6    7 1   
    13    7    8 1   
    14    7   15 1   
    15    7   16 1   
    16    8   17 1   
    17    8   18 1   
    18    8   19 1   
@<TRIPOS>SUBSTRUCTURE
     1 NTJ         1 TEMP              0 ****  ****    0 ROOT
