@<TRIPOS>MOLECULE
NTJ
   21    20     1     0     0
SMALL
bcc


@<TRIPOS>ATOM
      1 O1          1.9500   -0.6750   -0.5780 o         1 NTJ     -0.722300
      2 P1          3.0800   -0.3440    0.2690 p5        1 NTJ      1.355400
      3 N1          2.5100   -0.0550    1.8860 n4        1 NTJ     -0.678500
      4 C2          1.4710    0.9870    1.7740 c3        1 NTJ      0.050100
      5 C1          1.9620   -1.3390    2.3600 c3        1 NTJ      0.050100
      6 O2          3.8510    0.9950   -0.0850 os        1 NTJ     -0.588200
      7 C3          3.5090    1.7170   -1.2740 c3        1 NTJ      0.160400
      8 C4          2.9280    3.0620   -0.9120 c3        1 NTJ     -0.132100
      9 H2C1        0.9910    1.2050    2.7650 hx        1 NTJ      0.119533
     10 H2C2        0.6820    0.6300    1.0510 hx        1 NTJ      0.119533
     11 H2C3        1.9620    1.9190    1.3780 hx        1 NTJ      0.119533
     12 H1C1        1.4530   -1.2300    3.3560 hx        1 NTJ      0.119533
     13 H1C2        1.2090   -1.7070    1.6050 hx        1 NTJ      0.119533
     14 H1C3        2.8070   -2.0740    2.4580 hx        1 NTJ      0.119533
     15 H3C1        4.4830    1.8500   -1.8280 h1        1 NTJ      0.086200
     16 H3C2        2.7930    1.0990   -1.8830 h1        1 NTJ      0.086200
     17 H4C1        1.8760    2.9730   -0.5490 hc        1 NTJ      0.064367
     18 H4C2        2.9280    3.7090   -1.8250 hc        1 NTJ      0.064367
     19 H4C3        3.5440    3.5580   -0.1240 hc        1 NTJ      0.064367
     20 HP1         3.9920   -1.1970    0.5570 hp        1 NTJ     -0.050400
     21 H11         3.2230    0.2700    2.5450 hn        1 NTJ      0.470800
@<TRIPOS>BOND
     1    1    2 2   
     2    2    3 1   
     3    2    6 1   
     4    2   20 1   
     5    3    4 1   
     6    3    5 1   
     7    3   21 1   
     8    4    9 1   
     9    4   10 1   
    10    4   11 1   
    11    5   12 1   
    12    5   13 1   
    13    5   14 1   
    14    6    7 1   
    15    7    8 1   
    16    7   15 1   
    17    7   16 1   
    18    8   17 1   
    19    8   18 1   
    20    8   19 1   
@<TRIPOS>SUBSTRUCTURE
     1 NTJ         1 TEMP              0 ****  ****    0 ROOT
