@<TRIPOS>MOLECULE
NTJ
   20    19     1     0     0
SMALL
bcc


@<TRIPOS>ATOM
      1 O1          1.8380    2.2420    0.1910 o         1 NTJ     -0.816300
      2 P1          2.0890    1.2820   -0.8800 p5        1 NTJ      1.551400
      3 N1          0.8900    0.3510   -1.3110 n3        1 NTJ     -0.892700
      4 C2         -0.3530    0.3930   -0.6120 c3        1 NTJ      0.203600
      5 C1          1.0250   -0.6090   -2.3530 c3        1 NTJ      0.203600
      6 O2          3.3570    0.3350   -0.5030 os        1 NTJ     -0.587200
      7 C3          4.4190    0.1910   -1.4090 c3        1 NTJ      0.181400
      8 C4          5.6890    0.7840   -0.8370 c3        1 NTJ     -0.118100
      9 H2C1       -1.2040    0.6420   -1.3070 h1        1 NTJ      0.041533
     10 H2C2       -0.2890    1.1800    0.1900 h1        1 NTJ      0.041533
     11 H2C3       -0.5970   -0.5990   -0.1370 h1        1 NTJ      0.041533
     12 H1C1        2.0900   -0.5950   -2.7160 h1        1 NTJ      0.041533
     13 H1C2        0.3390   -0.3840   -3.2180 h1        1 NTJ      0.041533
     14 H1C3        0.7790   -1.6490   -1.9980 h1        1 NTJ      0.041533
     15 H3C1        4.5620   -0.9150   -1.5790 h1        1 NTJ      0.030200
     16 H3C2        4.1590    0.6780   -2.3900 h1        1 NTJ      0.030200
     17 H4C1        6.5500    0.5260   -1.4990 hc        1 NTJ      0.049367
     18 H4C2        5.6140    1.8940   -0.7560 hc        1 NTJ      0.049367
     19 H4C3        5.8750    0.3710    0.1840 hc        1 NTJ      0.049367
     20 HP1         2.5010    1.7920   -2.0030 hp        1 NTJ     -0.183400
@<TRIPOS>BOND
     1    1    2 2   
     2    2    3 1   
     3    2    6 1   
     4    2   20 1   
     5    3    4 1   
     6    3    5 1   
     7    4    9 1   
     8    4   10 1   
     9    4   11 1   
    10    5   12 1   
    11    5   13 1   
    12    5   14 1   
    13    6    7 1   
    14    7    8 1   
    15    7   15 1   
    16    7   16 1   
    17    8   17 1   
    18    8   18 1   
    19    8   19 1   
@<TRIPOS>SUBSTRUCTURE
     1 NTJ         1 TEMP              0 ****  ****    0 ROOT
