@<TRIPOS>MOLECULE
NTM
   15    15     1     0     0
SMALL
bcc


@<TRIPOS>ATOM
      1 N1          0.0010    0.2300   -0.0560 nb        1 NTM     -0.695000
      2 C2          1.3500    0.0980   -0.0410 ca        1 NTM      0.407800
      3 C3          2.0700   -0.0770    1.1760 ca        1 NTM     -0.178900
      4 C4          1.3400   -0.1080    2.3700 ca        1 NTM     -0.120000
      5 C5         -0.0500    0.0280    2.3570 ca        1 NTM     -0.310300
      6 C6         -0.6670    0.1950    1.1130 ca        1 NTM      0.339200
      7 C7          2.0110    0.1540   -1.4390 c         1 NTM      0.841100
      8 O1          2.3310    1.2870   -1.8890 o         1 NTM     -0.835300
      9 O2          2.1150   -0.9270   -2.0800 o         1 NTM     -0.835300
     10 C8          3.5740   -0.2380    1.3510 c         1 NTM      0.929200
     11 O3          4.0510   -1.4090    1.3950 o         1 NTM     -0.847300
     12 O4          4.2660    0.7960    1.5840 o         1 NTM     -0.847300
     13 H4          1.8740   -0.2420    3.3220 ha        1 NTM      0.110000
     14 H5         -0.6350    0.0050    3.2820 ha        1 NTM      0.083000
     15 H6         -1.7620    0.3080    1.0380 h4        1 NTM     -0.041900
@<TRIPOS>BOND
     1    1    2 ar  
     2    1    6 ar  
     3    2    3 ar  
     4    2    7 1   
     5    3    4 ar  
     6    3   10 1   
     7    4    5 ar  
     8    4   13 1   
     9    5    6 ar  
    10    5   14 1   
    11    6   15 1   
    12    7    8 1   
    13    7    9 1   
    14   10   11 1   
    15   10   12 1   
@<TRIPOS>SUBSTRUCTURE
     1 NTM         1 TEMP              0 ****  ****    0 ROOT
