@<TRIPOS>MOLECULE
NTM
   15    15     1     0     0
SMALL
bcc


@<TRIPOS>ATOM
      1 N1         -0.9260   -0.2710   -1.7900 nb        1 NTM     -0.695000
      2 C2         -0.5950   -0.1270   -0.4830 ca        1 NTM      0.407800
      3 C3          0.7470    0.1300   -0.0780 ca        1 NTM     -0.178900
      4 C4          1.7250    0.2310   -1.0730 ca        1 NTM     -0.120000
      5 C5          1.3850    0.0830   -2.4210 ca        1 NTM     -0.310300
      6 C6          0.0420   -0.1670   -2.7210 ca        1 NTM      0.339200
      7 C7         -1.7850   -0.2660    0.4950 c         1 NTM      0.841100
      8 O1         -2.0720   -1.4230    0.9050 o         1 NTM     -0.835300
      9 O2         -2.4490    0.7730    0.7590 o         1 NTM     -0.835300
     10 C8          1.2690    0.3140    1.3410 c         1 NTM      0.929200
     11 O3          1.3530    1.4890    1.8020 o         1 NTM     -0.847300
     12 O4          1.7270   -0.6970    1.9480 o         1 NTM     -0.847300
     13 H4          2.7670    0.4290   -0.7850 ha        1 NTM      0.110000
     14 H5          2.1380    0.1590   -3.2120 ha        1 NTM      0.083000
     15 H6         -0.2870   -0.2930   -3.7650 h4        1 NTM     -0.041900
@<TRIPOS>BOND
     1    1    2 ar  
     2    1    6 ar  
     3    2    3 ar  
     4    2    7 1   
     5    3    4 ar  
     6    3   10 1   
     7    4    5 ar  
     8    4   13 1   
     9    5    6 ar  
    10    5   14 1   
    11    6   15 1   
    12    7    8 1   
    13    7    9 1   
    14   10   11 1   
    15   10   12 1   
@<TRIPOS>SUBSTRUCTURE
     1 NTM         1 TEMP              0 ****  ****    0 ROOT
