@<TRIPOS>MOLECULE
NTM
   15    12     1     0     0
SMALL
bcc


@<TRIPOS>ATOM
      1 N1         -1.5180   -0.0090   -0.8910 n1        1 NTM     -0.494800
      2 C2         -0.1560   -0.0090   -0.8910 cg        1 NTM     -0.020700
      3 C3          0.5380   -0.0090    0.3090 ch        1 NTM     -0.020700
      4 C4         -0.1450   -0.0090    1.4910 c1        1 NTM     -0.125000
      5 C5         -1.5100   -0.0090    1.4900 c1        1 NTM     -0.125000
      6 C6         -2.2010   -0.0090    0.2890 c1        1 NTM      0.257300
      7 C7          0.6000   -0.0090   -2.2010 c         1 NTM      0.888800
      8 O1          0.8680   -1.0980   -2.7740 o         1 NTM     -0.841300
      9 O2          0.9470    1.0810   -2.7270 o         1 NTM     -0.841300
     10 C8          2.0500    0.0270    0.3090 c         1 NTM      0.888800
     11 O3          2.7060   -1.0460    0.2450 o         1 NTM     -0.841300
     12 O4          2.6530    1.1290    0.3910 o         1 NTM     -0.841300
     13 H4          0.3430   -0.0090    2.3370 ha        1 NTM      0.039000
     14 H5         -1.9990   -0.0090    2.3350 ha        1 NTM      0.039000
     15 H6         -3.1770   -0.0090    0.2870 ha        1 NTM      0.037500
@<TRIPOS>BOND
     1    1    6 3   
     2    2    3 3   
     3    2    7 1   
     4    3   10 1   
     5    4    5 3   
     6    4   13 1   
     7    5   14 1   
     8    6   15 1   
     9    7    8 1   
    10    7    9 1   
    11   10   11 1   
    12   10   12 1   
@<TRIPOS>SUBSTRUCTURE
     1 NTM         1 TEMP              0 ****  ****    0 ROOT
