@<TRIPOS>MOLECULE
NTN
   17    17     1     0     0
SMALL
bcc


@<TRIPOS>ATOM
      1 NZ         -0.0430   -0.0010    0.0570 nz        1 NTN     -0.890600
      2 CI1         1.4750    0.0010   -0.1490 ce        1 NTN      0.624800
      3 CI2         2.2270   -0.0000    1.1350 ca        1 NTN     -0.170900
      4 NI1         2.0250    0.0020   -1.2920 n2        1 NTN     -0.662100
      5 CI3         1.6010   -0.0010    2.3930 ca        1 NTN     -0.215300
      6 CI4         2.4100   -0.0020    3.5420 ca        1 NTN      0.423700
      7 NI2         3.7580   -0.0010    3.5080 nb        1 NTN     -0.605000
      8 CI5         4.3450   -0.0010    2.3010 ca        1 NTN      0.423700
      9 CI6         3.6280    0.0000    1.0840 ca        1 NTN     -0.215300
     10 HZ1        -0.5570   -0.0000   -0.8260 hn        1 NTN      0.460467
     11 HZ2        -0.3030    0.8330    0.5950 hn        1 NTN      0.460467
     12 H2          1.5340    0.0020   -2.1580 hn        1 NTN      0.469400
     13 H3          0.5140   -0.0010    2.5420 ha        1 NTN      0.159000
     14 H4          1.9550   -0.0030    4.5530 h4        1 NTN      0.058600
     15 H5          5.4540   -0.0000    2.2980 h4        1 NTN      0.058600
     16 H6          4.1840    0.0010    0.1330 ha        1 NTN      0.159000
     17 HZ3        -0.3020   -0.8350    0.5940 hn        1 NTN      0.460467
@<TRIPOS>BOND
     1    1    2 1   
     2    1   10 1   
     3    1   11 1   
     4    1   17 1   
     5    2    3 1   
     6    2    4 2   
     7    3    5 ar  
     8    3    9 ar  
     9    4   12 1   
    10    5    6 ar  
    11    5   13 1   
    12    6    7 ar  
    13    6   14 1   
    14    7    8 ar  
    15    8    9 ar  
    16    8   15 1   
    17    9   16 1   
@<TRIPOS>SUBSTRUCTURE
     1 NTN         1 TEMP              0 ****  ****    0 ROOT
