@<TRIPOS>MOLECULE
NTN
   17    17     1     0     0
SMALL
bcc


@<TRIPOS>ATOM
      1 NZ          0.1530    0.5720   -0.0290 n4        1 NTN     -0.890600
      2 CI1         1.4390   -0.2600   -0.1180 ce        1 NTN      0.624800
      3 CI2         2.2040   -0.1410    1.1480 ca        1 NTN     -0.170900
      4 NI1         1.8050   -0.9420   -1.1160 n2        1 NTN     -0.662100
      5 CI3         1.6540   -0.5940    2.3550 ca        1 NTN     -0.215300
      6 CI4         2.4410   -0.4830    3.5170 ca        1 NTN      0.423700
      7 NI2         3.6880    0.0310    3.5230 nb        1 NTN     -0.605000
      8 CI5         4.2000    0.4480    2.3520 ca        1 NTN      0.423700
      9 CI6         3.4990    0.3840    1.1280 ca        1 NTN     -0.215300
     10 HZ1        -0.4890    0.3950   -0.8040 hn        1 NTN      0.460467
     11 HZ2         0.4060    1.5650   -0.0230 hn        1 NTN      0.460467
     12 H2          1.2990   -1.0180   -1.9710 hn        1 NTN      0.469400
     13 H3          0.6610   -1.0590    2.4110 ha        1 NTN      0.159000
     14 H4          2.0580   -0.8310    4.4960 h4        1 NTN      0.058600
     15 H5          5.2310    0.8530    2.3890 h4        1 NTN      0.058600
     16 H6          3.9760    0.7220    0.1970 ha        1 NTN      0.159000
     17 HZ3        -0.3190    0.3530    0.8550 hn        1 NTN      0.460467
@<TRIPOS>BOND
     1    1    2 1   
     2    1   10 1   
     3    1   11 1   
     4    1   17 1   
     5    2    3 1   
     6    2    4 2   
     7    3    5 ar  
     8    3    9 ar  
     9    4   12 1   
    10    5    6 ar  
    11    5   13 1   
    12    6    7 ar  
    13    6   14 1   
    14    7    8 ar  
    15    8    9 ar  
    16    8   15 1   
    17    9   16 1   
@<TRIPOS>SUBSTRUCTURE
     1 NTN         1 TEMP              0 ****  ****    0 ROOT
