@<TRIPOS>MOLECULE
NTN
   16    16     1     0     0
SMALL
bcc


@<TRIPOS>ATOM
      1 NZ          2.3370    1.0970   -0.3140 nh        1 NTN     -0.958800
      2 CI1         2.2880    1.0690    1.0960 ce        1 NTN      0.646800
      3 CI2         1.3550    0.0390    1.6580 ca        1 NTN     -0.103900
      4 NI1         2.8960    1.8620    1.9250 n2        1 NTN     -0.820100
      5 CI3         0.0610   -0.1090    1.1450 ca        1 NTN     -0.217300
      6 CI4        -0.7700   -1.0920    1.7140 ca        1 NTN      0.387200
      7 NI2        -0.3910   -1.8980    2.7240 nb        1 NTN     -0.656000
      8 CI5         0.8550   -1.7350    3.2080 ca        1 NTN      0.387200
      9 CI6         1.7660   -0.7820    2.7130 ca        1 NTN     -0.217300
     10 HZ1         3.1330    1.5260   -0.7260 hn        1 NTN      0.401300
     11 HZ2         2.0320    0.2700   -0.7720 hn        1 NTN      0.401300
     12 H2          3.5080    2.5410    1.5250 hn        1 NTN      0.386400
     13 H3         -0.3090    0.5290    0.3320 ha        1 NTN      0.156500
     14 H4         -1.8000   -1.2400    1.3410 h4        1 NTN      0.025100
     15 H5          1.1390   -2.4030    4.0410 h4        1 NTN      0.025100
     16 H6          2.7650   -0.6810    3.1580 ha        1 NTN      0.156500
@<TRIPOS>BOND
     1    1    2 1   
     2    1   10 1   
     3    1   11 1   
     4    2    3 1   
     5    2    4 2   
     6    3    5 ar  
     7    3    9 ar  
     8    4   12 1   
     9    5    6 ar  
    10    5   13 1   
    11    6    7 ar  
    12    6   14 1   
    13    7    8 ar  
    14    8    9 ar  
    15    8   15 1   
    16    9   16 1   
@<TRIPOS>SUBSTRUCTURE
     1 NTN         1 TEMP              0 ****  ****    0 ROOT
