@<TRIPOS>MOLECULE
NTN
   17    17     1     0     0
SMALL
bcc


@<TRIPOS>ATOM
      1 NZ          0.1910   -0.6770   -0.0320 n4        1 NTN     -0.890600
      2 CI1         1.4270    0.2280   -0.1190 ce        1 NTN      0.624800
      3 CI2         2.1960    0.1520    1.1490 ca        1 NTN     -0.170900
      4 NI1         1.7560    0.9300   -1.1160 n2        1 NTN     -0.662100
      5 CI3         1.6180    0.5710    2.3550 ca        1 NTN     -0.215300
      6 CI4         2.4080    0.5050    3.5180 ca        1 NTN      0.423700
      7 NI2         3.6820    0.0650    3.5260 nb        1 NTN     -0.605000
      8 CI5         4.2200   -0.3220    2.3560 ca        1 NTN      0.423700
      9 CI6         3.5190   -0.2970    1.1300 ca        1 NTN     -0.215300
     10 HZ1        -0.4580   -0.5380   -0.8090 hn        1 NTN      0.460467
     11 HZ2        -0.2950   -0.4840    0.8500 hn        1 NTN      0.460467
     12 H2          1.2480    0.9770   -1.9720 hn        1 NTN      0.469400
     13 H3          0.6000    0.9790    2.4090 ha        1 NTN      0.159000
     14 H4          2.0040    0.8300    4.4970 h4        1 NTN      0.058600
     15 H5          5.2730   -0.6660    2.3950 h4        1 NTN      0.058600
     16 H6          4.0160   -0.6060    0.2000 ha        1 NTN      0.159000
     17 HZ3         0.5010   -1.6540   -0.0250 hn        1 NTN      0.460467
@<TRIPOS>BOND
     1    1    2 1   
     2    1   10 1   
     3    1   11 1   
     4    1   17 1   
     5    2    3 1   
     6    2    4 2   
     7    3    5 ar  
     8    3    9 ar  
     9    4   12 1   
    10    5    6 ar  
    11    5   13 1   
    12    6    7 ar  
    13    6   14 1   
    14    7    8 ar  
    15    8    9 ar  
    16    8   15 1   
    17    9   16 1   
@<TRIPOS>SUBSTRUCTURE
     1 NTN         1 TEMP              0 ****  ****    0 ROOT
