@<TRIPOS>MOLECULE
NTN
   16    13     1     0     0
SMALL
bcc


@<TRIPOS>ATOM
      1 NZ         -1.8980   -0.7150   -1.4570 n3        1 NTN     -0.397000
      2 CI1        -0.7370    0.0860   -1.3080 c2        1 NTN      0.123000
      3 CI2         0.0360    0.0650   -0.0070 c2        1 NTN     -0.020000
      4 NI1        -0.3340    0.8430   -2.2950 n1        1 NTN     -0.288000
      5 CI3        -0.2410    0.9340    1.0080 c2        1 NTN     -0.163000
      6 CI4         0.5610    0.9560    2.1390 c1        1 NTN     -0.078000
      7 NI2         1.6250    0.1100    2.2360 n1        1 NTN     -0.130000
      8 CI5         1.9020   -0.7570    1.2230 c1        1 NTN     -0.078000
      9 CI6         1.1020   -0.7810    0.0920 c1        1 NTN     -0.141000
     10 HZ1        -2.5450   -0.4760   -2.0570 hn        1 NTN      0.196500
     11 HZ2        -1.9970   -1.4730   -0.9550 hn        1 NTN      0.196500
     12 H2         -0.8010    0.8560   -3.0810 DU        1 NTN      0.142000
     13 H3         -1.0030    1.5400    0.9380 ha        1 NTN      0.154000
     14 H4          0.3630    1.5770    2.8650 ha        1 NTN      0.162000
     15 H5          2.6640   -1.3620    1.2940 ha        1 NTN      0.162000
     16 H6          1.3010   -1.4030   -0.6340 ha        1 NTN      0.159000
@<TRIPOS>BOND
     1    1    2 1   
     2    1   10 1   
     3    1   11 1   
     4    2    3 1   
     5    2    4 1   
     6    3    5 1   
     7    3    9 1   
     8    5    6 1   
     9    5   13 1   
    10    6   14 1   
    11    7    8 1   
    12    8   15 1   
    13    9   16 1   
@<TRIPOS>SUBSTRUCTURE
     1 NTN         1 TEMP              0 ****  ****    0 ROOT
