@<TRIPOS>MOLECULE
NTR
   21    19     1     0     0
SMALL
bcc


@<TRIPOS>ATOM
      1 N          -0.7700   -1.3080   -2.3650 n3        1 NTR     -0.315000
      2 CA         -0.5540    0.0250   -1.9180 c3        1 NTR     -0.108000
      3 CG         -0.0780    0.0040   -0.4840 c2        1 NTR     -0.004000
      4 CD1        -0.7530   -0.7530    0.4600 c2        1 NTR     -0.114000
      5 CD2         1.0470    0.7270   -0.1170 c1        1 NTR     -0.164000
      6 CE1        -0.3040   -0.7880    1.7710 c1        1 NTR     -0.141000
      7 CE2         1.4960    0.6920    1.1940 c1        1 NTR      0.001500
      8 CZ          0.8210   -0.0660    2.1380 c1        1 NTR      0.001500
      9 OH          1.2700   -0.0930    3.4710 oh        1 NTR     -0.280500
     10 OE3         2.6550    1.4000    1.5590 oh        1 NTR     -0.280500
     11 C          -1.8480    0.8020   -2.0080 c2        1 NTR      0.314000
     12 O          -1.8910    1.8800   -2.6570 o         1 NTR     -0.566000
     13 OXT        -2.8810    0.3740   -1.4280 o         1 NTR     -0.566000
     14 H          -1.5990   -1.5900   -2.0960 hn        1 NTR      0.128000
     15 H2         -0.1290   -1.8570   -2.0090 hn        1 NTR      0.128000
     16 HA          0.1220    0.4520   -2.4800 h1        1 NTR      0.092000
     17 HD1        -1.5500   -1.2560    0.2030 ha        1 NTR      0.177000
     18 HD2         1.5230    1.2600   -0.7820 ha        1 NTR      0.130000
     19 HE1        -0.7800   -1.3220    2.4360 ha        1 NTR      0.135000
     20 HH          1.7000   -0.8570    3.6230 ho        1 NTR      0.217500
     21 HE3         2.5030    2.2730    1.4900 ho        1 NTR      0.217500
@<TRIPOS>BOND
     1    1    2 1   
     2    1   14 1   
     3    1   15 1   
     4    2    3 1   
     5    2   11 1   
     6    2   16 1   
     7    3    4 1   
     8    3    5 1   
     9    4    6 1   
    10    4   17 1   
    11    5   18 1   
    12    6   19 1   
    13    7    8 1   
    14    7   10 1   
    15    8    9 1   
    16    9   20 1   
    17   10   21 1   
    18   11   12 1   
    19   11   13 1   
@<TRIPOS>SUBSTRUCTURE
     1 NTR         1 TEMP              0 ****  ****    0 ROOT
