@<TRIPOS>MOLECULE
NTR
   21    21     1     0     0
SMALL
bcc


@<TRIPOS>ATOM
      1 N           5.3390   -1.5360    0.0660 n3        1 NTR     -0.882800
      2 CA          4.0670   -2.2210   -0.1490 c3        1 NTR      0.042800
      3 CG          2.9390   -1.5540    0.5850 ca        1 NTR      0.000700
      4 CD1         1.8960   -0.9460   -0.1260 ca        1 NTR     -0.134000
      5 CD2         2.9190   -1.5610    1.9840 ca        1 NTR     -0.122000
      6 CE1         0.8370   -0.3390    0.5430 ca        1 NTR     -0.169000
      7 CE2         1.8620   -0.9450    2.6640 ca        1 NTR      0.101100
      8 CZ          0.8210   -0.3310    1.9400 ca        1 NTR     -0.009900
      9 OH         -0.1800    0.2870    2.6760 oh        1 NTR     -0.533100
     10 OE3         1.8940   -0.9440    4.0430 oh        1 NTR     -0.504100
     11 C           4.1140   -3.7400    0.2680 c         1 NTR      0.895600
     12 O           4.7780   -4.0290    1.3020 o         1 NTR     -0.829300
     13 OXT         3.5190   -4.5610   -0.4760 o         1 NTR     -0.829300
     14 H           6.0590   -2.1160   -0.3280 hn        1 NTR      0.333300
     15 H2          5.5130   -1.5000    1.0560 hn        1 NTR      0.333300
     16 HA          3.8580   -2.1850   -1.2580 h1        1 NTR      0.053700
     17 HD1         1.9100   -0.9570   -1.2260 ha        1 NTR      0.131000
     18 HD2         3.7120   -2.0890    2.5410 ha        1 NTR      0.184000
     19 HE1         0.0160    0.1300   -0.0150 ha        1 NTR      0.114000
     20 HH         -0.9880    0.2230    2.1510 ho        1 NTR      0.408000
     21 HE3         1.0420   -0.6020    4.3500 ho        1 NTR      0.417000
@<TRIPOS>BOND
     1    1    2 1   
     2    1   14 1   
     3    1   15 1   
     4    2    3 1   
     5    2   11 1   
     6    2   16 1   
     7    3    4 ar  
     8    3    5 ar  
     9    4    6 ar  
    10    4   17 1   
    11    5    7 ar  
    12    5   18 1   
    13    6    8 ar  
    14    6   19 1   
    15    7    8 ar  
    16    7   10 1   
    17    8    9 1   
    18    9   20 1   
    19   10   21 1   
    20   11   12 1   
    21   11   13 1   
@<TRIPOS>SUBSTRUCTURE
     1 NTR         1 TEMP              0 ****  ****    0 ROOT
