@<TRIPOS>MOLECULE
NTS
   27    23     1     0     0
SMALL
bcc


@<TRIPOS>ATOM
      1 C1          0.2220   -0.1040   -1.7170 c1        1 NTS     -0.367200
      2 C2          1.6100   -0.1140   -1.6920 c1        1 NTS      0.079000
      3 C3          2.2850   -0.0630   -0.4760 c1        1 NTS     -0.373700
      4 C4          1.5710   -0.0020    0.7130 c1        1 NTS      0.060500
      5 C5         -0.5620    0.0670    1.8940 c1        1 NTS      0.079000
      6 C6         -1.9500    0.0740    1.8700 c1        1 NTS     -0.373700
      7 C7         -2.6250    0.0230    0.6540 c1        1 NTS     -0.051000
      8 C8         -1.9110   -0.0360   -0.5360 c1        1 NTS     -0.051000
      9 C9         -0.5030   -0.0430   -0.5120 cg        1 NTS      0.096000
     10 C10         0.1640    0.0080    0.6890 cg        1 NTS     -0.120000
     11 O11        -1.5140    0.9210   -3.5340 o         1 NTS     -0.760867
     12 O12         0.6730    0.6270   -4.2920 o         1 NTS     -0.760867
     13 O13        -0.7060   -1.4100   -3.8880 o         1 NTS     -0.760867
     14 O31         4.5810    0.7170   -1.6970 o         1 NTS     -0.763200
     15 O32         4.4930    1.0890    0.6050 o         1 NTS     -0.763200
     16 O33         4.6820   -1.2670   -0.1900 o         1 NTS     -0.763200
     17 O61        -2.0780   -0.7780    4.4440 o         1 NTS     -0.763200
     18 O62        -4.0590   -0.9680    3.2250 o         1 NTS     -0.763200
     19 O63        -3.2900    1.3190    3.8530 o         1 NTS     -0.763200
     20 S1         -0.3490   -0.0280   -3.3940 s6        1 NTS      1.493800
     21 S3          4.0520    0.0840   -0.4330 s6        1 NTS      1.497300
     22 S6         -2.8680   -0.0520    3.3810 s6        1 NTS      1.497300
     23 H2          2.1130   -0.1570   -2.5280 ha        1 NTS      0.081000
     24 H4          2.0450    0.0340    1.5660 ha        1 NTS      0.077500
     25 H5         -0.0890    0.1030    2.7470 ha        1 NTS      0.081000
     26 H7         -3.6010    0.0280    0.6370 ha        1 NTS      0.079000
     27 H8         -2.3850   -0.0720   -1.3880 ha        1 NTS      0.079000
@<TRIPOS>BOND
     1    1    9 3   
     2    1   20 1   
     3    2    3 3   
     4    2   23 1   
     5    3   21 1   
     6    4   10 3   
     7    4   24 1   
     8    5    6 3   
     9    5   25 1   
    10    6   22 1   
    11    7    8 3   
    12    7   26 1   
    13    8   27 1   
    14    9   10 1   
    15   11   20 1   
    16   12   20 1   
    17   13   20 1   
    18   14   21 1   
    19   15   21 1   
    20   16   21 1   
    21   17   22 1   
    22   18   22 1   
    23   19   22 1   
@<TRIPOS>SUBSTRUCTURE
     1 NTS         1 TEMP              0 ****  ****    0 ROOT
