@<TRIPOS>MOLECULE
NTS
   27    28     1     0     0
SMALL
bcc


@<TRIPOS>ATOM
      1 C1         -1.2140    1.2290    0.0350 ca        1 NTS     -0.324500
      2 C2         -2.2270    0.2920    0.0150 ca        1 NTS      0.051000
      3 C3         -1.9940   -1.1060   -0.0250 ca        1 NTS     -0.334500
      4 C4         -0.6890   -1.5400   -0.0420 ca        1 NTS      0.003000
      5 C5          1.7480   -1.0890   -0.0370 ca        1 NTS     -0.008000
      6 C6          2.8160   -0.2230   -0.0140 ca        1 NTS     -0.327500
      7 C7          2.5370    1.1680    0.0160 ca        1 NTS     -0.058000
      8 C8          1.2530    1.6500    0.0300 ca        1 NTS     -0.159000
      9 C9          0.1340    0.7650    0.0160 ca        1 NTS      0.096000
     10 C10         0.4010   -0.6300   -0.0210 ca        1 NTS     -0.120000
     11 O11        -1.0660    3.4710    1.2800 o         1 NTS     -0.760867
     12 O12        -1.0480    3.5410   -1.0740 o         1 NTS     -0.760867
     13 O13        -3.0410    3.0160    0.0720 o         1 NTS     -0.760867
     14 O31        -4.1390   -1.9780    1.0690 o         1 NTS     -0.762200
     15 O32        -4.0030   -2.0680   -1.2870 o         1 NTS     -0.762200
     16 O33        -2.7140   -3.5440    0.0270 o         1 NTS     -0.762200
     17 O61         4.8440   -0.9710    1.3480 o         1 NTS     -0.764200
     18 O62         5.2450    0.2530   -0.6280 o         1 NTS     -0.764200
     19 O63         4.4970   -1.9910   -0.7510 o         1 NTS     -0.764200
     20 S1         -1.6180    2.9330    0.0820 s6        1 NTS      1.451100
     21 S3         -3.3110   -2.2480   -0.0560 s6        1 NTS      1.454100
     22 S6          4.4640   -0.7720   -0.0120 s6        1 NTS      1.455100
     23 H2         -3.2780    0.6410    0.0340 ha        1 NTS      0.152000
     24 H4         -0.4750   -2.6240   -0.0700 ha        1 NTS      0.135000
     25 H5          1.9290   -2.1770   -0.0780 ha        1 NTS      0.125000
     26 H7          3.3930    1.8620    0.0130 ha        1 NTS      0.124000
     27 H8          1.0520    2.7350    0.0510 ha        1 NTS      0.149000
@<TRIPOS>BOND
     1    1    2 ar  
     2    1    9 ar  
     3    1   20 1   
     4    2    3 ar  
     5    2   23 1   
     6    3    4 ar  
     7    3   21 1   
     8    4   10 ar  
     9    4   24 1   
    10    5    6 ar  
    11    5   10 ar  
    12    5   25 1   
    13    6    7 ar  
    14    6   22 1   
    15    7    8 ar  
    16    7   26 1   
    17    8    9 ar  
    18    8   27 1   
    19    9   10 ar  
    20   11   20 1   
    21   12   20 1   
    22   13   20 1   
    23   14   21 1   
    24   15   21 1   
    25   16   21 1   
    26   17   22 1   
    27   18   22 1   
    28   19   22 1   
@<TRIPOS>SUBSTRUCTURE
     1 NTS         1 TEMP              0 ****  ****    0 ROOT
