@<TRIPOS>MOLECULE
NTS
   27    28     1     0     0
SMALL
bcc


@<TRIPOS>ATOM
      1 C1         -0.0200   -0.0370   -0.0430 ca        1 NTS     -0.324500
      2 C2          1.3600   -0.0180   -0.0220 ca        1 NTS      0.051000
      3 C3          2.1210    0.0230    1.1740 ca        1 NTS     -0.334500
      4 C4          1.4390    0.0420    2.3690 ca        1 NTS      0.003000
      5 C5         -0.6770    0.0390    3.6610 ca        1 NTS     -0.008000
      6 C6         -2.0500    0.0170    3.7290 ca        1 NTS     -0.327500
      7 C7         -2.7700   -0.0130    2.5070 ca        1 NTS     -0.058000
      8 C8         -2.1370   -0.0300    1.2910 ca        1 NTS     -0.159000
      9 C9         -0.7130   -0.0170    1.2030 ca        1 NTS      0.096000
     10 C10         0.0200    0.0220    2.4200 ca        1 NTS     -0.120000
     11 O11        -1.6270   -1.2830   -1.6120 o         1 NTS     -0.760867
     12 O12        -1.6860    1.0710   -1.6540 o         1 NTS     -0.760867
     13 O13         0.1470   -0.0780   -2.5930 o         1 NTS     -0.760867
     14 O31         4.2990   -1.0730    0.3920 o         1 NTS     -0.762200
     15 O32         4.2590    1.2830    0.5490 o         1 NTS     -0.762200
     16 O33         4.2850   -0.0290    2.5090 o         1 NTS     -0.762200
     17 O61        -3.0610   -1.3420    5.6410 o         1 NTS     -0.764200
     18 O62        -4.1750    0.6330    4.9960 o         1 NTS     -0.764200
     19 O63        -2.1200    0.7570    6.1660 o         1 NTS     -0.764200
     20 S1         -0.8560   -0.0850   -1.5810 s6        1 NTS      1.451100
     21 S3          3.8630    0.0530    1.1450 s6        1 NTS      1.454100
     22 S6         -2.9100    0.0170    5.2380 s6        1 NTS      1.455100
     23 H2          1.9100   -0.0380   -0.9830 ha        1 NTS      0.152000
     24 H4          2.0030    0.0700    3.3190 ha        1 NTS      0.135000
     25 H5         -0.0850    0.0810    4.5910 ha        1 NTS      0.125000
     26 H7         -3.8720   -0.0100    2.5620 ha        1 NTS      0.124000
     27 H8         -2.7120   -0.0520    0.3500 ha        1 NTS      0.149000
@<TRIPOS>BOND
     1    1    2 ar  
     2    1    9 ar  
     3    1   20 1   
     4    2    3 ar  
     5    2   23 1   
     6    3    4 ar  
     7    3   21 1   
     8    4   10 ar  
     9    4   24 1   
    10    5    6 ar  
    11    5   10 ar  
    12    5   25 1   
    13    6    7 ar  
    14    6   22 1   
    15    7    8 ar  
    16    7   26 1   
    17    8    9 ar  
    18    8   27 1   
    19    9   10 ar  
    20   11   20 1   
    21   12   20 1   
    22   13   20 1   
    23   14   21 1   
    24   15   21 1   
    25   16   21 1   
    26   17   22 1   
    27   18   22 1   
    28   19   22 1   
@<TRIPOS>SUBSTRUCTURE
     1 NTS         1 TEMP              0 ****  ****    0 ROOT
