@<TRIPOS>MOLECULE
NTU
   64    63     1     0     0
SMALL
bcc


@<TRIPOS>ATOM
      1 C2'         0.7930    0.4890   -0.9060 c3        1 NTU     -0.071500
      2 S1'         1.9660   -0.4830   -0.0440 ss        1 NTU     -0.150800
      3 N1          2.0320    1.1560    2.2010 n2        1 NTU     -0.512900
      4 N2          1.4890   -1.1300    2.4880 n4        1 NTU     -0.820100
      5 C1'         1.8410    0.0370    1.6040 c2        1 NTU      0.465600
      6 C1          2.4210    2.3690    1.5420 c3        1 NTU      0.105800
      7 C2          3.4450    3.1840    2.3340 c3        1 NTU     -0.072400
      8 C3          2.8590    3.8120    3.5790 c3        1 NTU     -0.081400
      9 C4          3.8560    4.7570    4.2200 c3        1 NTU     -0.081400
     10 C5          3.2680    5.4370    5.4380 c3        1 NTU     -0.078400
     11 C6          4.2410    6.4390    6.0240 c3        1 NTU     -0.079400
     12 C7          3.6460    7.1500    7.2210 c3        1 NTU     -0.078900
     13 C8          4.5910    8.2060    7.7550 c3        1 NTU     -0.078900
     14 C9          3.9850    8.9410    8.9320 c3        1 NTU     -0.079400
     15 C10         4.8950   10.0530    9.4120 c3        1 NTU     -0.078400
     16 C11         4.2690   10.8130   10.5620 c3        1 NTU     -0.081400
     17 C12         5.1330   11.9860   10.9800 c3        1 NTU     -0.081400
     18 C13         4.4710   12.7710   12.0900 c3        1 NTU     -0.072400
     19 C14         5.1840   14.0930   12.3880 c3        1 NTU      0.105800
     20 C4'         4.7440   13.7470   15.8660 c3        1 NTU     -0.071500
     21 S2'         5.9520   14.9540   15.4820 ss        1 NTU     -0.150800
     22 N3          6.4960   13.9450   12.9470 n2        1 NTU     -0.512900
     23 N4          8.2850   14.1680   14.4820 n4        1 NTU     -0.820100
     24 C3'         6.8220   14.2870   14.1400 c2        1 NTU      0.465600
     25 H2'1        0.9670    1.5830   -0.7950 h1        1 NTU      0.100033
     26 H2'2        0.9480    0.2080   -1.9810 h1        1 NTU      0.100033
     27 H2'3       -0.2580    0.2550   -0.6250 h1        1 NTU      0.100033
     28 HN21        2.2630   -1.3430    3.1280 hn        1 NTU      0.467467
     29 HN22        0.6520   -0.9330    3.0470 hn        1 NTU      0.467467
     30 H11         2.8370    2.1710    0.5070 h1        1 NTU      0.087700
     31 H12         1.4750    2.9820    1.4310 h1        1 NTU      0.087700
     32 H21         4.3300    2.5510    2.6030 hc        1 NTU      0.066200
     33 H22         3.8080    3.9910    1.6390 hc        1 NTU      0.066200
     34 H31         2.5710    3.0160    4.3130 hc        1 NTU      0.047700
     35 H32         1.9260    4.3770    3.3160 hc        1 NTU      0.047700
     36 H41         4.1690    5.5350    3.4730 hc        1 NTU      0.046200
     37 H42         4.7780    4.1900    4.5130 hc        1 NTU      0.046200
     38 H51         2.3160    5.9600    5.1550 hc        1 NTU      0.042450
     39 H52         3.0060    4.6680    6.2110 hc        1 NTU      0.042450
     40 H61         4.5190    7.1930    5.2410 hc        1 NTU      0.043700
     41 H62         5.1850    5.9140    6.3280 hc        1 NTU      0.043700
     42 H71         3.4180    6.4050    8.0280 hc        1 NTU      0.042450
     43 H72         2.6750    7.6300    6.9290 hc        1 NTU      0.042450
     44 H81         4.8330    8.9380    6.9400 hc        1 NTU      0.042450
     45 H82         5.5560    7.7260    8.0660 hc        1 NTU      0.042450
     46 H91         2.9930    9.3720    8.6340 hc        1 NTU      0.043700
     47 H92         3.7960    8.2200    9.7700 hc        1 NTU      0.043700
     48 H101        5.1030   10.7590    8.5640 hc        1 NTU      0.042450
     49 H102        5.8800    9.6230    9.7330 hc        1 NTU      0.042450
     50 H111        3.2550   11.1840   10.2570 hc        1 NTU      0.046200
     51 H112        4.1220   10.1230   11.4340 hc        1 NTU      0.046200
     52 H121        5.3060   12.6550   10.0950 hc        1 NTU      0.047700
     53 H122        6.1360   11.6140   11.3150 hc        1 NTU      0.047700
     54 H131        3.4230   13.0410   11.7870 hc        1 NTU      0.066200
     55 H132        4.4020   12.1460   13.0170 hc        1 NTU      0.066200
     56 H141        4.5120   14.7290   13.0390 h1        1 NTU      0.087700
     57 H142        5.3550   14.6410   11.4110 h1        1 NTU      0.087700
     58 H4'1        4.1050   14.2410   16.6450 h1        1 NTU      0.100033
     59 H4'2        4.1020   13.4780   14.9970 h1        1 NTU      0.100033
     60 H4'3        5.1800   12.8200   16.2990 h1        1 NTU      0.100033
     61 HN41        8.8400   14.8180   13.9130 hn        1 NTU      0.467467
     62 HN42        8.3900   14.4050   15.4800 hn        1 NTU      0.467467
     63 H23         1.3130   -1.9410    1.8760 hn        1 NTU      0.467467
     64 H43         8.6290   13.2160   14.3150 hn        1 NTU      0.467467
@<TRIPOS>BOND
     1    1    2 1   
     2    1   25 1   
     3    1   26 1   
     4    1   27 1   
     5    2    5 1   
     6    3    5 2   
     7    3    6 1   
     8    4    5 1   
     9    4   28 1   
    10    4   29 1   
    11    4   63 1   
    12    6    7 1   
    13    6   30 1   
    14    6   31 1   
    15    7    8 1   
    16    7   32 1   
    17    7   33 1   
    18    8    9 1   
    19    8   34 1   
    20    8   35 1   
    21    9   10 1   
    22    9   36 1   
    23    9   37 1   
    24   10   11 1   
    25   10   38 1   
    26   10   39 1   
    27   11   12 1   
    28   11   40 1   
    29   11   41 1   
    30   12   13 1   
    31   12   42 1   
    32   12   43 1   
    33   13   14 1   
    34   13   44 1   
    35   13   45 1   
    36   14   15 1   
    37   14   46 1   
    38   14   47 1   
    39   15   16 1   
    40   15   48 1   
    41   15   49 1   
    42   16   17 1   
    43   16   50 1   
    44   16   51 1   
    45   17   18 1   
    46   17   52 1   
    47   17   53 1   
    48   18   19 1   
    49   18   54 1   
    50   18   55 1   
    51   19   22 1   
    52   19   56 1   
    53   19   57 1   
    54   20   21 1   
    55   20   58 1   
    56   20   59 1   
    57   20   60 1   
    58   21   24 1   
    59   22   24 2   
    60   23   24 1   
    61   23   61 1   
    62   23   62 1   
    63   23   64 1   
@<TRIPOS>SUBSTRUCTURE
     1 NTU         1 TEMP              0 ****  ****    0 ROOT
