@<TRIPOS>MOLECULE
NTU
   62    61     1     0     0
SMALL
bcc


@<TRIPOS>ATOM
      1 C2'        27.0090   11.7370    9.6310 c3        1 NTU     -0.035000
      2 S1'        27.5560   11.9010    7.9740 ss        1 NTU     -0.289300
      3 N1         27.8440   14.1230    6.4720 n2        1 NTU     -0.640900
      4 N2         27.7310   14.4460    8.8250 nh        1 NTU     -0.882800
      5 C1'        27.7410   13.6300    7.6680 c2        1 NTU      0.612100
      6 C1         27.7150   13.2910    5.3090 c3        1 NTU      0.120800
      7 C2         27.1670   14.0430    4.0960 c3        1 NTU     -0.065900
      8 C3         25.7020   14.3850    4.2490 c3        1 NTU     -0.078900
      9 C4         25.1570   15.0250    2.9900 c3        1 NTU     -0.079400
     10 C5         23.6920   15.3740    3.1420 c3        1 NTU     -0.078400
     11 C6         23.1450   16.0130    1.8840 c3        1 NTU     -0.079400
     12 C7         21.6800   16.3610    2.0360 c3        1 NTU     -0.079400
     13 C8         21.1330   17.0000    0.7770 c3        1 NTU     -0.079400
     14 C9         19.6680   17.3480    0.9290 c3        1 NTU     -0.079400
     15 C10        19.1210   17.9860   -0.3300 c3        1 NTU     -0.078400
     16 C11        17.6560   18.3340   -0.1780 c3        1 NTU     -0.079400
     17 C12        17.1100   18.9720   -1.4380 c3        1 NTU     -0.078900
     18 C13        15.6470   19.3210   -1.2820 c3        1 NTU     -0.065900
     19 C14        15.0370   19.8660   -2.5730 c3        1 NTU      0.120800
     20 C4'        12.4880   23.1480   -4.6490 c3        1 NTU     -0.035000
     21 S2'        13.2410   21.6210   -4.2280 ss        1 NTU     -0.289300
     22 N3         15.5660   21.1480   -2.9450 n2        1 NTU     -0.640900
     23 N4         15.2960   23.3190   -3.8770 nh        1 NTU     -0.882800
     24 C3'        14.8520   22.0010   -3.6160 c2        1 NTU      0.612100
     25 H2'1       26.7400   10.6600    9.7430 h1        1 NTU      0.070367
     26 H2'2       26.1140   12.3620    9.8480 h1        1 NTU      0.070367
     27 H2'3       27.8060   11.9900   10.3640 h1        1 NTU      0.070367
     28 HN21       28.4630   14.1920    9.4570 hn        1 NTU      0.387300
     29 HN22       27.7450   15.4290    8.6330 hn        1 NTU      0.387300
     30 H11        27.0590   12.3880    5.4980 h1        1 NTU      0.049200
     31 H12        28.7450   12.9060    5.0460 h1        1 NTU      0.049200
     32 H21        27.3080   13.3800    3.2010 hc        1 NTU      0.044700
     33 H22        27.7580   14.9790    3.9180 hc        1 NTU      0.044700
     34 H31        25.1190   13.4540    4.4790 hc        1 NTU      0.045700
     35 H32        25.5650   15.0850    5.1150 hc        1 NTU      0.045700
     36 H41        25.2890   14.3260    2.1230 hc        1 NTU      0.037950
     37 H42        25.7420   15.9540    2.7580 hc        1 NTU      0.037950
     38 H51        23.5600   16.0750    4.0080 hc        1 NTU      0.039700
     39 H52        23.1070   14.4450    3.3770 hc        1 NTU      0.039700
     40 H61        23.2770   15.3120    1.0180 hc        1 NTU      0.039200
     41 H62        23.7300   16.9410    1.6490 hc        1 NTU      0.039200
     42 H71        21.0960   15.4330    2.2710 hc        1 NTU      0.039200
     43 H72        21.5480   17.0630    2.9010 hc        1 NTU      0.039200
     44 H81        21.2650   16.2980   -0.0880 hc        1 NTU      0.039200
     45 H82        21.7180   17.9280    0.5420 hc        1 NTU      0.039200
     46 H91        19.0840   16.4200    1.1650 hc        1 NTU      0.039200
     47 H92        19.5360   18.0500    1.7940 hc        1 NTU      0.039200
     48 H101       19.2530   17.2840   -1.1950 hc        1 NTU      0.039700
     49 H102       19.7050   18.9140   -0.5660 hc        1 NTU      0.039700
     50 H111       17.5240   19.0380    0.6860 hc        1 NTU      0.037950
     51 H112       17.0720   17.4060    0.0600 hc        1 NTU      0.037950
     52 H121       17.6970   19.8980   -1.6750 hc        1 NTU      0.045700
     53 H122       17.2400   18.2670   -2.3020 hc        1 NTU      0.045700
     54 H131       15.5220   20.0620   -0.4500 hc        1 NTU      0.044700
     55 H132       15.0680   18.4000   -1.0040 hc        1 NTU      0.044700
     56 H141       13.9120   19.8930   -2.4450 h1        1 NTU      0.049200
     57 H142       15.2600   19.1400   -3.4100 h1        1 NTU      0.049200
     58 H4'1       12.5250   23.8840   -3.8160 h1        1 NTU      0.070367
     59 H4'2       11.4240   22.8950   -4.8700 h1        1 NTU      0.070367
     60 H4'3       12.9470   23.6080   -5.5520 h1        1 NTU      0.070367
     61 HN41       15.3180   23.5100   -4.8590 hn        1 NTU      0.387300
     62 HN42       16.1700   23.5500   -3.4460 hn        1 NTU      0.387300
@<TRIPOS>BOND
     1    1    2 1   
     2    1   25 1   
     3    1   26 1   
     4    1   27 1   
     5    2    5 1   
     6    3    5 2   
     7    3    6 1   
     8    4    5 1   
     9    4   28 1   
    10    4   29 1   
    11    6    7 1   
    12    6   30 1   
    13    6   31 1   
    14    7    8 1   
    15    7   32 1   
    16    7   33 1   
    17    8    9 1   
    18    8   34 1   
    19    8   35 1   
    20    9   10 1   
    21    9   36 1   
    22    9   37 1   
    23   10   11 1   
    24   10   38 1   
    25   10   39 1   
    26   11   12 1   
    27   11   40 1   
    28   11   41 1   
    29   12   13 1   
    30   12   42 1   
    31   12   43 1   
    32   13   14 1   
    33   13   44 1   
    34   13   45 1   
    35   14   15 1   
    36   14   46 1   
    37   14   47 1   
    38   15   16 1   
    39   15   48 1   
    40   15   49 1   
    41   16   17 1   
    42   16   50 1   
    43   16   51 1   
    44   17   18 1   
    45   17   52 1   
    46   17   53 1   
    47   18   19 1   
    48   18   54 1   
    49   18   55 1   
    50   19   22 1   
    51   19   56 1   
    52   19   57 1   
    53   20   21 1   
    54   20   58 1   
    55   20   59 1   
    56   20   60 1   
    57   21   24 1   
    58   22   24 2   
    59   23   24 1   
    60   23   61 1   
    61   23   62 1   
@<TRIPOS>SUBSTRUCTURE
     1 NTU         1 TEMP              0 ****  ****    0 ROOT
