@<TRIPOS>MOLECULE
NTU
   64    63     1     0     0
SMALL
bcc


@<TRIPOS>ATOM
      1 C2'         0.7800    0.5140   -0.9180 c3        1 NTU     -0.071500
      2 S1'         1.9350   -0.4730   -0.0470 ss        1 NTU     -0.150800
      3 N1          2.0060    1.1680    2.1960 n2        1 NTU     -0.512900
      4 N2          1.4330   -1.1120    2.4820 n4        1 NTU     -0.820100
      5 C1'         1.8060    0.0500    1.5990 c2        1 NTU      0.465600
      6 C1          2.4150    2.3740    1.5380 c3        1 NTU      0.105800
      7 C2          3.4420    3.1790    2.3380 c3        1 NTU     -0.072400
      8 C3          2.8530    3.8180    3.5760 c3        1 NTU     -0.081400
      9 C4          3.8560    4.7510    4.2240 c3        1 NTU     -0.081400
     10 C5          3.2640    5.4420    5.4340 c3        1 NTU     -0.078400
     11 C6          4.2450    6.4310    6.0290 c3        1 NTU     -0.079400
     12 C7          3.6460    7.1560    7.2160 c3        1 NTU     -0.078900
     13 C8          4.6010    8.1980    7.7590 c3        1 NTU     -0.078900
     14 C9          3.9910    8.9480    8.9240 c3        1 NTU     -0.079400
     15 C10         4.9140   10.0450    9.4150 c3        1 NTU     -0.078400
     16 C11         4.2840   10.8210   10.5520 c3        1 NTU     -0.081400
     17 C12         5.1640   11.9780   10.9800 c3        1 NTU     -0.081400
     18 C13         4.4980   12.7820   12.0740 c3        1 NTU     -0.072400
     19 C14         5.2330   14.0890   12.3810 c3        1 NTU      0.105800
     20 C4'         4.7120   13.7670   15.8510 c3        1 NTU     -0.071500
     21 S2'         5.9550   14.9460   15.4870 ss        1 NTU     -0.150800
     22 N3          6.5290   13.9160   12.9680 n2        1 NTU     -0.512900
     23 N4          8.2900   14.1050   14.5400 n4        1 NTU     -0.820100
     24 C3'         6.8380   14.2540   14.1670 c2        1 NTU      0.465600
     25 H2'1        0.9380    0.2300   -1.9920 h1        1 NTU      0.100033
     26 H2'2        0.9670    1.6050   -0.8070 h1        1 NTU      0.100033
     27 H2'3       -0.2760    0.2930   -0.6440 h1        1 NTU      0.100033
     28 HN21        0.5960   -0.9030    3.0370 hn        1 NTU      0.467467
     29 HN22        1.2500   -1.9200    1.8690 hn        1 NTU      0.467467
     30 H11         1.4770    2.9990    1.4180 h1        1 NTU      0.087700
     31 H12         2.8370    2.1700    0.5080 h1        1 NTU      0.087700
     32 H21         4.3170    2.5360    2.6160 hc        1 NTU      0.066200
     33 H22         3.8210    3.9790    1.6450 hc        1 NTU      0.066200
     34 H31         1.9290    4.3940    3.3030 hc        1 NTU      0.047700
     35 H32         2.5460    3.0260    4.3090 hc        1 NTU      0.047700
     36 H41         4.7670    4.1720    4.5290 hc        1 NTU      0.046200
     37 H42         4.1870    5.5210    3.4780 hc        1 NTU      0.046200
     38 H51         2.3230    5.9780    5.1390 hc        1 NTU      0.042700
     39 H52         2.9820    4.6790    6.2060 hc        1 NTU      0.042700
     40 H61         5.1760    5.8930    6.3460 hc        1 NTU      0.043700
     41 H62         4.5440    7.1780    5.2460 hc        1 NTU      0.043700
     42 H71         2.6870    7.6500    6.9100 hc        1 NTU      0.042450
     43 H72         3.3950    6.4170    8.0220 hc        1 NTU      0.042450
     44 H81         4.8680    8.9220    6.9450 hc        1 NTU      0.042450
     45 H82         5.5530    7.7030    8.0860 hc        1 NTU      0.042450
     46 H91         3.7760    8.2340    9.7620 hc        1 NTU      0.043700
     47 H92         3.0110    9.3960    8.6100 hc        1 NTU      0.043700
     48 H101        5.1480   10.7420    8.5670 hc        1 NTU      0.042700
     49 H102        5.8850    9.5980    9.7540 hc        1 NTU      0.042700
     50 H111        3.2820   11.2110   10.2270 hc        1 NTU      0.046200
     51 H112        4.1070   10.1370   11.4230 hc        1 NTU      0.046200
     52 H121        5.3670   12.6390   10.0950 hc        1 NTU      0.047700
     53 H122        6.1530   11.5880   11.3350 hc        1 NTU      0.047700
     54 H131        4.3960   12.1620   13.0020 hc        1 NTU      0.066200
     55 H132        3.4610   13.0730   11.7490 hc        1 NTU      0.066200
     56 H141        5.4360   14.6290   11.4060 h1        1 NTU      0.087700
     57 H142        4.5620   14.7420   13.0160 h1        1 NTU      0.087700
     58 H4'1        4.0690   14.2780   16.6140 h1        1 NTU      0.100033
     59 H4'2        5.1190   12.8320   16.2960 h1        1 NTU      0.100033
     60 H4'3        4.0840   13.5090   14.9690 h1        1 NTU      0.100033
     61 HN41        8.3800   14.3450   15.5380 hn        1 NTU      0.467467
     62 HN42        8.8710   14.7400   13.9790 hn        1 NTU      0.467467
     63 H23         2.2020   -1.3340    3.1260 hn        1 NTU      0.467467
     64 H43         8.6170   13.1450   14.3830 hn        1 NTU      0.467467
@<TRIPOS>BOND
     1    1    2 1   
     2    1   25 1   
     3    1   26 1   
     4    1   27 1   
     5    2    5 1   
     6    3    5 2   
     7    3    6 1   
     8    4    5 1   
     9    4   28 1   
    10    4   29 1   
    11    4   63 1   
    12    6    7 1   
    13    6   30 1   
    14    6   31 1   
    15    7    8 1   
    16    7   32 1   
    17    7   33 1   
    18    8    9 1   
    19    8   34 1   
    20    8   35 1   
    21    9   10 1   
    22    9   36 1   
    23    9   37 1   
    24   10   11 1   
    25   10   38 1   
    26   10   39 1   
    27   11   12 1   
    28   11   40 1   
    29   11   41 1   
    30   12   13 1   
    31   12   42 1   
    32   12   43 1   
    33   13   14 1   
    34   13   44 1   
    35   13   45 1   
    36   14   15 1   
    37   14   46 1   
    38   14   47 1   
    39   15   16 1   
    40   15   48 1   
    41   15   49 1   
    42   16   17 1   
    43   16   50 1   
    44   16   51 1   
    45   17   18 1   
    46   17   52 1   
    47   17   53 1   
    48   18   19 1   
    49   18   54 1   
    50   18   55 1   
    51   19   22 1   
    52   19   56 1   
    53   19   57 1   
    54   20   21 1   
    55   20   58 1   
    56   20   59 1   
    57   20   60 1   
    58   21   24 1   
    59   22   24 2   
    60   23   24 1   
    61   23   61 1   
    62   23   62 1   
    63   23   64 1   
@<TRIPOS>SUBSTRUCTURE
     1 NTU         1 TEMP              0 ****  ****    0 ROOT
