@<TRIPOS>MOLECULE
NTU
   62    60     1     0     0
SMALL
bcc


@<TRIPOS>ATOM
      1 C2'       -11.7660   -3.7930    2.0620 c3        1 NTU     -0.335000
      2 S1'       -10.0640   -3.3820    1.7770 ss        1 NTU      0.118000
      3 N1         -8.1170   -2.3800    3.3160 n1        1 NTU     -0.229000
      4 N2         -9.9620   -3.2020    4.5380 n3        1 NTU     -0.321000
      5 C1'        -9.2960   -2.9420    3.3130 c2        1 NTU     -0.051000
      6 C1         -7.4500   -2.1190    2.0870 c2        1 NTU     -0.083000
      7 C2         -6.2290   -1.2620    2.3470 c3        1 NTU     -0.150000
      8 C3         -5.2300   -1.4530    1.2260 c3        1 NTU     -0.160000
      9 C4         -3.9670   -0.6780    1.5370 c3        1 NTU     -0.157000
     10 C5         -2.9760   -0.8530    0.4060 c3        1 NTU     -0.158000
     11 C6         -1.6730   -0.1690    0.7670 c3        1 NTU     -0.158000
     12 C7         -0.7070   -0.2790   -0.3940 c3        1 NTU     -0.158000
     13 C8          0.6800    0.1150    0.0650 c3        1 NTU     -0.158000
     14 C9          1.5370    0.4400   -1.1400 c3        1 NTU     -0.158000
     15 C10         2.9950    0.4660   -0.7300 c3        1 NTU     -0.158000
     16 C11         3.7890    1.2610   -1.7440 c3        1 NTU     -0.157000
     17 C12         5.2680    1.0920   -1.4710 c3        1 NTU     -0.160000
     18 C13         6.0300    2.2430   -2.0900 c3        1 NTU     -0.150000
     19 C14         7.5100    1.9270   -2.0900 c3        1 NTU     -0.083000
     20 C4'        11.7660    2.5110   -3.6900 c3        1 NTU     -0.335000
     21 S2'        10.3160    1.8760   -2.8900 ss        1 NTU      0.118000
     22 N3          8.2420    3.0840   -1.7070 n2        1 NTU     -0.229000
     23 N4         10.2390    4.3380   -1.6230 n3        1 NTU     -0.321000
     24 C3'         9.5080    3.1840   -2.0060 c2        1 NTU     -0.051000
     25 H2'1      -11.8190   -4.6290    2.5710 h1        1 NTU      0.109667
     26 H2'2      -12.1940   -3.0730    2.5710 h1        1 NTU      0.109667
     27 H2'3      -12.2240   -3.9030    1.2030 h1        1 NTU      0.109667
     28 HN21      -10.0120   -2.5510    5.1770 hn        1 NTU      0.182500
     29 HN22      -10.3520   -4.0160    4.6830 hn        1 NTU      0.182500
     30 H11        -8.0560   -1.6470    1.4790 ha        1 NTU      0.088500
     31 H12        -7.1730   -2.9660    1.6800 ha        1 NTU      0.088500
     32 H21        -5.8200   -1.5260    3.1960 hc        1 NTU      0.090000
     33 H22        -6.4940   -0.3220    2.3910 hc        1 NTU      0.090000
     34 H31        -5.6140   -1.1260    0.3870 hc        1 NTU      0.078500
     35 H32        -5.0150   -2.4030    1.1380 hc        1 NTU      0.078500
     36 H41        -3.5760   -1.0130    2.3690 hc        1 NTU      0.080000
     37 H42        -4.1830    0.2710    1.6370 hc        1 NTU      0.080000
     38 H51        -2.8140   -1.8060    0.2590 hc        1 NTU      0.079000
     39 H52        -3.3380   -0.4540   -0.4100 hc        1 NTU      0.079000
     40 H61        -1.2860   -0.6000    1.5550 hc        1 NTU      0.079000
     41 H62        -1.8430    0.7750    0.9620 hc        1 NTU      0.079000
     42 H71        -0.9940    0.3170   -1.1140 hc        1 NTU      0.079000
     43 H72        -0.6930   -1.2020   -0.7200 hc        1 NTU      0.079000
     44 H81         0.6210    0.9010    0.6440 hc        1 NTU      0.079000
     45 H82         1.0820   -0.6260    0.5610 hc        1 NTU      0.079000
     46 H91         1.4040   -0.2430   -1.8280 hc        1 NTU      0.079000
     47 H92         1.2820    1.3150   -1.4950 hc        1 NTU      0.079000
     48 H101        3.0780    0.8850    0.1500 hc        1 NTU      0.079000
     49 H102        3.3390   -0.4480   -0.6910 hc        1 NTU      0.079000
     50 H111        3.5510    2.2080   -1.6750 hc        1 NTU      0.080000
     51 H112        3.5840    0.9390   -2.6440 hc        1 NTU      0.080000
     52 H121        5.4220    1.0800   -0.5060 hc        1 NTU      0.078500
     53 H122        5.5770    0.2490   -1.8610 hc        1 NTU      0.078500
     54 H131        5.7260    2.3790   -3.0100 hc        1 NTU      0.090000
     55 H132        5.8700    3.0570   -1.5710 hc        1 NTU      0.090000
     56 H141        7.6890    1.2020   -1.4550 h1        1 NTU      0.088500
     57 H142        7.7850    1.6490   -2.9880 h1        1 NTU      0.088500
     58 H4'1       12.0080    1.9260   -4.4380 h1        1 NTU      0.109667
     59 H4'2       11.5850    3.4140   -4.0250 h1        1 NTU      0.109667
     60 H4'3       12.5050    2.5430   -3.0470 h1        1 NTU      0.109667
     61 HN41       10.0680    5.1420   -2.0250 hn        1 NTU      0.182500
     62 HN42       10.8850    4.2780   -0.9790 hn        1 NTU      0.182500
@<TRIPOS>BOND
     1    1    2 1   
     2    1   25 1   
     3    1   26 1   
     4    1   27 1   
     5    2    5 1   
     6    3    5 1   
     7    4    5 1   
     8    4   28 1   
     9    4   29 1   
    10    6    7 1   
    11    6   30 1   
    12    6   31 1   
    13    7    8 1   
    14    7   32 1   
    15    7   33 1   
    16    8    9 1   
    17    8   34 1   
    18    8   35 1   
    19    9   10 1   
    20    9   36 1   
    21    9   37 1   
    22   10   11 1   
    23   10   38 1   
    24   10   39 1   
    25   11   12 1   
    26   11   40 1   
    27   11   41 1   
    28   12   13 1   
    29   12   42 1   
    30   12   43 1   
    31   13   14 1   
    32   13   44 1   
    33   13   45 1   
    34   14   15 1   
    35   14   46 1   
    36   14   47 1   
    37   15   16 1   
    38   15   48 1   
    39   15   49 1   
    40   16   17 1   
    41   16   50 1   
    42   16   51 1   
    43   17   18 1   
    44   17   52 1   
    45   17   53 1   
    46   18   19 1   
    47   18   54 1   
    48   18   55 1   
    49   19   22 1   
    50   19   56 1   
    51   19   57 1   
    52   20   21 1   
    53   20   58 1   
    54   20   59 1   
    55   20   60 1   
    56   21   24 1   
    57   22   24 1   
    58   23   24 1   
    59   23   61 1   
    60   23   62 1   
@<TRIPOS>SUBSTRUCTURE
     1 NTU         1 TEMP              0 ****  ****    0 ROOT
