@<TRIPOS>MOLECULE
NTU
   64    63     1     0     0
SMALL
bcc


@<TRIPOS>ATOM
      1 C2'         0.8070    0.5110   -0.9300 c3        1 NTU     -0.071500
      2 S1'         1.9070   -0.4970   -0.0130 ss        1 NTU     -0.150800
      3 N1          1.9590    1.1700    2.2120 n2        1 NTU     -0.512900
      4 N2          1.3110   -1.0890    2.5070 nz        1 NTU     -0.820100
      5 C1'         1.7440    0.0510    1.6220 c2        1 NTU      0.465600
      6 C1          2.4220    2.3560    1.5520 c3        1 NTU      0.105800
      7 C2          3.4500    3.1390    2.3720 c3        1 NTU     -0.072400
      8 C3          2.8460    3.8080    3.5860 c3        1 NTU     -0.081400
      9 C4          3.8580    4.7190    4.2520 c3        1 NTU     -0.081400
     10 C5          3.2550    5.4400    5.4390 c3        1 NTU     -0.078400
     11 C6          4.2470    6.4080    6.0490 c3        1 NTU     -0.079400
     12 C7          3.6400    7.1610    7.2140 c3        1 NTU     -0.078900
     13 C8          4.6090    8.1820    7.7700 c3        1 NTU     -0.078900
     14 C9          3.9920    8.9600    8.9140 c3        1 NTU     -0.079400
     15 C10         4.9310   10.0370    9.4140 c3        1 NTU     -0.078400
     16 C11         4.2960   10.8410   10.5300 c3        1 NTU     -0.081400
     17 C12         5.1950   11.9800   10.9660 c3        1 NTU     -0.081400
     18 C13         4.5260   12.8110   12.0390 c3        1 NTU     -0.072400
     19 C14         5.2860   14.1030   12.3480 c3        1 NTU      0.105800
     20 C4'         4.6910   13.8280   15.8100 c3        1 NTU     -0.071500
     21 S2'         5.9680   14.9740   15.4590 ss        1 NTU     -0.150800
     22 N3          6.5660   13.9050   12.9620 n2        1 NTU     -0.512900
     23 N4          8.3000   14.0690   14.5660 nz        1 NTU     -0.820100
     24 C3'         6.8590   14.2480   14.1630 c2        1 NTU      0.465600
     25 H2'1        1.0220    1.5980   -0.8270 h1        1 NTU      0.100033
     26 H2'2        0.9890    0.2090   -1.9950 h1        1 NTU      0.100033
     27 H2'3       -0.2620    0.3250   -0.6860 h1        1 NTU      0.100033
     28 HN21        2.0530   -1.3250    3.1760 hn        1 NTU      0.467467
     29 HN22        0.4640   -0.8480    3.0330 hn        1 NTU      0.467467
     30 H11         2.8670    2.1270    0.5370 h1        1 NTU      0.087700
     31 H12         1.5070    3.0060    1.3990 h1        1 NTU      0.087700
     32 H21         4.2980    2.4740    2.6810 hc        1 NTU      0.066200
     33 H22         3.8720    3.9200    1.6810 hc        1 NTU      0.066200
     34 H31         2.4970    3.0350    4.3190 hc        1 NTU      0.047700
     35 H32         1.9480    4.4080    3.2820 hc        1 NTU      0.047700
     36 H41         4.2310    5.4720    3.5080 hc        1 NTU      0.046200
     37 H42         4.7440    4.1180    4.5870 hc        1 NTU      0.046200
     38 H51         2.3380    5.9990    5.1140 hc        1 NTU      0.042700
     39 H52         2.9310    4.6940    6.2110 hc        1 NTU      0.042700
     40 H61         4.5870    7.1380    5.2680 hc        1 NTU      0.043700
     41 H62         5.1550    5.8470    6.3960 hc        1 NTU      0.043700
     42 H71         3.3480    6.4380    8.0200 hc        1 NTU      0.042450
     43 H72         2.7020    7.6780    6.8780 hc        1 NTU      0.042450
     44 H81         4.9150    8.8910    6.9560 hc        1 NTU      0.042450
     45 H82         5.5390    7.6650    8.1250 hc        1 NTU      0.042450
     46 H91         3.0320    9.4300    8.5720 hc        1 NTU      0.043700
     47 H92         3.7380    8.2600    9.7530 hc        1 NTU      0.043700
     48 H101        5.2030   10.7200    8.5670 hc        1 NTU      0.042700
     49 H102        5.8830    9.5690    9.7800 hc        1 NTU      0.042700
     50 H111        3.3120   11.2520   10.1800 hc        1 NTU      0.046200
     51 H112        4.0840   10.1700   11.4040 hc        1 NTU      0.046200
     52 H121        5.4330   12.6280   10.0800 hc        1 NTU      0.047700
     53 H122        6.1670   11.5690   11.3460 hc        1 NTU      0.047700
     54 H131        3.5040   13.1220   11.6900 hc        1 NTU      0.066200
     55 H132        4.3920   12.2020   12.9700 hc        1 NTU      0.066200
     56 H141        4.6180   14.7780   12.9630 h1        1 NTU      0.087700
     57 H142        5.5210   14.6290   11.3720 h1        1 NTU      0.087700
     58 H4'1        4.0450   14.3620   16.5550 h1        1 NTU      0.100033
     59 H4'2        4.0740   13.5760   14.9180 h1        1 NTU      0.100033
     60 H4'3        5.0670   12.8880   16.2720 h1        1 NTU      0.100033
     61 HN41        8.9060   14.6860   14.0120 hn        1 NTU      0.467467
     62 HN42        8.3760   14.3140   15.5640 hn        1 NTU      0.467467
     63 H23         1.1230   -1.8990    1.8980 hn        1 NTU      0.467467
     64 H43         8.6080   13.1000   14.4230 hn        1 NTU      0.467467
@<TRIPOS>BOND
     1    1    2 1   
     2    1   25 1   
     3    1   26 1   
     4    1   27 1   
     5    2    5 1   
     6    3    5 2   
     7    3    6 1   
     8    4    5 1   
     9    4   28 1   
    10    4   29 1   
    11    4   63 1   
    12    6    7 1   
    13    6   30 1   
    14    6   31 1   
    15    7    8 1   
    16    7   32 1   
    17    7   33 1   
    18    8    9 1   
    19    8   34 1   
    20    8   35 1   
    21    9   10 1   
    22    9   36 1   
    23    9   37 1   
    24   10   11 1   
    25   10   38 1   
    26   10   39 1   
    27   11   12 1   
    28   11   40 1   
    29   11   41 1   
    30   12   13 1   
    31   12   42 1   
    32   12   43 1   
    33   13   14 1   
    34   13   44 1   
    35   13   45 1   
    36   14   15 1   
    37   14   46 1   
    38   14   47 1   
    39   15   16 1   
    40   15   48 1   
    41   15   49 1   
    42   16   17 1   
    43   16   50 1   
    44   16   51 1   
    45   17   18 1   
    46   17   52 1   
    47   17   53 1   
    48   18   19 1   
    49   18   54 1   
    50   18   55 1   
    51   19   22 1   
    52   19   56 1   
    53   19   57 1   
    54   20   21 1   
    55   20   58 1   
    56   20   59 1   
    57   20   60 1   
    58   21   24 1   
    59   22   24 2   
    60   23   24 1   
    61   23   61 1   
    62   23   62 1   
    63   23   64 1   
@<TRIPOS>SUBSTRUCTURE
     1 NTU         1 TEMP              0 ****  ****    0 ROOT
