@<TRIPOS>MOLECULE
NTX
   76    74     1     0     0
SMALL
bcc


@<TRIPOS>ATOM
      1 N1        369.1840   20.2290   53.8070 ny        1 NTX     -0.108000
      2 N3        380.3240   13.3480   54.6240 nz        1 NTX     -0.057000
      3 C4        373.4890   18.1260   55.0790 ca        1 NTX      0.121000
      4 C5        372.2850   18.1070   54.3440 ca        1 NTX     -0.111000
      5 C6        371.3940   19.1790   54.4690 ca        1 NTX     -0.100000
      6 C7        370.1560   19.0920   53.6760 c2        1 NTX      0.311000
      7 C8        367.9010   20.0960   52.9720 c3        1 NTX     -0.221000
      8 C10       375.4300   14.6370   54.5910 c3        1 NTX     -0.179000
      9 C13      -518.2640  -11.2890 -603.4400 c1        1 NTX     -0.123000
     10 C15      -520.4360  -11.6620 -604.4920 c2        1 NTX     -0.120000
     11 C17      -516.9470  -12.0810 -601.6010 c1        1 NTX     -0.190000
     12 C20       378.1440   14.2350   55.4110 c2        1 NTX     -0.120000
     13 C21       377.3560   13.1370   55.1240 c2        1 NTX     -0.147000
     14 C22       376.1360   13.3840   54.4840 c1        1 NTX     -0.003000
     15 C24       -24.0020  -14.5550   -4.0040 c3        1 NTX     -0.266000
     16 C26      -656.0600  -45.0530  990.9340 c3        1 NTX     -0.282000
     17 C28       379.5870   14.1080   55.6960 c2        1 NTX      0.055000
     18 O1        369.8410   18.1780   52.9200 o         1 NTX     -0.209000
     19 C23       366.7840   20.0220   53.9090 c1        1 NTX     -0.015000
     20 C25      -656.0640  -45.2460  992.3970 c2        1 NTX      0.174000
     21 N4       -657.1250  -45.2140  993.1570 n8        1 NTX     -0.173000
     22 C27       367.9050   21.1830   51.9980 c1        1 NTX     -0.015000
     23 C9        375.5310   16.9910   55.5950 c3        1 NTX      0.001000
     24 C18       376.2220   15.7190   55.2350 c2        1 NTX     -0.060000
     25 N2        380.2890   14.5170   56.6820 n2        1 NTX     -0.169000
     26 C19       377.5420   15.5370   55.5180 c2        1 NTX     -0.157000
     27 C3        373.8020   19.1920   55.9250 ca        1 NTX     -0.232000
     28 C2        372.8890   20.2550   56.0290 ca        1 NTX      0.143000
     29 C1        371.6830   20.2610   55.3060 ca        1 NTX     -0.168000
     30 O3        373.1010   21.3450   56.8250 oh        1 NTX     -0.220000
     31 C11      -516.7590  -12.3960 -600.4610 c1        1 NTX     -0.100000
     32 C16      -520.8610  -12.8030 -603.9290 c2        1 NTX     -0.062000
     33 N5       -520.0710  -10.6370 -606.7200 nz        1 NTX     -0.120000
     34 N6       -522.3650  -11.0990 -605.8800 n2        1 NTX     -0.153000
     35 C14      -519.3730  -10.8230 -603.9480 c2        1 NTX     -0.155000
     36 C12      -517.1310  -11.7140 -602.9420 c2        1 NTX      0.057000
     37 H1        368.9040   20.3110   54.7990 hn        1 NTX      0.278000
     38 H2        381.2880   13.1220   54.9090 hn        1 NTX      0.271333
     39 H3        379.8110   12.4800   54.4300 hn        1 NTX      0.271333
     40 H4        372.0610   17.2530   53.6840 ha        1 NTX      0.186000
     41 H5        367.9630   19.0930   52.4000 hx        1 NTX      0.259000
     42 H6        374.4360   14.4860   55.1170 hc        1 NTX      0.200500
     43 H7       -516.2340  -11.8000 -603.5920 ha        1 NTX      0.171000
     44 H8        377.6710   12.0960   55.3000 ha        1 NTX      0.171000
     45 H9        375.1380   14.9610   53.5410 hc        1 NTX      0.200500
     46 H10       -23.3710  -14.9110   -4.8470 hc        1 NTX      0.066000
     47 H11       -24.9840  -14.2100   -4.3950 hc        1 NTX      0.066000
     48 H12      -655.3920  -44.1820  990.6830 hc        1 NTX      0.165667
     49 H13      -655.6140  -45.9670  990.4480 hc        1 NTX      0.165667
     50 H14      -655.0720  -45.4340  992.8850 h4        1 NTX      0.209000
     51 H15       365.7600   19.9140   53.5360 ha        1 NTX      0.143000
     52 H16       -23.4910  -13.7120   -3.4890 hc        1 NTX      0.066000
     53 H17       -24.1620  -15.3860   -3.2840 hc        1 NTX      0.066000
     54 H18      -657.0710  -45.3520  994.1530 hn        1 NTX      0.287000
     55 H20       367.0830   21.2820   51.2820 ha        1 NTX      0.143000
     56 H21      -657.0710  -44.8690  990.4880 hc        1 NTX      0.165667
     57 H22       375.3200   17.0200   56.7000 h1        1 NTX      0.115000
     58 H23       376.1510   17.8800   55.2970 h1        1 NTX      0.115000
     59 H24       379.8380   15.0110   57.4240 hn        1 NTX      0.244000
     60 H25       378.1640   16.3680   55.8890 ha        1 NTX      0.154000
     61 H26       374.7360   19.2170   56.5050 ha        1 NTX      0.162000
     62 H27       371.0220   21.1300   55.4390 ha        1 NTX      0.159000
     63 H28      -516.5850  -12.6750 -599.4490 ha        1 NTX      0.243000
     64 H29       373.9510   21.2450   57.2850 ho        1 NTX      0.246000
     65 H30      -521.6870  -13.4060 -604.3340 ha        1 NTX      0.157500
     66 H31      -519.5060  -11.4370 -607.0210 hn        1 NTX      0.255333
     67 H32      -519.4560   -9.9640 -606.2470 hn        1 NTX      0.255333
     68 H33      -522.8150  -10.7550 -606.6990 hn        1 NTX      0.219000
     69 H34      -519.5900   -9.7380 -603.9010 ha        1 NTX      0.151000
     70 H35      -520.3940  -13.1890 -603.0080 ha        1 NTX      0.157500
     71 H121      369.6570   21.1010   53.5130 hn        1 NTX      0.278000
     72 H331      380.3510   13.9230   53.7750 hn        1 NTX      0.271333
     73 H43      -658.0470  -45.0500  992.7850 hn        1 NTX      0.287000
     74 H53      -520.4900  -10.1940 -607.5390 hn        1 NTX      0.255333
     75 O2        374.2850   17.0170   54.8770 os        1 NTX     -0.209000
     76 C29      -521.1120  -11.1330 -605.7090 c2        1 NTX      0.100000
@<TRIPOS>BOND
     1    1    6 1   
     2    1    7 1   
     3    1   37 1   
     4    1   71 1   
     5    2   17 1   
     6    2   38 1   
     7    2   39 1   
     8    2   72 1   
     9    3    4 1   
    10    3   27 1   
    11    3   75 1   
    12    4    5 1   
    13    4   40 1   
    14    5    6 1   
    15    5   29 1   
    16    6   18 1   
    17    7   19 1   
    18    7   22 1   
    19    7   41 1   
    20    8   14 1   
    21    8   24 1   
    22    8   42 1   
    23    8   45 1   
    24    9   35 1   
    25    9   36 1   
    26   10   32 1   
    27   10   35 1   
    28   10   76 1   
    29   11   31 1   
    30   11   36 1   
    31   12   13 1   
    32   12   17 1   
    33   12   26 1   
    34   13   14 1   
    35   13   44 1   
    36   15   46 1   
    37   15   47 1   
    38   15   52 1   
    39   15   53 1   
    40   16   20 1   
    41   16   48 1   
    42   16   49 1   
    43   16   56 1   
    44   17   25 1   
    45   19   51 1   
    46   20   21 1   
    47   20   50 1   
    48   21   54 1   
    49   21   73 1   
    50   22   55 1   
    51   23   24 1   
    52   23   57 1   
    53   23   58 1   
    54   23   75 1   
    55   24   26 1   
    56   25   59 1   
    57   26   60 1   
    58   27   28 1   
    59   27   61 1   
    60   28   29 1   
    61   28   30 1   
    62   29   62 1   
    63   30   64 1   
    64   31   63 1   
    65   32   65 1   
    66   32   70 1   
    67   33   66 1   
    68   33   67 1   
    69   33   74 1   
    70   33   76 1   
    71   34   68 1   
    72   34   76 1   
    73   35   69 1   
    74   36   43 1   
@<TRIPOS>SUBSTRUCTURE
     1 NTX         1 TEMP              0 ****  ****    0 ROOT
