@<TRIPOS>MOLECULE
NTX
   76    74     1     0     0
SMALL
bcc


@<TRIPOS>ATOM
      1 N1        446.7450   27.0750  -28.4600 n4        1 NTX     -0.114000
      2 N3        458.6280   29.7580  -33.3120 n4        1 NTX     -0.057000
      3 C4        450.6980   28.2840  -31.1570 ca        1 NTX      0.123000
      4 C5        450.1350   27.7910  -29.9620 ca        1 NTX     -0.115000
      5 C6        448.7510   27.8760  -29.7770 ca        1 NTX     -0.100000
      6 C7        448.2230   27.3470  -28.5060 c2        1 NTX      0.306000
      7 C8        446.2590   26.2490  -27.2600 c3        1 NTX     -0.096000
      8 C10       454.6270   27.4170  -31.2760 c3        1 NTX     -0.179000
      9 C13      -340.8460   69.7250 -870.1520 c1        1 NTX     -0.123000
     10 C15      -341.3340   67.8250 -868.6990 c2        1 NTX     -0.120000
     11 C17      -339.9630   70.2030 -872.3280 c1        1 NTX     -0.190000
     12 C20       456.4290   28.6200  -33.1480 c2        1 NTX     -0.120000
     13 C21       456.8280   27.4930  -32.4560 c2        1 NTX     -0.148000
     14 C22       456.0290   27.0960  -31.3760 c1        1 NTX     -0.003000
     15 C24       445.4790   27.4470  -25.2280 c2        1 NTX     -0.091000
     16 C26     -1527.5700 -223.5110    0.2290 cx        1 NTX     -0.282000
     17 C28       457.3560   29.3720  -34.0190 c2        1 NTX      0.055000
     18 O1        448.8760   27.0960  -27.4990 o         1 NTX     -0.192000
     19 C23       445.2490   27.0260  -26.4720 c2        1 NTX     -0.269000
     20 C25     -1527.4260 -224.7900    0.9520 cu        1 NTX      0.174000
     21 N4      -1526.7120 -224.9690    0.0300 n4        1 NTX     -0.173000
     22 C27       445.7260   25.0050  -27.7960 c1        1 NTX     -0.040000
     23 C9        452.6970   28.6560  -32.4170 c3        1 NTX      0.001000
     24 C18       454.1620   28.4050  -32.2860 c2        1 NTX     -0.060000
     25 N2        457.2590   29.7260  -35.2430 n2        1 NTX     -0.169000
     26 C19       455.0540   29.0420  -33.0950 c2        1 NTX     -0.157000
     27 C3        449.9000   28.8580  -32.1490 ca        1 NTX     -0.235000
     28 C2        448.5140   28.9370  -31.9320 ca        1 NTX      0.144000
     29 C1        447.9270   28.4500  -30.7510 ca        1 NTX     -0.171000
     30 O3        447.6480   29.4840  -32.8360 oh        1 NTX     -0.221000
     31 C11      -339.1710   70.1020 -873.2210 c1        1 NTX     -0.100000
     32 C16      -341.2370   66.7720 -869.5250 c2        1 NTX     -0.062000
     33 N5       -342.8930   68.8520 -867.0680 n4        1 NTX     -0.120000
     34 N6       -341.7610   66.6930 -866.5770 n2        1 NTX     -0.153000
     35 C14      -340.7830   69.1460 -868.9840 c2        1 NTX     -0.155000
     36 C12      -340.9060   70.3500 -871.3000 c2        1 NTX      0.057000
     37 H1        446.2560   27.9770  -28.4620 hn        1 NTX      0.265500
     38 H2        459.3280   30.1380  -33.9650 hn        1 NTX      0.271333
     39 H3        458.4080   30.4680  -32.6050 hn        1 NTX      0.271333
     40 H4        450.7870   27.3500  -29.1900 ha        1 NTX      0.185000
     41 H5        447.1780   26.0230  -26.6180 hx        1 NTX      0.204000
     42 H6        454.4400   27.8310  -30.2340 hc        1 NTX      0.200500
     43 H7       -341.7410   71.0520 -871.5100 ha        1 NTX      0.171000
     44 H8        457.7650   26.9510  -32.6610 ha        1 NTX      0.171000
     45 H9        454.0030   26.4700  -31.3110 hc        1 NTX      0.200500
     46 H10       446.4310   27.2930  -24.6970 ha        1 NTX      0.152000
     47 H11      -171.1480 -264.3960   94.5300 ha        1 NTX      0.000000
     48 H12     -1527.0040 -222.6570    0.6810 hx        1 NTX      0.177000
     49 H13     -1527.2220 -223.6520    0.1670 DU        1 NTX      0.143000
     50 H14       444.2790   27.1880  -26.9710 ha        1 NTX      0.162000
     51 H15      -171.7670 -264.6580   94.4520 ha        1 NTX      0.000000
     52 H16       444.7030   27.9740  -24.6480 ha        1 NTX      0.152000
     53 H17     -1526.6490 -225.8650    0.4840 hn        1 NTX      0.287000
     54 H18     -1527.9770 -225.6720    0.5330 hx        1 NTX      0.209000
     55 H20     -1528.6620 -223.2370    0.1890 hx        1 NTX      0.177000
     56 H21       445.2920   24.2470  -27.1400 ha        1 NTX      0.151000
     57 H22       452.2900   28.1160  -33.3160 h1        1 NTX      0.115000
     58 H23       452.4870   29.7570  -32.5000 h1        1 NTX      0.115000
     59 H24       456.4380   29.4760  -35.7550 hn        1 NTX      0.244000
     60 H25       454.7340   29.8550  -33.7660 ha        1 NTX      0.154000
     61 H26       450.3270   29.2450  -33.0850 ha        1 NTX      0.161000
     62 H27       446.8390   28.5620  -30.6430 ha        1 NTX      0.158000
     63 H28      -338.4710   70.0170 -874.0170 ha        1 NTX      0.243000
     64 H29       448.1460   29.7900  -33.6120 ho        1 NTX      0.246000
     65 H30      -341.6290   65.7730 -869.2800 ha        1 NTX      0.157500
     66 H31      -342.3570   69.7200 -867.1870 hn        1 NTX      0.255333
     67 H32      -343.6520   68.8450 -867.7550 hn        1 NTX      0.255333
     68 H33      -342.1930   66.5850 -865.6860 hn        1 NTX      0.219000
     69 H34      -340.2110   69.6190 -868.1620 ha        1 NTX      0.151000
     70 H35      -340.7420   66.8640 -870.5060 ha        1 NTX      0.157500
     71 H121      446.4850   26.5520  -29.3160 hn        1 NTX      0.265500
     72 H331      459.0090   28.9240  -32.8490 hn        1 NTX      0.271333
     73 H43     -1526.1930 -224.2200    0.4590 hn        1 NTX      0.287000
     74 H53      -343.2900   68.8260 -866.1270 hn        1 NTX      0.255333
     75 O2        452.0680   28.1380  -31.2330 os        1 NTX     -0.210000
     76 C29      -341.9650   67.6670 -867.3590 c2        1 NTX      0.100000
@<TRIPOS>BOND
     1    1    6 1   
     2    1    7 1   
     3    1   37 1   
     4    1   71 1   
     5    2   17 1   
     6    2   38 1   
     7    2   39 1   
     8    2   72 1   
     9    3    4 1   
    10    3   27 1   
    11    3   75 1   
    12    4    5 1   
    13    4   40 1   
    14    5    6 1   
    15    5   29 1   
    16    6   18 1   
    17    7   19 1   
    18    7   22 1   
    19    7   41 1   
    20    8   14 1   
    21    8   24 1   
    22    8   42 1   
    23    8   45 1   
    24    9   35 1   
    25    9   36 1   
    26   10   32 1   
    27   10   35 1   
    28   10   76 1   
    29   11   31 1   
    30   11   36 1   
    31   12   13 1   
    32   12   17 1   
    33   12   26 1   
    34   13   14 1   
    35   13   44 1   
    36   15   19 1   
    37   15   46 1   
    38   15   52 1   
    39   16   20 1   
    40   16   21 1   
    41   16   48 1   
    42   16   55 1   
    43   17   25 1   
    44   19   50 1   
    45   20   21 1   
    46   20   54 1   
    47   21   53 1   
    48   21   73 1   
    49   22   56 1   
    50   23   24 1   
    51   23   57 1   
    52   23   58 1   
    53   23   75 1   
    54   24   26 1   
    55   25   59 1   
    56   26   60 1   
    57   27   28 1   
    58   27   61 1   
    59   28   29 1   
    60   28   30 1   
    61   29   62 1   
    62   30   64 1   
    63   31   63 1   
    64   32   65 1   
    65   32   70 1   
    66   33   66 1   
    67   33   67 1   
    68   33   74 1   
    69   33   76 1   
    70   34   68 1   
    71   34   76 1   
    72   35   69 1   
    73   36   43 1   
    74   47   51 1   
@<TRIPOS>SUBSTRUCTURE
     1 NTX         1 TEMP              0 ****  ****    0 ROOT
