@<TRIPOS>MOLECULE
NTY
   20    20     1     0     0
SMALL
bcc


@<TRIPOS>ATOM
      1 N           2.8580   -0.0880   -2.1350 n3        1 NTY     -0.883800
      2 CA          1.8630   -1.0190   -1.6060 c3        1 NTY      0.049800
      3 CG          1.8430   -1.0070   -0.1030 ca        1 NTY     -0.044300
      4 CD1         0.8000   -0.3890    0.5920 ca        1 NTY     -0.093000
      5 CD2         2.8750   -1.6290    0.6150 ca        1 NTY     -0.093000
      6 CE1         0.7820   -0.3800    1.9860 ca        1 NTY     -0.194500
      7 CE2         2.8780   -1.6270    2.0050 ca        1 NTY     -0.194500
      8 CZ          1.8260   -0.9960    2.6870 ca        1 NTY      0.085100
      9 OH          1.8790   -1.0120    4.0700 oh        1 NTY     -0.519100
     10 C           2.0890   -2.4910   -2.1090 c         1 NTY      0.892600
     11 O           3.2800   -2.9140   -2.1390 o         1 NTY     -0.833800
     12 OXT         1.0770   -3.1390   -2.4820 o         1 NTY     -0.833800
     13 H           2.9080   -0.2370   -3.1280 hn        1 NTY      0.331800
     14 HN2         3.7560   -0.3460   -1.7630 hn        1 NTY      0.331800
     15 HA          0.8570   -0.6810   -1.9910 h1        1 NTY      0.052700
     16 HD1        -0.0180    0.0920    0.0350 ha        1 NTY      0.152000
     17 HD2         3.6680   -2.1500    0.0450 ha        1 NTY      0.152000
     18 HE1        -0.0410    0.1020    2.5300 ha        1 NTY      0.120500
     19 HE2         3.6790   -2.1150    2.5750 ha        1 NTY      0.120500
     20 HOH         1.0700   -0.5930    4.3920 ho        1 NTY      0.401000
@<TRIPOS>BOND
     1    1    2 1   
     2    1   13 1   
     3    1   14 1   
     4    2    3 1   
     5    2   10 1   
     6    2   15 1   
     7    3    4 ar  
     8    3    5 ar  
     9    4    6 ar  
    10    4   16 1   
    11    5    7 ar  
    12    5   17 1   
    13    6    8 ar  
    14    6   18 1   
    15    7    8 ar  
    16    7   19 1   
    17    8    9 1   
    18    9   20 1   
    19   10   11 1   
    20   10   12 1   
@<TRIPOS>SUBSTRUCTURE
     1 NTY         1 TEMP              0 ****  ****    0 ROOT
