@<TRIPOS>MOLECULE
NTY
   20    18     1     0     0
SMALL
bcc


@<TRIPOS>ATOM
      1 N           0.4370    0.1780   -2.5560 n3        1 NTY     -0.316000
      2 CA         -0.6820    0.2090   -1.6780 c3        1 NTY     -0.105000
      3 CG         -0.2020    0.1380   -0.2470 c2        1 NTY     -0.037000
      4 CD1         0.6130   -0.9070    0.1600 c2        1 NTY     -0.089000
      5 CD2        -0.5490    1.1360    0.6510 c1        1 NTY     -0.097000
      6 CE1         1.0810   -0.9530    1.4640 c1        1 NTY     -0.164000
      7 CE2        -0.0810    1.0890    1.9540 c1        1 NTY     -0.225000
      8 CZ          0.7340    0.0440    2.3610 c1        1 NTY      0.040000
      9 OH          1.1900   -0.0160    3.6910 oh        1 NTY     -0.273000
     10 C          -1.5810   -0.9710   -1.9670 c2        1 NTY      0.312000
     11 O          -1.0930   -2.0370   -2.4250 o         1 NTY     -0.568500
     12 OXT        -2.8220   -0.8800   -1.7730 o         1 NTY     -0.568500
     13 H           0.9760    0.9000   -2.3890 hn        1 NTY      0.127000
     14 HN2         0.1460    0.2090   -3.4230 hn        1 NTY      0.127000
     15 HA         -1.1800    1.0390   -1.8140 h1        1 NTY      0.092000
     16 HD1         0.8580   -1.6090   -0.4720 ha        1 NTY      0.178000
     17 HD2        -1.1150    1.8770    0.3620 ha        1 NTY      0.126000
     18 HE1         1.6550   -1.6890    1.7500 ha        1 NTY      0.131000
     19 HE2        -0.3260    1.7910    2.5860 ha        1 NTY      0.110000
     20 HOH         1.9430    0.4520    3.7670 ho        1 NTY      0.200000
@<TRIPOS>BOND
     1    1    2 1   
     2    1   13 1   
     3    1   14 1   
     4    2    3 1   
     5    2   10 1   
     6    2   15 1   
     7    3    4 1   
     8    3    5 1   
     9    4    6 1   
    10    4   16 1   
    11    5   17 1   
    12    6   18 1   
    13    7    8 1   
    14    7   19 1   
    15    8    9 1   
    16    9   20 1   
    17   10   11 1   
    18   10   12 1   
@<TRIPOS>SUBSTRUCTURE
     1 NTY         1 TEMP              0 ****  ****    0 ROOT
