@<TRIPOS>MOLECULE
NTZ
   24    25     1     0     0
SMALL
bcc


@<TRIPOS>ATOM
      1 C1         -1.3480    0.2020   -0.0860 cc        1 NTZ      0.337800
      2 C2         -0.9510    0.3300   -1.5210 c3        1 NTZ      0.096800
      3 C3          0.4700   -0.2370   -1.7220 c3        1 NTZ      0.104100
      4 C4          1.4290    0.2710   -0.6290 c3        1 NTZ      0.141100
      5 C5          1.0010   -0.2310    0.7760 c3        1 NTZ      0.016000
      6 C6          1.8730    0.4680    1.8420 c3        1 NTZ      0.132400
      7 N1         -0.4310   -0.0300    0.9620 na        1 NTZ     -0.061400
      8 N17        -1.1320   -0.0550    2.1130 nc        1 NTZ     -0.191800
      9 N18        -2.3660    0.1350    1.8180 nd        1 NTZ     -0.042000
     10 N21        -2.5730    0.2980    0.5120 nd        1 NTZ     -0.368000
     11 O2         -1.7880   -0.4180   -2.3800 oh        1 NTZ     -0.589800
     12 O3          1.0040    0.2250   -2.9510 oh        1 NTZ     -0.603800
     13 O4          2.7280   -0.2530   -0.8370 oh        1 NTZ     -0.589800
     14 O6          1.9040   -0.2660    3.0400 oh        1 NTZ     -0.586800
     15 H2         -0.9800    1.4210   -1.8100 h1        1 NTZ      0.081700
     16 H3          0.4330   -1.3620   -1.7170 h1        1 NTZ      0.080700
     17 H4          1.4660    1.3960   -0.6520 h1        1 NTZ      0.063700
     18 H5          1.2020   -1.3440    0.8420 h1        1 NTZ      0.110700
     19 H61         1.5370    1.5230    2.0120 h1        1 NTZ      0.071700
     20 H62         2.9360    0.4550    1.4680 h1        1 NTZ      0.071700
     21 HO2        -2.6990   -0.1250   -2.2350 ho        1 NTZ      0.436000
     22 HO3         0.4340   -0.1270   -3.6490 ho        1 NTZ      0.433000
     23 HO4         2.9640   -0.0540   -1.7550 ho        1 NTZ      0.436000
     24 HO6         1.0650   -0.1380    3.4990 ho        1 NTZ      0.418000
@<TRIPOS>BOND
     1    1    2 1   
     2    1    7 1   
     3    1   10 2   
     4    2    3 1   
     5    2   11 1   
     6    2   15 1   
     7    3    4 1   
     8    3   12 1   
     9    3   16 1   
    10    4    5 1   
    11    4   13 1   
    12    4   17 1   
    13    5    6 1   
    14    5    7 1   
    15    5   18 1   
    16    6   14 1   
    17    6   19 1   
    18    6   20 1   
    19    7    8 1   
    20    8    9 2   
    21    9   10 1   
    22   11   21 1   
    23   12   22 1   
    24   13   23 1   
    25   14   24 1   
@<TRIPOS>SUBSTRUCTURE
     1 NTZ         1 TEMP              0 ****  ****    0 ROOT
