@<TRIPOS>MOLECULE
NTZ
   24    25     1     0     0
SMALL
bcc


@<TRIPOS>ATOM
      1 C1          0.0690    0.0140   -0.0070 cc        1 NTZ      0.337800
      2 C2          1.5620    0.0180    0.0670 c3        1 NTZ      0.096800
      3 C3          2.0120    0.0770    1.5420 c3        1 NTZ      0.104100
      4 C4          1.2180    1.1410    2.3210 c3        1 NTZ      0.141100
      5 C5         -0.2920    0.7860    2.3850 c3        1 NTZ      0.016000
      6 C6         -1.0590    1.9780    2.9980 c3        1 NTZ      0.132400
      7 N1         -0.7690    0.3960    1.0630 na        1 NTZ     -0.061400
      8 N17        -2.0420    0.2990    0.6340 nc        1 NTZ     -0.191800
      9 N18        -2.0090   -0.1100   -0.5820 nd        1 NTZ     -0.042000
     10 N21        -0.7720   -0.3030   -1.0360 nd        1 NTZ     -0.368000
     11 O2          2.1300   -1.1620   -0.4630 oh        1 NTZ     -0.589800
     12 O3          3.3700    0.4750    1.6150 oh        1 NTZ     -0.603800
     13 O4          1.6520    1.1850    3.6680 oh        1 NTZ     -0.589800
     14 O6         -2.2910    1.5710    3.5400 oh        1 NTZ     -0.586800
     15 H2          1.9490    0.9180   -0.4950 h1        1 NTZ      0.081700
     16 H3          1.8810   -0.9340    2.0180 h1        1 NTZ      0.080700
     17 H4          1.3660    2.1500    1.8430 h1        1 NTZ      0.063700
     18 H5         -0.4280   -0.1030    3.0750 h1        1 NTZ      0.110700
     19 H61        -0.4630    2.3430    3.8820 h1        1 NTZ      0.071700
     20 H62        -1.1880    2.8040    2.2530 h1        1 NTZ      0.071700
     21 HO2         1.8190   -1.2590   -1.3730 ho        1 NTZ      0.436000
     22 HO3         3.8840   -0.2110    1.1670 ho        1 NTZ      0.433000
     23 HO4         2.6150    1.2840    3.6470 ho        1 NTZ      0.436000
     24 HO6        -2.9080    1.4190    2.8130 ho        1 NTZ      0.418000
@<TRIPOS>BOND
     1    1    2 1   
     2    1    7 1   
     3    1   10 2   
     4    2    3 1   
     5    2   11 1   
     6    2   15 1   
     7    3    4 1   
     8    3   12 1   
     9    3   16 1   
    10    4    5 1   
    11    4   13 1   
    12    4   17 1   
    13    5    6 1   
    14    5    7 1   
    15    5   18 1   
    16    6   14 1   
    17    6   19 1   
    18    6   20 1   
    19    7    8 1   
    20    8    9 2   
    21    9   10 1   
    22   11   21 1   
    23   12   22 1   
    24   13   23 1   
    25   14   24 1   
@<TRIPOS>SUBSTRUCTURE
     1 NTZ         1 TEMP              0 ****  ****    0 ROOT
