@<TRIPOS>MOLECULE
NTZ
   24    24     1     0     0
SMALL
bcc


@<TRIPOS>ATOM
      1 C1         -0.7790   -0.4850   -1.6270 c1        1 NTZ     -0.108000
      2 C2          0.8360   -0.4850   -1.6270 c2        1 NTZ      0.080000
      3 C3          1.4670   -0.4850   -0.3560 c3        1 NTZ     -0.007000
      4 C4          0.8020    0.2790    0.7090 c3        1 NTZ      0.030000
      5 C5         -0.5990   -0.0130    0.9430 c3        1 NTZ     -0.004000
      6 C6         -1.2150    1.1830    1.6370 c3        1 NTZ     -0.018000
      7 N1         -1.4720   -0.3420   -0.3230 n3        1 NTZ     -0.162000
      8 N17        -2.7790   -0.4580   -0.5410 n2        1 NTZ     -0.022000
      9 N18        -2.9760   -0.6700   -1.9290 n2        1 NTZ     -0.042000
     10 N21        -1.7040   -0.6790   -2.5610 n2        1 NTZ     -0.105000
     11 O2          1.2840   -1.6640   -2.3500 oh        1 NTZ     -0.317000
     12 O3          2.8720    0.0850   -0.5320 oh        1 NTZ     -0.331000
     13 O4          1.5500    0.0230    1.9980 oh        1 NTZ     -0.317000
     14 O6         -2.4850    0.8330    2.1400 oh        1 NTZ     -0.314000
     15 H2          1.1380    0.3050   -2.1150 h4        1 NTZ      0.121000
     16 H3          1.5480   -1.4110   -0.0590 h1        1 NTZ      0.120000
     17 H4          0.8810    1.2280    0.4940 h1        1 NTZ      0.103000
     18 H5         -0.6500   -0.7750    1.5510 h1        1 NTZ      0.150000
     19 H61        -0.6400    1.4640    2.3740 h1        1 NTZ      0.111000
     20 H62        -1.3090    1.9170    0.9990 h1        1 NTZ      0.111000
     21 HO2         1.4250   -1.4540   -3.2010 ho        1 NTZ      0.235000
     22 HO3         3.4690   -0.5640   -0.4380 ho        1 NTZ      0.232000
     23 HO4         2.1200    0.6860    2.1460 ho        1 NTZ      0.235000
     24 HO6        -2.7850    1.4810    2.6670 ho        1 NTZ      0.217000
@<TRIPOS>BOND
     1    1    7 1   
     2    1   10 1   
     3    2    3 1   
     4    2   11 1   
     5    2   15 1   
     6    3    4 1   
     7    3   12 1   
     8    3   16 1   
     9    4    5 1   
    10    4   13 1   
    11    4   17 1   
    12    5    6 1   
    13    5    7 1   
    14    5   18 1   
    15    6   14 1   
    16    6   19 1   
    17    6   20 1   
    18    7    8 1   
    19    8    9 1   
    20    9   10 1   
    21   11   21 1   
    22   12   22 1   
    23   13   23 1   
    24   14   24 1   
@<TRIPOS>SUBSTRUCTURE
     1 NTZ         1 TEMP              0 ****  ****    0 ROOT
