@<TRIPOS>MOLECULE
NTZ
   24    25     1     0     0
SMALL
bcc


@<TRIPOS>ATOM
      1 C1          0.0750    0.0580   -0.0260 cc        1 NTZ      0.337800
      2 C2          1.5680    0.0640    0.0510 c3        1 NTZ      0.096800
      3 C3          2.0150    0.0800    1.5280 c3        1 NTZ      0.104100
      4 C4          1.2160    1.1180    2.3370 c3        1 NTZ      0.141100
      5 C5         -0.2930    0.7590    2.3870 c3        1 NTZ      0.016000
      6 C6         -1.0640    1.9290    3.0330 c3        1 NTZ      0.132400
      7 N1         -0.7650    0.4060    1.0530 na        1 NTZ     -0.061400
      8 N17        -2.0380    0.3200    0.6170 nc        1 NTZ     -0.191800
      9 N18        -2.0010   -0.0520   -0.6100 nd        1 NTZ     -0.042000
     10 N21        -0.7620   -0.2290   -1.0670 nd        1 NTZ     -0.368000
     11 O2          2.1400   -1.0990   -0.5110 oh        1 NTZ     -0.589800
     12 O3          3.3710    0.4770    1.6180 oh        1 NTZ     -0.603800
     13 O4          1.6460    1.1230    3.6860 oh        1 NTZ     -0.589800
     14 O6         -2.2960    1.5040    3.5590 oh        1 NTZ     -0.586800
     15 H2          1.9550    0.9810   -0.4830 h1        1 NTZ      0.081700
     16 H3          1.8840   -0.9460    1.9740 h1        1 NTZ      0.080700
     17 H4          1.3630    2.1410    1.8900 h1        1 NTZ      0.063700
     18 H5         -0.4290   -0.1510    3.0490 h1        1 NTZ      0.110700
     19 H61        -0.4710    2.2690    3.9290 h1        1 NTZ      0.071700
     20 H62        -1.1930    2.7780    2.3120 h1        1 NTZ      0.071700
     21 HO2         1.8310   -1.1700   -1.4250 ho        1 NTZ      0.436000
     22 HO3         3.8880   -0.1930    1.1500 ho        1 NTZ      0.433000
     23 HO4         2.6090    1.2240    3.6700 ho        1 NTZ      0.436000
     24 HO6        -2.9120    1.3720    2.8270 ho        1 NTZ      0.418000
@<TRIPOS>BOND
     1    1    2 1   
     2    1    7 1   
     3    1   10 2   
     4    2    3 1   
     5    2   11 1   
     6    2   15 1   
     7    3    4 1   
     8    3   12 1   
     9    3   16 1   
    10    4    5 1   
    11    4   13 1   
    12    4   17 1   
    13    5    6 1   
    14    5    7 1   
    15    5   18 1   
    16    6   14 1   
    17    6   19 1   
    18    6   20 1   
    19    7    8 1   
    20    8    9 2   
    21    9   10 1   
    22   11   21 1   
    23   12   22 1   
    24   13   23 1   
    25   14   24 1   
@<TRIPOS>SUBSTRUCTURE
     1 NTZ         1 TEMP              0 ****  ****    0 ROOT
