@<TRIPOS>MOLECULE
NU1
   21    17     1     0     0
SMALL
bcc


@<TRIPOS>ATOM
      1 C5         -1.9330    0.1070    0.1250 c1        1 NU1      0.098000
      2 O5         -2.9560    0.2660    1.0790 o         1 NU1     -0.250000
      3 C4A        -0.5200    0.1070    0.1250 c1        1 NU1     -0.037000
      4 N4          0.1630    0.1070    1.3040 n1        1 NU1     -0.212000
      5 C3          1.5290    0.1070    1.3030 c1        1 NU1      0.125000
      6 C9          2.1010   -0.2800    2.6450 c3        1 NU1     -0.185000
      7 N2          2.2150    0.1070    0.1160 n2        1 NU1     -0.339000
      8 C1          1.5440    0.1070   -1.0500 c1        1 NU1      0.345000
      9 O1          2.1530    0.1040   -2.1020 o         1 NU1     -0.344000
     10 C8A         0.1590    0.1070   -1.0520 c1        1 NU1     -0.130000
     11 C8         -0.5480    0.1070   -2.2740 c1        1 NU1     -0.097000
     12 C7         -1.9330    0.1070   -2.2740 c1        1 NU1     -0.116000
     13 C6         -2.6260    0.1070   -1.0740 c2        1 NU1     -0.133000
     14 HO5        -3.0660   -0.4940    1.5240 ho        1 NU1      0.243000
     15 H91         2.1120   -1.2530    2.7260 hc        1 NU1      0.107667
     16 H92         1.5490    0.0990    3.3550 hc        1 NU1      0.107667
     17 H93         3.0120    0.0630    2.7220 hc        1 NU1      0.107667
     18 HN2         3.1270    0.1070    0.1170 hn        1 NU1      0.250000
     19 H8         -0.0600    0.1070   -3.1200 ha        1 NU1      0.161000
     20 H7         -2.4220    0.1070   -3.1190 ha        1 NU1      0.143000
     21 H6         -3.6020    0.1070   -1.0740 ha        1 NU1      0.156000
@<TRIPOS>BOND
     1    1    3 1   
     2    1   13 1   
     3    2   14 1   
     4    3    4 1   
     5    5    6 1   
     6    5    7 1   
     7    6   15 1   
     8    6   16 1   
     9    6   17 1   
    10    7   18 1   
    11    8    9 1   
    12    8   10 1   
    13   10   11 1   
    14   11   19 1   
    15   12   13 1   
    16   12   20 1   
    17   13   21 1   
@<TRIPOS>SUBSTRUCTURE
     1 NU1         1 TEMP              0 ****  ****    0 ROOT
