@<TRIPOS>MOLECULE
NU1
   21    22     1     0     0
SMALL
bcc


@<TRIPOS>ATOM
      1 C5         -0.0700   -0.0700   -0.0710 ca        1 NU1      0.143100
      2 O5         -0.8720   -0.1120    1.0420 oh        1 NU1     -0.496100
      3 C4A         1.3520   -0.0530   -0.0240 ca        1 NU1      0.102400
      4 N4          2.0240   -0.0780    1.2040 nc        1 NU1     -0.639100
      5 C3          3.3440   -0.0600    1.2010 cd        1 NU1      0.494900
      6 C9          4.1010   -0.0870    2.5080 c3        1 NU1     -0.142400
      7 N2          4.1240   -0.0170    0.0370 ns        1 NU1     -0.499400
      8 C1          3.5280    0.0110   -1.2340 c         1 NU1      0.708100
      9 O1          4.2590    0.0490   -2.2390 o         1 NU1     -0.619500
     10 C8A         2.0510   -0.0090   -1.2590 ca        1 NU1     -0.150600
     11 C8          1.3710    0.0170   -2.4790 ca        1 NU1     -0.097000
     12 C7         -0.0200   -0.0020   -2.4940 ca        1 NU1     -0.116000
     13 C6         -0.7410   -0.0450   -1.3010 ca        1 NU1     -0.133000
     14 HO5        -0.3160   -0.1270    1.8350 ho        1 NU1      0.444000
     15 H91         4.7580   -0.9910    2.5440 hc        1 NU1      0.068367
     16 H92         4.7340    0.8310    2.5950 hc        1 NU1      0.068367
     17 H93         3.3990   -0.1210    3.3770 hc        1 NU1      0.068367
     18 HN2         5.1160   -0.0060    0.1070 hn        1 NU1      0.336500
     19 H8          1.9500    0.0510   -3.4160 ha        1 NU1      0.161000
     20 H7         -0.5600    0.0180   -3.4520 ha        1 NU1      0.143000
     21 H6         -1.8410   -0.0590   -1.3060 ha        1 NU1      0.156000
@<TRIPOS>BOND
     1    1    2 1   
     2    1    3 ar  
     3    1   13 ar  
     4    2   14 1   
     5    3    4 1   
     6    3   10 ar  
     7    4    5 2   
     8    5    6 1   
     9    5    7 1   
    10    6   15 1   
    11    6   16 1   
    12    6   17 1   
    13    7    8 1   
    14    7   18 1   
    15    8    9 2   
    16    8   10 1   
    17   10   11 ar  
    18   11   12 ar  
    19   11   19 1   
    20   12   13 ar  
    21   12   20 1   
    22   13   21 1   
@<TRIPOS>SUBSTRUCTURE
     1 NU1         1 TEMP              0 ****  ****    0 ROOT
