@<TRIPOS>MOLECULE
NU1
   21    22     1     0     0
SMALL
bcc


@<TRIPOS>ATOM
      1 C5         -0.0700   -0.0740   -0.0780 ca        1 NU1      0.143100
      2 O5         -0.8760   -0.1260    1.0320 oh        1 NU1     -0.496100
      3 C4A         1.3520   -0.0540   -0.0260 ca        1 NU1      0.102400
      4 N4          2.0190   -0.0890    1.2040 nc        1 NU1     -0.639100
      5 C3          3.3390   -0.0690    1.2050 cd        1 NU1      0.494900
      6 C9          4.0930   -0.1050    2.5150 c3        1 NU1     -0.142400
      7 N2          4.1230   -0.0150    0.0440 n         1 NU1     -0.499400
      8 C1          3.5310    0.0220   -1.2280 c         1 NU1      0.708100
      9 O1          4.2660    0.0690   -2.2310 o         1 NU1     -0.619500
     10 C8A         2.0550    0.0010   -1.2590 ca        1 NU1     -0.150600
     11 C8          1.3780    0.0350   -2.4810 ca        1 NU1     -0.097000
     12 C7         -0.0120    0.0150   -2.5000 ca        1 NU1     -0.116000
     13 C6         -0.7370   -0.0390   -1.3100 ca        1 NU1     -0.133000
     14 HO5        -0.3230   -0.1470    1.8270 ho        1 NU1      0.444000
     15 H91         4.7500   -1.0090    2.5460 hc        1 NU1      0.068367
     16 H92         4.7230    0.8130    2.6110 hc        1 NU1      0.068367
     17 H93         3.3880   -0.1470    3.3810 hc        1 NU1      0.068367
     18 HN2         5.1150   -0.0030    0.1170 hn        1 NU1      0.336500
     19 H8          1.9600    0.0770   -3.4150 ha        1 NU1      0.161000
     20 H7         -0.5490    0.0410   -3.4600 ha        1 NU1      0.143000
     21 H6         -1.8370   -0.0560   -1.3190 ha        1 NU1      0.156000
@<TRIPOS>BOND
     1    1    2 1   
     2    1    3 ar  
     3    1   13 ar  
     4    2   14 1   
     5    3    4 1   
     6    3   10 ar  
     7    4    5 2   
     8    5    6 1   
     9    5    7 1   
    10    6   15 1   
    11    6   16 1   
    12    6   17 1   
    13    7    8 1   
    14    7   18 1   
    15    8    9 2   
    16    8   10 1   
    17   10   11 ar  
    18   11   12 ar  
    19   11   19 1   
    20   12   13 ar  
    21   12   20 1   
    22   13   21 1   
@<TRIPOS>SUBSTRUCTURE
     1 NU1         1 TEMP              0 ****  ****    0 ROOT
