@<TRIPOS>MOLECULE
NU1
   21    22     1     0     0
SMALL
bcc


@<TRIPOS>ATOM
      1 C5          0.9150   -0.0840   -1.8170 ca        1 NU1      0.143100
      2 O5          2.2310   -0.1460   -2.2000 oh        1 NU1     -0.496100
      3 C4A         0.4830   -0.0560   -0.4610 ca        1 NU1      0.102400
      4 N4          1.4150   -0.0920    0.5830 nc        1 NU1     -0.639100
      5 C3          0.9700   -0.0650    1.8250 cd        1 NU1      0.494900
      6 C9          1.9480   -0.1020    2.9770 c3        1 NU1     -0.142400
      7 N2         -0.3870   -0.0010    2.1710 n         1 NU1     -0.499400
      8 C1         -1.3840    0.0390    1.1830 c         1 NU1      0.708100
      9 O1         -2.5760    0.0950    1.5360 o         1 NU1     -0.619500
     10 C8A        -0.9140    0.0090   -0.2170 ca        1 NU1     -0.150600
     11 C8         -1.8350    0.0450   -1.2660 ca        1 NU1     -0.097000
     12 C7         -1.3840    0.0170   -2.5810 ca        1 NU1     -0.116000
     13 C6         -0.0190   -0.0470   -2.8610 ca        1 NU1     -0.133000
     14 HO5         2.7930   -0.1670   -1.4110 ho        1 NU1      0.444000
     15 H91         3.0010   -0.1530    2.6060 hc        1 NU1      0.068367
     16 H92         1.8320    0.8190    3.5990 hc        1 NU1      0.068367
     17 H93         1.7490   -1.0020    3.6100 hc        1 NU1      0.068367
     18 HN2        -0.6530    0.0170    3.1290 hn        1 NU1      0.336500
     19 H8         -2.9120    0.0950   -1.0340 ha        1 NU1      0.161000
     20 H7         -2.1060    0.0450   -3.4110 ha        1 NU1      0.143000
     21 H6          0.3440   -0.0700   -3.8990 ha        1 NU1      0.156000
@<TRIPOS>BOND
     1    1    2 1   
     2    1    3 ar  
     3    1   13 ar  
     4    2   14 1   
     5    3    4 1   
     6    3   10 ar  
     7    4    5 2   
     8    5    6 1   
     9    5    7 1   
    10    6   15 1   
    11    6   16 1   
    12    6   17 1   
    13    7    8 1   
    14    7   18 1   
    15    8    9 2   
    16    8   10 1   
    17   10   11 ar  
    18   11   12 ar  
    19   11   19 1   
    20   12   13 ar  
    21   12   20 1   
    22   13   21 1   
@<TRIPOS>SUBSTRUCTURE
     1 NU1         1 TEMP              0 ****  ****    0 ROOT
