@<TRIPOS>MOLECULE
NU3
   31    33     1     0     0
SMALL
bcc


@<TRIPOS>ATOM
      1 C           0.3440    0.5140   -0.4180 c         1 NU3      0.583700
      2 N          -0.3030    0.4990    0.9520 nz        1 NU3     -0.745400
      3 O           1.5630    0.6380   -0.3820 o         1 NU3     -0.445100
      4 C1         -0.5310    0.3930   -1.5700 ca        1 NU3     -0.187600
      5 N1         -4.0240   -0.0760   -2.3140 na        1 NU3     -0.253300
      6 O1         -8.7930   -0.7510    1.9880 oh        1 NU3     -0.472100
      7 C2          0.0540    0.4810   -2.8450 ca        1 NU3     -0.022000
      8 N2         -2.7800    0.0630   -0.3880 nc        1 NU3     -0.690100
      9 C3         -0.7110    0.3870   -4.0110 ca        1 NU3     -0.143000
     10 C4         -2.0910    0.2010   -3.9720 ca        1 NU3     -0.028000
     11 C5         -2.6950    0.1060   -2.7170 ca        1 NU3     -0.093200
     12 C6         -4.0320   -0.0980   -0.9090 cd        1 NU3      0.579400
     13 C7         -5.2620   -0.2750   -0.1410 ca        1 NU3     -0.213900
     14 C8         -5.2430   -1.0300    1.0400 ca        1 NU3     -0.048000
     15 C9         -6.4100   -1.2090    1.7740 ca        1 NU3     -0.189000
     16 C10        -7.6050   -0.6240    1.3260 ca        1 NU3      0.178100
     17 C11        -7.6310    0.1440    0.1430 ca        1 NU3     -0.189000
     18 C12        -6.4620    0.3110   -0.5820 ca        1 NU3     -0.048000
     19 C13        -1.9230    0.1950   -1.4850 ca        1 NU3      0.120400
     20 HN         -0.7800   -0.3970    1.1000 hn        1 NU3      0.470800
     21 HNA        -1.0010    1.2490    1.0160 hn        1 NU3      0.470800
     22 HN1        -4.8060   -0.1910   -2.9070 hn        1 NU3      0.332700
     23 HO1        -8.6540   -1.3010    2.7760 ho        1 NU3      0.437000
     24 H2          1.1460    0.6310   -2.9230 ha        1 NU3      0.172000
     25 H3         -0.2050    0.4620   -4.9880 ha        1 NU3      0.172000
     26 H4         -2.6800    0.1320   -4.9000 ha        1 NU3      0.168000
     27 H8         -4.3070   -1.4930    1.3870 ha        1 NU3      0.142000
     28 H9         -6.3980   -1.8080    2.6970 ha        1 NU3      0.163000
     29 H11        -8.5790    0.5990   -0.1850 ha        1 NU3      0.163000
     30 H12        -6.4830    0.9230   -1.4970 ha        1 NU3      0.142000
     31 HN3         0.4100    0.6310    1.6760 hn        1 NU3      0.470800
@<TRIPOS>BOND
     1    1    2 1   
     2    1    3 2   
     3    1    4 1   
     4    2   20 1   
     5    2   21 1   
     6    2   31 1   
     7    4    7 ar  
     8    4   19 ar  
     9    5   11 1   
    10    5   12 1   
    11    5   22 1   
    12    6   16 1   
    13    6   23 1   
    14    7    9 ar  
    15    7   24 1   
    16    8   12 2   
    17    8   19 1   
    18    9   10 ar  
    19    9   25 1   
    20   10   11 ar  
    21   10   26 1   
    22   11   19 ar  
    23   12   13 1   
    24   13   14 ar  
    25   13   18 ar  
    26   14   15 ar  
    27   14   27 1   
    28   15   16 ar  
    29   15   28 1   
    30   16   17 ar  
    31   17   18 ar  
    32   17   29 1   
    33   18   30 1   
@<TRIPOS>SUBSTRUCTURE
     1 NU3         1 TEMP              0 ****  ****    0 ROOT
