@<TRIPOS>MOLECULE
NU3
   30    32     1     0     0
SMALL
bcc


@<TRIPOS>ATOM
      1 C          -3.5990    1.5540    0.0630 c         1 NU3      0.674700
      2 N          -2.9150    2.3850   -0.7870 n         1 NU3     -0.653000
      3 O          -4.5980    1.9820    0.6830 o         1 NU3     -0.624100
      4 C1         -3.1750    0.1300    0.1800 ca        1 NU3     -0.086600
      5 N1         -0.1220   -1.7760    0.2330 na        1 NU3     -0.277300
      6 O1          5.8650    0.6330   -0.3100 oh        1 NU3     -0.491100
      7 C2         -4.1520   -0.8440    0.3660 ca        1 NU3     -0.092000
      8 N2         -0.6360    0.4550   -0.0010 nc        1 NU3     -0.588100
      9 C3         -3.8290   -2.2040    0.5040 ca        1 NU3     -0.125000
     10 C4         -2.5150   -2.6490    0.4750 ca        1 NU3     -0.114000
     11 C5         -1.5140   -1.6860    0.3030 ca        1 NU3     -0.080200
     12 C6          0.3630   -0.4580    0.0610 cd        1 NU3      0.491400
     13 C7          1.7940   -0.1670   -0.0320 ca        1 NU3     -0.161900
     14 C8          2.2860    1.0380    0.4890 ca        1 NU3     -0.061500
     15 C9          3.6440    1.3320    0.4100 ca        1 NU3     -0.191000
     16 C10         4.5140    0.4150   -0.1980 ca        1 NU3      0.144100
     17 C11         4.0290   -0.7930   -0.7310 ca        1 NU3     -0.191000
     18 C12         2.6710   -1.0740   -0.6450 ca        1 NU3     -0.061500
     19 C13        -1.8300   -0.2740    0.1460 ca        1 NU3      0.092400
     20 HN         -3.1510    3.3460   -0.7950 hn        1 NU3      0.316000
     21 HNA        -2.0620    2.1090   -1.2010 hn        1 NU3      0.316000
     22 HN1         0.4220   -2.5860    0.3650 hn        1 NU3      0.308700
     23 HO1         6.0650    1.4960    0.0810 ho        1 NU3      0.425000
     24 H2         -5.2080   -0.5280    0.4170 ha        1 NU3      0.160000
     25 H3         -4.6430   -2.9310    0.6440 ha        1 NU3      0.139000
     26 H4         -2.2690   -3.7130    0.5870 ha        1 NU3      0.138000
     27 H8          1.5980    1.7570    0.9620 ha        1 NU3      0.147500
     28 H9          4.0310    2.2760    0.8190 ha        1 NU3      0.149000
     29 H11         4.7280   -1.4940   -1.2100 ha        1 NU3      0.149000
     30 H12         2.2920   -2.0110   -1.0800 ha        1 NU3      0.147500
@<TRIPOS>BOND
     1    1    2 1   
     2    1    3 2   
     3    1    4 1   
     4    2   20 1   
     5    2   21 1   
     6    4    7 ar  
     7    4   19 ar  
     8    5   11 1   
     9    5   12 1   
    10    5   22 1   
    11    6   16 1   
    12    6   23 1   
    13    7    9 ar  
    14    7   24 1   
    15    8   12 2   
    16    8   19 1   
    17    9   10 ar  
    18    9   25 1   
    19   10   11 ar  
    20   10   26 1   
    21   11   19 ar  
    22   12   13 1   
    23   13   14 ar  
    24   13   18 ar  
    25   14   15 ar  
    26   14   27 1   
    27   15   16 ar  
    28   15   28 1   
    29   16   17 ar  
    30   17   18 ar  
    31   17   29 1   
    32   18   30 1   
@<TRIPOS>SUBSTRUCTURE
     1 NU3         1 TEMP              0 ****  ****    0 ROOT
