@<TRIPOS>MOLECULE
NU3
   30    25     1     0     0
SMALL
bcc


@<TRIPOS>ATOM
      1 C           0.4730   -2.6150    1.7400 c1        1 NU3      0.348000
      2 N          -0.0940   -3.1230    2.9370 n2        1 NU3     -0.411000
      3 O           1.6220   -2.2210    1.7310 o         1 NU3     -0.385000
      4 C1         -0.3540   -2.5640    0.4730 c2        1 NU3     -0.066000
      5 N1         -1.5650    0.0360   -1.5870 n2        1 NU3     -0.235000
      6 O1          2.7990    4.9500    0.4700 oh        1 NU3     -0.244000
      7 C2         -0.8030   -3.7360   -0.1150 c1        1 NU3     -0.091000
      8 N2         -0.3630   -0.0490    0.2530 n2        1 NU3     -0.160000
      9 C3         -1.5600   -3.6830   -1.2740 c1        1 NU3     -0.119500
     10 C4         -1.8690   -2.4580   -1.8450 c1        1 NU3     -0.119500
     11 C5         -1.4130   -1.2680   -1.2470 c1        1 NU3     -0.036000
     12 C6         -0.9170    0.7910   -0.6610 c1        1 NU3      0.081000
     13 C7          0.0520    1.9180   -0.3800 c1        1 NU3     -0.076000
     14 C8         -0.1390    2.7370    0.7220 c2        1 NU3     -0.050000
     15 C9          0.7650    3.7510    0.9960 c1        1 NU3     -0.162000
     16 C10         1.8600    3.9460    0.1690 c1        1 NU3      0.099000
     17 C11         2.0500    3.1270   -0.9330 c1        1 NU3     -0.218000
     18 C12         1.1460    2.1130   -1.2080 c1        1 NU3     -0.073000
     19 C13        -0.6670   -1.3200   -0.1060 c2        1 NU3     -0.046000
     20 HN         -0.9580   -3.4210    2.9430 hn        1 NU3      0.228500
     21 HNA         0.4050   -3.1530    3.7020 hn        1 NU3      0.228500
     22 HN1        -2.0230    0.3510   -2.3110 DU        1 NU3      0.259000
     23 HO1         2.5950    5.6910    0.0230 ho        1 NU3      0.223000
     24 H2         -0.5860   -4.5990    0.2870 ha        1 NU3      0.160000
     25 H3         -1.8770   -4.5080   -1.6890 ha        1 NU3      0.139000
     26 H4         -2.4020   -2.4210   -2.6620 ha        1 NU3      0.139000
     27 H8         -0.9100    2.5990    1.3040 ha        1 NU3      0.157000
     28 H9          0.6310    4.3280    1.7720 ha        1 NU3      0.159000
     29 H11         2.8210    3.2650   -1.5160 ha        1 NU3      0.140000
     30 H12         1.2810    1.5370   -1.9840 ha        1 NU3      0.134000
@<TRIPOS>BOND
     1    1    3 1   
     2    1    4 1   
     3    2   20 1   
     4    2   21 1   
     5    4    7 1   
     6    4   19 1   
     7    5   11 1   
     8    5   12 1   
     9    6   16 1   
    10    6   23 1   
    11    7   24 1   
    12    8   12 1   
    13    8   19 1   
    14    9   10 1   
    15    9   25 1   
    16   10   26 1   
    17   11   19 1   
    18   13   14 1   
    19   13   18 1   
    20   14   15 1   
    21   14   27 1   
    22   15   28 1   
    23   16   17 1   
    24   17   29 1   
    25   18   30 1   
@<TRIPOS>SUBSTRUCTURE
     1 NU3         1 TEMP              0 ****  ****    0 ROOT
