@<TRIPOS>MOLECULE
NU3
   31    33     1     0     0
SMALL
bcc


@<TRIPOS>ATOM
      1 C           0.3750   -0.0180   -0.3420 c         1 NU3      0.583700
      2 N          -0.2910    0.3760    0.9610 n4        1 NU3     -0.745400
      3 O           1.5980   -0.0730   -0.2690 o         1 NU3     -0.445100
      4 C1         -0.4870   -0.2650   -1.4830 ca        1 NU3     -0.187600
      5 N1         -3.9950   -0.3610   -2.2900 na        1 NU3     -0.253300
      6 O1         -8.8890    0.6830    1.7940 oh        1 NU3     -0.472100
      7 C2          0.1280   -0.5580   -2.7130 ca        1 NU3     -0.022000
      8 N2         -2.7800    0.0240   -0.3790 nc        1 NU3     -0.690100
      9 C3         -0.6210   -0.7990   -3.8680 ca        1 NU3     -0.143000
     10 C4         -2.0140   -0.7610   -3.8630 ca        1 NU3     -0.028000
     11 C5         -2.6480   -0.4770   -2.6520 ca        1 NU3     -0.093200
     12 C6         -4.0320   -0.0610   -0.9170 cd        1 NU3      0.579400
     13 C7         -5.2890    0.1270   -0.1970 ca        1 NU3     -0.213900
     14 C8         -5.4110   -0.3320    1.1220 ca        1 NU3     -0.048000
     15 C9         -6.6040   -0.1630    1.8150 ca        1 NU3     -0.189000
     16 C10        -7.6840    0.4770    1.1840 ca        1 NU3      0.178100
     17 C11        -7.5670    0.9500   -0.1390 ca        1 NU3     -0.189000
     18 C12        -6.3730    0.7700   -0.8200 ca        1 NU3     -0.048000
     19 C13        -1.8940   -0.2270   -1.4310 ca        1 NU3      0.120400
     20 HN         -0.9060   -0.3820    1.2780 hn        1 NU3      0.470800
     21 HNA        -0.8620    1.2160    0.8200 hn        1 NU3      0.470800
     22 HN1        -4.7760   -0.4890   -2.8840 hn        1 NU3      0.332700
     23 HO1        -8.8530    0.3130    2.6910 ho        1 NU3      0.437000
     24 H2          1.2310   -0.5960   -2.7640 ha        1 NU3      0.172000
     25 H3         -0.0920   -1.0250   -4.8090 ha        1 NU3      0.172000
     26 H4         -2.5890   -0.9500   -4.7830 ha        1 NU3      0.168000
     27 H8         -4.5660   -0.8390    1.6130 ha        1 NU3      0.142000
     28 H9         -6.7040   -0.5300    2.8470 ha        1 NU3      0.163000
     29 H11        -8.4250    1.4550   -0.6100 ha        1 NU3      0.163000
     30 H12        -6.2810    1.1540   -1.8470 ha        1 NU3      0.142000
     31 HN3         0.4220    0.5600    1.6750 hn        1 NU3      0.470800
@<TRIPOS>BOND
     1    1    2 1   
     2    1    3 2   
     3    1    4 1   
     4    2   20 1   
     5    2   21 1   
     6    2   31 1   
     7    4    7 ar  
     8    4   19 ar  
     9    5   11 1   
    10    5   12 1   
    11    5   22 1   
    12    6   16 1   
    13    6   23 1   
    14    7    9 ar  
    15    7   24 1   
    16    8   12 2   
    17    8   19 1   
    18    9   10 ar  
    19    9   25 1   
    20   10   11 ar  
    21   10   26 1   
    22   11   19 ar  
    23   12   13 1   
    24   13   14 ar  
    25   13   18 ar  
    26   14   15 ar  
    27   14   27 1   
    28   15   16 ar  
    29   15   28 1   
    30   16   17 ar  
    31   17   18 ar  
    32   17   29 1   
    33   18   30 1   
@<TRIPOS>SUBSTRUCTURE
     1 NU3         1 TEMP              0 ****  ****    0 ROOT
