@<TRIPOS>MOLECULE
NU3
   31    33     1     0     0
SMALL
bcc


@<TRIPOS>ATOM
      1 C           0.3820   -0.0240   -0.4260 c         1 NU3      0.583700
      2 N          -0.2540    0.3720    0.8910 n4        1 NU3     -0.745400
      3 O           1.6050   -0.0830   -0.3800 o         1 NU3     -0.445100
      4 C1         -0.5050   -0.2690   -1.5480 ca        1 NU3     -0.187600
      5 N1         -4.0310   -0.3570   -2.2770 na        1 NU3     -0.253300
      6 O1         -8.8310    0.7010    1.9130 oh        1 NU3     -0.472100
      7 C2          0.0810   -0.5640   -2.7910 ca        1 NU3     -0.022000
      8 N2         -2.7730    0.0250   -0.3940 nc        1 NU3     -0.690100
      9 C3         -0.6940   -0.8030   -3.9290 ca        1 NU3     -0.143000
     10 C4         -2.0860   -0.7620   -3.8930 ca        1 NU3     -0.028000
     11 C5         -2.6920   -0.4760   -2.6690 ca        1 NU3     -0.093200
     12 C6         -4.0370   -0.0560   -0.9040 cd        1 NU3      0.579400
     13 C7         -5.2770    0.1350   -0.1560 ca        1 NU3     -0.213900
     14 C8         -5.3720   -0.3240    1.1640 ca        1 NU3     -0.048000
     15 C9         -6.5490   -0.1520    1.8830 ca        1 NU3     -0.189000
     16 C10        -7.6400    0.4920    1.2770 ca        1 NU3      0.178100
     17 C11        -7.5510    0.9650   -0.0490 ca        1 NU3     -0.189000
     18 C12        -6.3720    0.7820   -0.7550 ca        1 NU3     -0.048000
     19 C13        -1.9110   -0.2280   -1.4650 ca        1 NU3      0.120400
     20 HN         -0.8640   -0.3830    1.2220 hn        1 NU3      0.470800
     21 HNA        -0.8260    1.2140    0.7620 hn        1 NU3      0.470800
     22 HN1        -4.8250   -0.4830   -2.8540 hn        1 NU3      0.332700
     23 HO1        -8.7770    0.3300    2.8080 ho        1 NU3      0.437000
     24 H2          1.1830   -0.6050   -2.8660 ha        1 NU3      0.172000
     25 H3         -0.1860   -1.0310   -4.8820 ha        1 NU3      0.172000
     26 H4         -2.6820   -0.9500   -4.8000 ha        1 NU3      0.168000
     27 H8         -4.5180   -0.8340    1.6370 ha        1 NU3      0.142000
     28 H9         -6.6270   -0.5200    2.9170 ha        1 NU3      0.163000
     29 H11        -8.4170    1.4730   -0.5000 ha        1 NU3      0.163000
     30 H12        -6.3020    1.1660   -1.7840 ha        1 NU3      0.142000
     31 HN3         0.4740    0.5550    1.5890 hn        1 NU3      0.470800
@<TRIPOS>BOND
     1    1    2 1   
     2    1    3 2   
     3    1    4 1   
     4    2   20 1   
     5    2   21 1   
     6    2   31 1   
     7    4    7 ar  
     8    4   19 ar  
     9    5   11 1   
    10    5   12 1   
    11    5   22 1   
    12    6   16 1   
    13    6   23 1   
    14    7    9 ar  
    15    7   24 1   
    16    8   12 2   
    17    8   19 1   
    18    9   10 ar  
    19    9   25 1   
    20   10   11 ar  
    21   10   26 1   
    22   11   19 ar  
    23   12   13 1   
    24   13   14 ar  
    25   13   18 ar  
    26   14   15 ar  
    27   14   27 1   
    28   15   16 ar  
    29   15   28 1   
    30   16   17 ar  
    31   17   18 ar  
    32   17   29 1   
    33   18   30 1   
@<TRIPOS>SUBSTRUCTURE
     1 NU3         1 TEMP              0 ****  ****    0 ROOT
