@<TRIPOS>MOLECULE
NU5
   67    70     1     0     0
SMALL
bcc


@<TRIPOS>ATOM
      1 O2          0.5240   -0.3470    0.6890 o         1 NU5     -0.649300
      2 S1          1.8910   -0.0940    0.5450 sy        1 NU5      1.426300
      3 O3          2.7010   -0.2040    1.6790 o         1 NU5     -0.649300
      4 C22         2.4580   -1.4210   -0.5090 c3        1 NU5     -0.310600
      5 C23         2.2340   -2.7340    0.1910 c3        1 NU5      0.135800
      6 N6          2.6830   -3.9080   -0.6180 ny        1 NU5     -0.758000
      7 C24         2.4510   -5.1990    0.0970 c3        1 NU5      0.103800
      8 C25         2.9040   -6.3960   -0.7220 c3        1 NU5     -0.123400
      9 C26         2.6390   -7.6760    0.0650 c3        1 NU5      0.142400
     10 O4          3.0830   -8.7300   -0.7680 oh        1 NU5     -0.590800
     11 C19         2.2300    1.1810   -0.3820 ca        1 NU5     -0.543500
     12 C18         1.2780    1.7190   -1.2710 ca        1 NU5      0.036500
     13 C17         1.5310    2.8350   -2.0400 ca        1 NU5     -0.217000
     14 C16         2.7910    3.4920   -1.9620 ca        1 NU5      0.302600
     15 C21         3.7520    2.9690   -1.0390 ca        1 NU5     -0.217000
     16 C20         3.4670    1.8520   -0.2860 ca        1 NU5      0.036500
     17 N2          3.1380    4.6060   -2.6880 nu        1 NU5     -0.722300
     18 C2          2.4050    5.1940   -3.7570 ca        1 NU5      0.900900
     19 N1          1.7100    4.3430   -4.6070 nb        1 NU5     -0.817000
     20 C6          1.0640    4.8990   -5.6580 ca        1 NU5      0.752600
     21 C5          1.0950    6.3010   -5.8930 ca        1 NU5     -0.179200
     22 N7          0.5450    7.1470   -6.8640 nc        1 NU5     -0.498100
     23 C8          0.9510    8.3800   -6.5190 cd        1 NU5      0.415700
     24 N9          1.7550    8.4100   -5.3560 na        1 NU5     -0.370000
     25 C4          1.8650    7.0850   -4.9260 ca        1 NU5      0.454800
     26 N3          2.5220    6.5610   -3.8530 nb        1 NU5     -0.735000
     27 O6          0.3500    4.1540   -6.5510 os        1 NU5     -0.407100
     28 C9          0.3210    2.7230   -6.3650 c3        1 NU5      0.137400
     29 C10        -0.5440    2.1870   -7.5020 c3        1 NU5     -0.073700
     30 C15        -0.2910    0.6960   -7.6660 c3        1 NU5     -0.072400
     31 C14        -1.1600    0.1190   -8.7660 c3        1 NU5     -0.076900
     32 C13        -2.6280    0.4000   -8.5180 c3        1 NU5     -0.078400
     33 C12        -2.8810    1.8820   -8.3400 c3        1 NU5     -0.076900
     34 C11        -2.0170    2.4610   -7.2390 c3        1 NU5     -0.072400
     35 H221        1.9030   -1.3750   -1.4790 h1        1 NU5      0.111200
     36 H222        3.5410   -1.2610   -0.7410 h1        1 NU5      0.111200
     37 H231        2.8050   -2.7500    1.1690 hx        1 NU5      0.123700
     38 H232        1.1320   -2.8680    0.4120 hx        1 NU5      0.123700
     39 HN6         2.1770   -3.9170   -1.5110 hn        1 NU5      0.449300
     40 H241        1.3480   -5.2750    0.3230 hx        1 NU5      0.108700
     41 H242        3.0140   -5.1580    1.0740 hx        1 NU5      0.108700
     42 H251        4.0010   -6.3390   -0.9550 hc        1 NU5      0.082700
     43 H252        2.3520   -6.4540   -1.6980 hc        1 NU5      0.082700
     44 H261        3.2110   -7.6720    1.0310 h1        1 NU5      0.038700
     45 H262        1.5430   -7.7850    0.2840 h1        1 NU5      0.038700
     46 HO4         2.9270   -9.5540   -0.2880 ho        1 NU5      0.429000
     47 H18         0.2820    1.2400   -1.3330 ha        1 NU5      0.154500
     48 H17         0.7350    3.2150   -2.6990 ha        1 NU5      0.165000
     49 H21         4.7300    3.4620   -0.9220 ha        1 NU5      0.165000
     50 H20         4.2210    1.4760    0.4300 ha        1 NU5      0.154500
     51 HN2         3.9300    5.1310   -2.3700 hn        1 NU5      0.472800
     52 H8          0.7050    9.3020   -7.0620 h5        1 NU5      0.087800
     53 HN9         2.1520    9.2020   -4.9200 hn        1 NU5      0.327700
     54 H91        -0.1230    2.4870   -5.3640 h1        1 NU5      0.050200
     55 H92         1.3660    2.3240   -6.4280 h1        1 NU5      0.050200
     56 H10        -0.2480    2.7150   -8.4530 hc        1 NU5      0.078700
     57 H151       -0.5110    0.1720   -6.6990 hc        1 NU5      0.040950
     58 H152        0.7890    0.5200   -7.9110 hc        1 NU5      0.040950
     59 H141       -0.8560    0.5630   -9.7510 hc        1 NU5      0.046200
     60 H142       -0.9930   -0.9880   -8.8290 hc        1 NU5      0.046200
     61 H131       -2.9640   -0.1510   -7.6000 hc        1 NU5      0.041700
     62 H132       -3.2320    0.0160   -9.3810 hc        1 NU5      0.041700
     63 H121       -3.9620    2.0520   -8.0920 hc        1 NU5      0.046200
     64 H122       -2.6680    2.4170   -9.3020 hc        1 NU5      0.046200
     65 H111       -2.3120    2.0110   -6.2550 hc        1 NU5      0.040950
     66 H112       -2.1760    3.5680   -7.1690 hc        1 NU5      0.040950
     67 H62         3.6830   -3.8100   -0.8300 hn        1 NU5      0.449300
@<TRIPOS>BOND
     1    1    2 2   
     2    2    3 2   
     3    2    4 1   
     4    2   11 1   
     5    4    5 1   
     6    4   35 1   
     7    4   36 1   
     8    5    6 1   
     9    5   37 1   
    10    5   38 1   
    11    6    7 1   
    12    6   39 1   
    13    6   67 1   
    14    7    8 1   
    15    7   40 1   
    16    7   41 1   
    17    8    9 1   
    18    8   42 1   
    19    8   43 1   
    20    9   10 1   
    21    9   44 1   
    22    9   45 1   
    23   10   46 1   
    24   11   12 ar  
    25   11   16 ar  
    26   12   13 ar  
    27   12   47 1   
    28   13   14 ar  
    29   13   48 1   
    30   14   15 ar  
    31   14   17 1   
    32   15   16 ar  
    33   15   49 1   
    34   16   50 1   
    35   17   18 1   
    36   17   51 1   
    37   18   19 ar  
    38   18   26 ar  
    39   19   20 ar  
    40   20   21 ar  
    41   20   27 1   
    42   21   22 1   
    43   21   25 ar  
    44   22   23 2   
    45   23   24 1   
    46   23   52 1   
    47   24   25 1   
    48   24   53 1   
    49   25   26 ar  
    50   27   28 1   
    51   28   29 1   
    52   28   54 1   
    53   28   55 1   
    54   29   30 1   
    55   29   34 1   
    56   29   56 1   
    57   30   31 1   
    58   30   57 1   
    59   30   58 1   
    60   31   32 1   
    61   31   59 1   
    62   31   60 1   
    63   32   33 1   
    64   32   61 1   
    65   32   62 1   
    66   33   34 1   
    67   33   63 1   
    68   33   64 1   
    69   34   65 1   
    70   34   66 1   
@<TRIPOS>SUBSTRUCTURE
     1 NU5         1 TEMP              0 ****  ****    0 ROOT
