@<TRIPOS>MOLECULE
NU5
   67    70     1     0     0
SMALL
bcc


@<TRIPOS>ATOM
      1 O2          0.5040   -0.3760    0.6640 o         1 NU5     -0.649300
      2 S1          1.8720   -0.1200    0.5330 sy        1 NU5      1.426300
      3 O3          2.6720   -0.2310    1.6730 o         1 NU5     -0.649300
      4 C22         2.4520   -1.4420   -0.5200 c3        1 NU5     -0.310600
      5 C23         2.2330   -2.7570    0.1790 c3        1 NU5      0.135800
      6 N6          2.6960   -3.9280   -0.6280 n4        1 NU5     -0.758000
      7 C24         2.4720   -5.2200    0.0860 c3        1 NU5      0.103800
      8 C25         2.9390   -6.4140   -0.7300 c3        1 NU5     -0.123400
      9 C26         2.6820   -7.6950    0.0560 c3        1 NU5      0.142400
     10 O4          3.1400   -8.7450   -0.7740 oh        1 NU5     -0.590800
     11 C19         2.2160    1.1590   -0.3880 ca        1 NU5     -0.543500
     12 C18         1.2680    1.6990   -1.2810 ca        1 NU5      0.036000
     13 C17         1.5260    2.8180   -2.0440 ca        1 NU5     -0.217000
     14 C16         2.7840    3.4760   -1.9560 ca        1 NU5      0.302600
     15 C21         3.7400    2.9500   -1.0290 ca        1 NU5     -0.217000
     16 C20         3.4510    1.8310   -0.2820 ca        1 NU5      0.036000
     17 N2          3.1370    4.5930   -2.6750 nh        1 NU5     -0.722300
     18 C2          2.4110    5.1870   -3.7460 ca        1 NU5      0.900900
     19 N1          1.7100    4.3430   -4.5980 nb        1 NU5     -0.817000
     20 C6          1.0710    4.9060   -5.6500 ca        1 NU5      0.752600
     21 C5          1.1150    6.3080   -5.8840 ca        1 NU5     -0.179200
     22 N7          0.5750    7.1590   -6.8560 nc        1 NU5     -0.498100
     23 C8          0.9910    8.3880   -6.5090 cd        1 NU5      0.415700
     24 N9          1.7920    8.4110   -5.3440 na        1 NU5     -0.370000
     25 C4          1.8890    7.0850   -4.9150 ca        1 NU5      0.455800
     26 N3          2.5390    6.5530   -3.8400 nb        1 NU5     -0.735000
     27 O6          0.3530    4.1680   -6.5450 os        1 NU5     -0.407100
     28 C9          0.3070    2.7370   -6.3590 c3        1 NU5      0.137400
     29 C10        -0.5610    2.2110   -7.4970 c3        1 NU5     -0.073700
     30 C15        -0.3270    0.7150   -7.6570 c3        1 NU5     -0.072400
     31 C14        -1.2000    0.1480   -8.7580 c3        1 NU5     -0.076900
     32 C13        -2.6650    0.4480   -8.5150 c3        1 NU5     -0.078400
     33 C12        -2.9000    1.9340   -8.3400 c3        1 NU5     -0.076900
     34 C11        -2.0310    2.5030   -7.2380 c3        1 NU5     -0.072400
     35 H221        1.9010   -1.3990   -1.4920 h1        1 NU5      0.111200
     36 H222        3.5350   -1.2750   -0.7460 h1        1 NU5      0.111200
     37 H231        1.1310   -2.9000    0.3930 hx        1 NU5      0.123700
     38 H232        2.7980   -2.7690    1.1600 hx        1 NU5      0.123700
     39 HN6         3.6960   -3.8210   -0.8350 hn        1 NU5      0.449300
     40 H241        1.3680   -5.3060    0.3060 hx        1 NU5      0.108700
     41 H242        3.0290   -5.1740    1.0660 hx        1 NU5      0.108700
     42 H251        4.0370   -6.3470   -0.9580 hc        1 NU5      0.082700
     43 H252        2.3930   -6.4770   -1.7090 hc        1 NU5      0.082700
     44 H261        3.2490   -7.6860    1.0250 h1        1 NU5      0.038700
     45 H262        1.5860   -7.8140    0.2700 h1        1 NU5      0.038700
     46 HO4         2.9890   -9.5710   -0.2950 ho        1 NU5      0.429000
     47 H18         0.2740    1.2200   -1.3510 ha        1 NU5      0.154500
     48 H17         0.7330    3.2000   -2.7070 ha        1 NU5      0.165000
     49 H21         4.7180    3.4430   -0.9040 ha        1 NU5      0.165000
     50 H20         4.2010    1.4520    0.4380 ha        1 NU5      0.154500
     51 HN2         3.9280    5.1150   -2.3520 hn        1 NU5      0.472800
     52 H8          0.7540    9.3130   -7.0520 h5        1 NU5      0.087800
     53 HN9         2.1950    9.1980   -4.9060 hn        1 NU5      0.327700
     54 H91         1.3480    2.3270   -6.4200 h1        1 NU5      0.050200
     55 H92        -0.1410    2.5070   -5.3580 h1        1 NU5      0.050200
     56 H10        -0.2560    2.7320   -8.4480 hc        1 NU5      0.078700
     57 H151        0.7510    0.5250   -7.8980 hc        1 NU5      0.040950
     58 H152       -0.5570    0.1970   -6.6890 hc        1 NU5      0.040950
     59 H141       -0.8880    0.5850   -9.7430 hc        1 NU5      0.046200
     60 H142       -1.0480   -0.9610   -8.8190 hc        1 NU5      0.046200
     61 H131       -3.2720    0.0710   -9.3790 hc        1 NU5      0.041700
     62 H132       -3.0120   -0.0960   -7.5980 hc        1 NU5      0.041700
     63 H121       -3.9790    2.1190   -8.0970 hc        1 NU5      0.046200
     64 H122       -2.6770    2.4650   -9.3040 hc        1 NU5      0.046200
     65 H111       -2.1760    3.6130   -7.1710 hc        1 NU5      0.040950
     66 H112       -2.3350    2.0600   -6.2540 hc        1 NU5      0.040950
     67 H62         2.1950   -3.9410   -1.5240 hn        1 NU5      0.449300
@<TRIPOS>BOND
     1    1    2 2   
     2    2    3 2   
     3    2    4 1   
     4    2   11 1   
     5    4    5 1   
     6    4   35 1   
     7    4   36 1   
     8    5    6 1   
     9    5   37 1   
    10    5   38 1   
    11    6    7 1   
    12    6   39 1   
    13    6   67 1   
    14    7    8 1   
    15    7   40 1   
    16    7   41 1   
    17    8    9 1   
    18    8   42 1   
    19    8   43 1   
    20    9   10 1   
    21    9   44 1   
    22    9   45 1   
    23   10   46 1   
    24   11   12 ar  
    25   11   16 ar  
    26   12   13 ar  
    27   12   47 1   
    28   13   14 ar  
    29   13   48 1   
    30   14   15 ar  
    31   14   17 1   
    32   15   16 ar  
    33   15   49 1   
    34   16   50 1   
    35   17   18 1   
    36   17   51 1   
    37   18   19 ar  
    38   18   26 ar  
    39   19   20 ar  
    40   20   21 ar  
    41   20   27 1   
    42   21   22 1   
    43   21   25 ar  
    44   22   23 2   
    45   23   24 1   
    46   23   52 1   
    47   24   25 1   
    48   24   53 1   
    49   25   26 ar  
    50   27   28 1   
    51   28   29 1   
    52   28   54 1   
    53   28   55 1   
    54   29   30 1   
    55   29   34 1   
    56   29   56 1   
    57   30   31 1   
    58   30   57 1   
    59   30   58 1   
    60   31   32 1   
    61   31   59 1   
    62   31   60 1   
    63   32   33 1   
    64   32   61 1   
    65   32   62 1   
    66   33   34 1   
    67   33   63 1   
    68   33   64 1   
    69   34   65 1   
    70   34   66 1   
@<TRIPOS>SUBSTRUCTURE
     1 NU5         1 TEMP              0 ****  ****    0 ROOT
