@<TRIPOS>MOLECULE
NU5
   66    69     1     0     0
SMALL
bcc


@<TRIPOS>ATOM
      1 O2          3.1240   -2.6440   -2.3150 o         1 NU5     -0.657800
      2 S1          2.8890   -3.0800   -1.0030 sy        1 NU5      1.395300
      3 O3          3.3750   -4.3470   -0.6460 o         1 NU5     -0.657800
      4 C22         3.5160   -1.9230    0.0970 c3        1 NU5     -0.317600
      5 C23         4.9990   -1.6750   -0.1560 c3        1 NU5      0.190800
      6 N6          5.5590   -0.6430    0.6930 n3        1 NU5     -0.817200
      7 C24         6.9920   -0.4950    0.5260 c3        1 NU5      0.163800
      8 C25         7.6210    0.4150    1.5760 c3        1 NU5     -0.089400
      9 C26         9.1010    0.5810    1.2800 c3        1 NU5      0.132400
     10 O4          9.6410    1.3850    2.3170 oh        1 NU5     -0.600800
     11 C19         1.2700   -2.9550   -0.6290 ca        1 NU5     -0.425500
     12 C18         0.4490   -2.0220   -1.2750 ca        1 NU5      0.006000
     13 C17        -0.9040   -1.9140   -0.9880 ca        1 NU5     -0.185500
     14 C16        -1.4910   -2.7540   -0.0150 ca        1 NU5      0.235600
     15 C21        -0.6680   -3.7190    0.6250 ca        1 NU5     -0.185500
     16 C20         0.6780   -3.8070    0.3140 ca        1 NU5      0.006000
     17 N2         -2.8590   -2.7450    0.2770 nh        1 NU5     -0.733300
     18 C2         -3.6520   -1.5910    0.4470 ca        1 NU5      0.927900
     19 N1         -3.0630   -0.3450    0.2490 nb        1 NU5     -0.827000
     20 C6         -3.8420    0.7510    0.3840 ca        1 NU5      0.759600
     21 C5         -5.2190    0.6500    0.7250 ca        1 NU5     -0.208200
     22 N7         -6.2540    1.5730    0.9310 nc        1 NU5     -0.499100
     23 C8         -7.3260    0.8270    1.2350 cd        1 NU5      0.394700
     24 N9         -7.0680   -0.5650    1.2480 na        1 NU5     -0.382000
     25 C4         -5.7170   -0.7120    0.9200 ca        1 NU5      0.471800
     26 N3         -4.9680   -1.8410    0.7960 nb        1 NU5     -0.768000
     27 O6         -3.3540    2.0140    0.2080 os        1 NU5     -0.415100
     28 C9         -1.9570    2.1520   -0.1310 c3        1 NU5      0.136400
     29 C10        -1.7230    3.6520   -0.2780 c3        1 NU5     -0.071700
     30 C15        -0.2290    3.9350   -0.2250 c3        1 NU5     -0.073900
     31 C14         0.0490    5.4130   -0.4060 c3        1 NU5     -0.075900
     32 C13        -0.5600    5.9380   -1.6900 c3        1 NU5     -0.078400
     33 C12        -2.0450    5.6470   -1.7540 c3        1 NU5     -0.075900
     34 C11        -2.3240    4.1690   -1.5770 c3        1 NU5     -0.073900
     35 H221        3.3730   -2.2610    1.1570 h1        1 NU5      0.114200
     36 H222        2.9710   -0.9450    0.0190 h1        1 NU5      0.114200
     37 H231        5.1320   -1.3370   -1.2260 h1        1 NU5      0.048200
     38 H232        5.5400   -2.6640   -0.0400 h1        1 NU5      0.048200
     39 HN6         5.3270   -0.8110    1.6540 hn        1 NU5      0.358800
     40 H241        7.1630   -0.0530   -0.4970 h1        1 NU5      0.032200
     41 H242        7.5270   -1.4920    0.5510 h1        1 NU5      0.032200
     42 H251        7.4950   -0.0170    2.6030 hc        1 NU5      0.062200
     43 H252        7.1280    1.4220    1.5740 hc        1 NU5      0.062200
     44 H261        9.2530    1.0820    0.2870 h1        1 NU5      0.022200
     45 H262        9.6180   -0.4170    1.2650 h1        1 NU5      0.022200
     46 HO4        10.5740    1.5100    2.1110 ho        1 NU5      0.401000
     47 H18         0.8890   -1.3690   -2.0500 ha        1 NU5      0.156500
     48 H17        -1.5090   -1.1750   -1.5380 ha        1 NU5      0.153500
     49 H21        -1.0930   -4.4070    1.3720 ha        1 NU5      0.153500
     50 H20         1.3030   -4.5710    0.8130 ha        1 NU5      0.156500
     51 HN2        -3.2200   -3.5790    0.6950 hn        1 NU5      0.457800
     52 H8         -8.3260    1.2180    1.4610 h5        1 NU5      0.076800
     53 HN9        -7.7060   -1.2920    1.4340 hn        1 NU5      0.319700
     54 H91        -1.3360    1.7270    0.7000 h1        1 NU5      0.055200
     55 H92        -1.7480    1.6070   -1.0860 h1        1 NU5      0.055200
     56 H10        -2.2270    4.1780    0.5820 hc        1 NU5      0.071700
     57 H151        0.1850    3.5940    0.7600 hc        1 NU5      0.044450
     58 H152        0.2900    3.3530   -1.0310 hc        1 NU5      0.044450
     59 H141       -0.3720    5.9810    0.4660 hc        1 NU5      0.042200
     60 H142        1.1570    5.5840   -0.4170 hc        1 NU5      0.042200
     61 H131       -0.3900    7.0440   -1.7600 hc        1 NU5      0.040200
     62 H132       -0.0480    5.4630   -2.5680 hc        1 NU5      0.040200
     63 H121       -2.5750    6.2260   -0.9530 hc        1 NU5      0.042200
     64 H122       -2.4530    5.9870   -2.7410 hc        1 NU5      0.042200
     65 H111       -1.8930    3.6000   -2.4420 hc        1 NU5      0.044450
     66 H112       -3.4300    3.9860   -1.5660 hc        1 NU5      0.044450
@<TRIPOS>BOND
     1    1    2 2   
     2    2    3 2   
     3    2    4 1   
     4    2   11 1   
     5    4    5 1   
     6    4   35 1   
     7    4   36 1   
     8    5    6 1   
     9    5   37 1   
    10    5   38 1   
    11    6    7 1   
    12    6   39 1   
    13    7    8 1   
    14    7   40 1   
    15    7   41 1   
    16    8    9 1   
    17    8   42 1   
    18    8   43 1   
    19    9   10 1   
    20    9   44 1   
    21    9   45 1   
    22   10   46 1   
    23   11   12 ar  
    24   11   16 ar  
    25   12   13 ar  
    26   12   47 1   
    27   13   14 ar  
    28   13   48 1   
    29   14   15 ar  
    30   14   17 1   
    31   15   16 ar  
    32   15   49 1   
    33   16   50 1   
    34   17   18 1   
    35   17   51 1   
    36   18   19 ar  
    37   18   26 ar  
    38   19   20 ar  
    39   20   21 ar  
    40   20   27 1   
    41   21   22 1   
    42   21   25 ar  
    43   22   23 2   
    44   23   24 1   
    45   23   52 1   
    46   24   25 1   
    47   24   53 1   
    48   25   26 ar  
    49   27   28 1   
    50   28   29 1   
    51   28   54 1   
    52   28   55 1   
    53   29   30 1   
    54   29   34 1   
    55   29   56 1   
    56   30   31 1   
    57   30   57 1   
    58   30   58 1   
    59   31   32 1   
    60   31   59 1   
    61   31   60 1   
    62   32   33 1   
    63   32   61 1   
    64   32   62 1   
    65   33   34 1   
    66   33   63 1   
    67   33   64 1   
    68   34   65 1   
    69   34   66 1   
@<TRIPOS>SUBSTRUCTURE
     1 NU5         1 TEMP              0 ****  ****    0 ROOT
