@<TRIPOS>MOLECULE
NU5
   68    71     1     0     0
SMALL
bcc


@<TRIPOS>ATOM
      1 O2          0.5340   -0.8610    0.9750 o         1 NU5     -0.610800
      2 S1          1.8140   -0.3480    0.8050 sy        1 NU5      1.386300
      3 O3          2.6640   -0.1660    1.8890 o         1 NU5     -0.610800
      4 C22         2.6400   -1.4780   -0.2600 c3        1 NU5     -0.326600
      5 C23         2.7740   -2.8100    0.4480 c3        1 NU5      0.127800
      6 N6          3.4640   -3.8510   -0.3660 n4        1 NU5     -0.757000
      7 C24         3.5750   -5.1520    0.3710 c3        1 NU5      0.106800
      8 C25         4.2790   -6.2110   -0.4600 c3        1 NU5     -0.126400
      9 C26         4.3620   -7.5100    0.3400 c3        1 NU5      0.144400
     10 O4          5.0270   -8.4240   -0.5110 oh        1 NU5     -0.589800
     11 C19         1.7730    1.0340   -0.1490 ca        1 NU5     -0.367500
     12 C18         0.6620    1.3070   -0.9580 ca        1 NU5      0.002500
     13 C17         0.5410    2.5170   -1.6390 ca        1 NU5     -0.113000
     14 C16         1.5550    3.4800   -1.5000 ca        1 NU5      0.044600
     15 C21         2.6940    3.2150   -0.7220 ca        1 NU5     -0.113000
     16 C20         2.7860    1.9960   -0.0530 ca        1 NU5      0.002500
     17 N2          1.4050    4.7910   -2.1440 n4        1 NU5     -0.622100
     18 C2          1.8130    4.7480   -3.5930 ca        1 NU5      0.737900
     19 N1          0.8270    4.3000   -4.4460 nb        1 NU5     -0.800000
     20 C6          1.1400    4.2770   -5.7710 ca        1 NU5      0.769600
     21 C5          2.4350    4.6860   -6.2190 ca        1 NU5     -0.120200
     22 N7          3.0340    4.7800   -7.4730 nc        1 NU5     -0.483100
     23 C8          4.2720    5.2620   -7.2350 cd        1 NU5      0.456700
     24 N9          4.5380    5.4900   -5.8690 na        1 NU5     -0.343000
     25 C4          3.3750    5.1320   -5.1840 ca        1 NU5      0.413800
     26 N3          3.0820    5.1620   -3.8470 nb        1 NU5     -0.674000
     27 O6          0.2700    3.8720   -6.7220 os        1 NU5     -0.383100
     28 C9         -1.0900    3.5460   -6.3330 c3        1 NU5      0.136400
     29 C10        -1.7980    3.1930   -7.6360 c3        1 NU5     -0.074700
     30 C15        -1.4240    1.7930   -8.0970 c3        1 NU5     -0.071900
     31 C14        -2.1690    1.4250   -9.3640 c3        1 NU5     -0.077900
     32 C13        -3.6670    1.5530   -9.1780 c3        1 NU5     -0.081400
     33 C12        -4.0450    2.9400   -8.7000 c3        1 NU5     -0.077900
     34 C11        -3.3030    3.3130   -7.4330 c3        1 NU5     -0.071900
     35 H221        2.0670   -1.5960   -1.2160 h1        1 NU5      0.121200
     36 H222        3.6490   -1.0770   -0.5380 h1        1 NU5      0.121200
     37 H231        1.7450   -3.2060    0.7110 hx        1 NU5      0.129700
     38 H232        3.3650   -2.6750    1.4050 hx        1 NU5      0.129700
     39 HN6         2.9460   -4.0030   -1.2400 hn        1 NU5      0.452800
     40 H241        2.5310   -5.4890    0.6350 hx        1 NU5      0.112700
     41 H242        4.1450   -4.9600    1.3260 hx        1 NU5      0.112700
     42 H251        5.3200   -5.8920   -0.7310 hc        1 NU5      0.085700
     43 H252        3.7240   -6.4160   -1.4150 hc        1 NU5      0.085700
     44 H261        4.9480   -7.3550    1.2850 h1        1 NU5      0.040700
     45 H262        3.3350   -7.8850    0.5950 h1        1 NU5      0.040700
     46 HO4         5.0960   -9.2610   -0.0310 ho        1 NU5      0.436000
     47 H18        -0.1580    0.5650   -1.0350 ha        1 NU5      0.188000
     48 H17        -0.3480    2.7030   -2.2680 ha        1 NU5      0.185000
     49 H21         3.5110    3.9530   -0.6190 ha        1 NU5      0.185000
     50 H20         3.6660    1.8060    0.5940 ha        1 NU5      0.188000
     51 HN2         0.4150    5.0830   -2.0940 hn        1 NU5      0.486800
     52 H8          5.0270    5.4690   -8.0110 h5        1 NU5      0.112800
     53 HN9         5.3620    5.8670   -5.4710 hn        1 NU5      0.343700
     54 H91        -1.5510    4.4440   -5.8470 h1        1 NU5      0.055700
     55 H92        -1.0670    2.6810   -5.6230 h1        1 NU5      0.055700
     56 H10        -1.4770    3.9280   -8.4290 hc        1 NU5      0.085700
     57 H151       -1.6700    1.0540   -7.2900 hc        1 NU5      0.040200
     58 H152       -0.3190    1.7480   -8.2780 hc        1 NU5      0.040200
     59 H141       -1.8360    2.0930  -10.2010 hc        1 NU5      0.052950
     60 H142       -1.9140    0.3710   -9.6520 hc        1 NU5      0.052950
     61 H131       -4.0200    0.7910   -8.4350 hc        1 NU5      0.049700
     62 H132       -4.1840    1.3400  -10.1500 hc        1 NU5      0.049700
     63 H121       -5.1490    2.9840   -8.5070 hc        1 NU5      0.052950
     64 H122       -3.8140    3.6890   -9.5030 hc        1 NU5      0.052950
     65 H111       -3.6220    2.6380   -6.5970 hc        1 NU5      0.040200
     66 H112       -3.5630    4.3650   -7.1430 hc        1 NU5      0.040200
     67 H62         4.4050   -3.5240   -0.6150 hn        1 NU5      0.452800
     68 H22         1.9880    5.4870   -1.6530 hn        1 NU5      0.486800
@<TRIPOS>BOND
     1    1    2 2   
     2    2    3 2   
     3    2    4 1   
     4    2   11 1   
     5    4    5 1   
     6    4   35 1   
     7    4   36 1   
     8    5    6 1   
     9    5   37 1   
    10    5   38 1   
    11    6    7 1   
    12    6   39 1   
    13    6   67 1   
    14    7    8 1   
    15    7   40 1   
    16    7   41 1   
    17    8    9 1   
    18    8   42 1   
    19    8   43 1   
    20    9   10 1   
    21    9   44 1   
    22    9   45 1   
    23   10   46 1   
    24   11   12 ar  
    25   11   16 ar  
    26   12   13 ar  
    27   12   47 1   
    28   13   14 ar  
    29   13   48 1   
    30   14   15 ar  
    31   14   17 1   
    32   15   16 ar  
    33   15   49 1   
    34   16   50 1   
    35   17   18 1   
    36   17   51 1   
    37   17   68 1   
    38   18   19 ar  
    39   18   26 ar  
    40   19   20 ar  
    41   20   21 ar  
    42   20   27 1   
    43   21   22 1   
    44   21   25 ar  
    45   22   23 2   
    46   23   24 1   
    47   23   52 1   
    48   24   25 1   
    49   24   53 1   
    50   25   26 ar  
    51   27   28 1   
    52   28   29 1   
    53   28   54 1   
    54   28   55 1   
    55   29   30 1   
    56   29   34 1   
    57   29   56 1   
    58   30   31 1   
    59   30   57 1   
    60   30   58 1   
    61   31   32 1   
    62   31   59 1   
    63   31   60 1   
    64   32   33 1   
    65   32   61 1   
    66   32   62 1   
    67   33   34 1   
    68   33   63 1   
    69   33   64 1   
    70   34   65 1   
    71   34   66 1   
@<TRIPOS>SUBSTRUCTURE
     1 NU5         1 TEMP              0 ****  ****    0 ROOT
