@<TRIPOS>MOLECULE
NU5
   66    60     1     0     0
SMALL
bcc


@<TRIPOS>ATOM
      1 O2         -1.6990   -2.1560    6.0500 o         1 NU5     -0.938500
      2 S1         -1.1000   -2.6360    4.8380 ss        1 NU5      2.855000
      3 O3         -0.0540   -3.4750    5.3550 o         1 NU5     -0.938500
      4 C22        -2.2700   -3.5820    3.8630 c2        1 NU5     -0.842000
      5 C23        -2.2850   -5.0530    4.3570 c3        1 NU5     -0.039000
      6 N6         -1.9130   -5.9330    3.2680 n3        1 NU5     -0.318000
      7 C24        -1.3920   -7.1790    3.8070 c3        1 NU5     -0.065000
      8 C25        -0.4000   -7.7920    2.8100 c3        1 NU5     -0.177000
      9 C26         0.3530   -8.9410    3.4790 c3        1 NU5     -0.017000
     10 O4          1.3040   -9.4730    2.5740 oh        1 NU5     -0.359000
     11 C19        -0.4290   -1.2850    3.8640 c1        1 NU5     -0.861000
     12 C18         0.9110   -1.2940    3.5000 c2        1 NU5      0.031000
     13 C17         1.4560   -0.2040    2.8280 c1        1 NU5     -0.156000
     14 C16         0.6620    0.8910    2.5230 c1        1 NU5      0.139000
     15 C21        -0.6780    0.9010    2.8880 c1        1 NU5     -0.208000
     16 C20        -1.2240   -0.1890    3.5590 c1        1 NU5      0.000000
     17 N2          1.2180    2.0020    1.7850 n3        1 NU5     -0.247000
     18 C2          1.1050    2.0390    0.3430 c2        1 NU5      0.195000
     19 N1          0.7350    3.0310   -0.5330 n2        1 NU5     -0.254000
     20 C6          0.9050    2.8580   -1.8570 c1        1 NU5      0.257000
     21 C5          1.4550    1.6720   -2.3400 c1        1 NU5     -0.259000
     22 N7          1.7200    1.2370   -3.5990 n1        1 NU5     -0.116000
     23 C8          2.2480   -0.0110   -3.5100 c1        1 NU5     -0.051000
     24 N9          2.3110   -0.3470   -2.2000 n2        1 NU5     -0.223000
     25 C4          1.8190    0.6950   -1.4740 c1        1 NU5      0.081000
     26 N3          1.6460    0.8750   -0.1280 n1        1 NU5     -0.239000
     27 O6          0.4850    3.9660   -2.6710 os        1 NU5     -0.179000
     28 C9          1.5280    4.5280   -3.4600 c3        1 NU5     -0.015000
     29 C10         0.9410    5.5960   -4.4080 c3        1 NU5     -0.104000
     30 C15         0.1010    4.9060   -5.4680 c3        1 NU5     -0.155000
     31 C14        -0.6610    5.8900   -6.3360 c3        1 NU5     -0.154000
     32 C13        -1.4630    6.8840   -5.5180 c3        1 NU5     -0.156000
     33 C12        -0.6260    7.5740   -4.4610 c3        1 NU5     -0.154000
     34 C11         0.1380    6.5900   -3.5910 c3        1 NU5     -0.155000
     35 H221       -2.0060   -3.5570    2.9230 ha        1 NU5      0.149500
     36 H222       -3.1690   -3.1940    3.9620 ha        1 NU5      0.149500
     37 H231       -1.6480   -5.1570    5.0920 h1        1 NU5      0.086500
     38 H232       -3.1900   -5.2850    4.6720 h1        1 NU5      0.086500
     39 HN6        -2.6480   -6.1080    2.7530 hn        1 NU5      0.161000
     40 H241       -2.1320   -7.8060    3.9580 h1        1 NU5      0.072000
     41 H242       -0.9360   -7.0030    4.6540 h1        1 NU5      0.072000
     42 H251       -0.8890   -8.1330    2.0290 hc        1 NU5      0.104500
     43 H252        0.2370   -7.1100    2.5230 hc        1 NU5      0.104500
     44 H261       -0.2820   -9.6420    3.7350 h1        1 NU5      0.069500
     45 H262        0.8110   -8.6100    4.2760 h1        1 NU5      0.069500
     46 HO4         1.9510   -9.8850    3.0290 ho        1 NU5      0.210000
     47 H18         1.4690   -2.0630    3.7140 ha        1 NU5      0.163000
     48 H17         2.4000   -0.2100    2.5720 ha        1 NU5      0.161000
     49 H21        -1.2370    1.6720    2.6730 ha        1 NU5      0.141000
     50 H20        -2.1690   -0.1820    3.8160 ha        1 NU5      0.152000
     51 HN2         1.6960    2.6480    2.2220 hn        1 NU5      0.250000
     52 H8          2.5720   -0.5520   -4.2580 DU        1 NU5      0.249000
     53 HN9         2.6270   -1.1360   -1.8620 DU        1 NU5      0.249000
     54 H91         2.1960    4.9440   -2.8730 h1        1 NU5      0.101000
     55 H92         1.9520    3.8240   -3.9870 h1        1 NU5      0.101000
     56 H10         1.6770    6.0690   -4.8470 hc        1 NU5      0.095000
     57 H151        0.6920    4.3690   -6.0410 hc        1 NU5      0.089000
     58 H152       -0.5390    4.3100   -5.0260 hc        1 NU5      0.089000
     59 H141       -0.0250    6.3800   -6.8920 hc        1 NU5      0.077250
     60 H142       -1.2730    5.3930   -6.9170 hc        1 NU5      0.077250
     61 H131       -2.1990    6.4130   -5.0800 hc        1 NU5      0.080000
     62 H132       -1.8350    7.5630   -6.1200 hc        1 NU5      0.080000
     63 H121        0.0140    8.1690   -4.9030 hc        1 NU5      0.077250
     64 H122       -1.2150    8.1090   -3.8900 hc        1 NU5      0.077250
     65 H111       -0.4980    6.1000   -3.0350 hc        1 NU5      0.089000
     66 H112        0.7480    7.0880   -3.0110 hc        1 NU5      0.089000
@<TRIPOS>BOND
     1    1    2 1   
     2    2    3 1   
     3    4    5 1   
     4    4   35 1   
     5    4   36 1   
     6    5    6 1   
     7    5   37 1   
     8    5   38 1   
     9    6    7 1   
    10    6   39 1   
    11    7    8 1   
    12    7   40 1   
    13    7   41 1   
    14    8    9 1   
    15    8   42 1   
    16    8   43 1   
    17    9   10 1   
    18    9   44 1   
    19    9   45 1   
    20   10   46 1   
    21   11   12 1   
    22   11   16 1   
    23   12   13 1   
    24   12   47 1   
    25   13   48 1   
    26   14   15 1   
    27   14   17 1   
    28   15   49 1   
    29   16   50 1   
    30   17   18 1   
    31   17   51 1   
    32   18   19 1   
    33   18   26 1   
    34   19   20 1   
    35   20   27 1   
    36   21   25 1   
    37   22   23 1   
    38   23   24 1   
    39   24   25 1   
    40   27   28 1   
    41   28   29 1   
    42   28   54 1   
    43   28   55 1   
    44   29   30 1   
    45   29   34 1   
    46   29   56 1   
    47   30   31 1   
    48   30   57 1   
    49   30   58 1   
    50   31   32 1   
    51   31   59 1   
    52   31   60 1   
    53   32   33 1   
    54   32   61 1   
    55   32   62 1   
    56   33   34 1   
    57   33   63 1   
    58   33   64 1   
    59   34   65 1   
    60   34   66 1   
@<TRIPOS>SUBSTRUCTURE
     1 NU5         1 TEMP              0 ****  ****    0 ROOT
