@<TRIPOS>MOLECULE
NU7
   62    63     1     0     0
SMALL
bcc


@<TRIPOS>ATOM
      1 C1          3.9120    0.3510   -0.3130 c3        1 NU7     -0.165000
      2 N2          4.3490    1.7070   -0.2800 n2        1 NU7     -0.189000
      3 F01        13.7330    5.1480   -4.1680 f         1 NU7     -0.130333
      4 F03        13.4290    3.0380   -4.6350 f         1 NU7     -0.130333
      5 F04        14.4330    3.6130   -2.7840 f         1 NU7     -0.130333
      6 C05        12.0500    3.9810   -2.8990 c2        1 NU7     -0.078000
      7 N06        10.8280    4.2460   -3.3390 n2        1 NU7     -0.099000
      8 C07        10.0210    4.1130   -2.1640 c2        1 NU7     -0.049000
      9 N08        10.7890    3.7730   -1.0910 n2        1 NU7      0.039000
     10 O09        12.0270    3.6870   -1.5090 os        1 NU7     -0.032000
     11 C10         8.5750    4.3280   -2.1590 c2        1 NU7     -0.128000
     12 C11         7.8320    4.1380   -3.2830 c2        1 NU7     -0.026000
     13 C12         6.3630    4.3460   -3.2750 c3        1 NU7     -0.242000
     14 C13         5.7200    4.6480   -2.0060 c1        1 NU7     -0.040000
     15 C14         6.5440    4.7080   -0.7970 c3        1 NU7     -0.320000
     16 C15         8.0030    4.8420   -0.9520 c1        1 NU7      0.005000
     17 C16         6.0350    5.7480    0.1820 c2        1 NU7      0.264000
     18 O17         4.9600    5.6290    0.7700 o         1 NU7     -0.328000
     19 N18         3.0460    5.7550    3.2600 n2        1 NU7     -0.314000
     20 C19         3.7870    6.0320    4.2550 c2        1 NU7     -0.080000
     21 C20         1.5710    4.1600    0.0310 c2        1 NU7     -0.176000
     22 C21         2.0640    2.7630   -0.1580 c3        1 NU7     -0.144000
     23 C22         3.5660    2.7140   -0.2070 c2        1 NU7     -0.088000
     24 C24         2.3110    4.8460   -2.2590 c3        1 NU7     -0.267000
     25 C25         1.6900    5.0980   -0.9570 c2        1 NU7      0.079000
     26 C26         1.0030    4.4870    1.3060 c2        1 NU7     -0.038000
     27 N27         0.4670    5.7330    1.5950 n2        1 NU7     -0.171000
     28 C28         0.0140    5.8010    2.8510 c2        1 NU7      0.183000
     29 C29         0.1720    4.5330    3.6600 c3        1 NU7     -0.398000
     30 S30         0.9400    3.3650    2.5610 ss        1 NU7      0.520000
     31 C31        -0.6020    6.9710    3.4370 ca        1 NU7     -0.118000
     32 C32        -1.0520    6.9390    4.7730 ca        1 NU7     -0.055500
     33 C33        -1.6450    8.0600    5.3390 ca        1 NU7     -0.142000
     34 C34        -1.7980    9.2300    4.5880 ca        1 NU7     -0.051000
     35 C35        -1.3550    9.2730    3.2670 ca        1 NU7     -0.142000
     36 C36        -0.7590    8.1530    2.6890 ca        1 NU7     -0.055500
     37 H1          2.7980    0.2060   -0.2920 h1        1 NU7      0.094000
     38 H1A         4.3600   -0.1810    0.5700 h1        1 NU7      0.094000
     39 H1B         4.3160   -0.1230   -1.2490 h1        1 NU7      0.094000
     40 H11         5.8520    3.4280   -3.7020 hc        1 NU7      0.179500
     41 H12         8.2820    3.8460   -4.2480 ha        1 NU7      0.169000
     42 H13         6.1000    5.1890   -3.9890 hc        1 NU7      0.179500
     43 H15         6.3810    3.6780   -0.3040 hc        1 NU7      0.244000
     44 HN18        6.7210    6.6080    0.3420 h4        1 NU7      0.140000
     45 H19         3.4270    5.9400    2.3540 hn        1 NU7      0.168000
     46 H19A        3.4000    5.8400    5.2750 h4        1 NU7      0.113500
     47 H21         4.8100    6.4570    4.2230 h4        1 NU7      0.113500
     48 H21A        1.6880    2.0860    0.6610 hc        1 NU7      0.112000
     49 H22         1.6490    2.3520   -1.1220 hc        1 NU7      0.112000
     50 H22A        4.0620    3.7150   -0.1920 h4        1 NU7      0.172000
     51 H24         2.0450    3.8370   -2.6640 hc        1 NU7      0.133667
     52 H24A        2.0140    5.6240   -3.0050 hc        1 NU7      0.133667
     53 H25         3.4400    4.8780   -2.1440 hc        1 NU7      0.133667
     54 H25A        1.3290    6.1330   -0.7920 ha        1 NU7      0.159000
     55 H29        -0.8150    4.1490    4.0220 h1        1 NU7      0.195500
     56 H32         0.8350    4.7160    4.5460 h1        1 NU7      0.195500
     57 H33        -0.9370    6.0270    5.3790 ha        1 NU7      0.149500
     58 H34        -1.9950    8.0290    6.3830 ha        1 NU7      0.159500
     59 H35        -2.2700   10.1170    5.0420 ha        1 NU7      0.159000
     60 H36        -1.4740   10.1940    2.6740 ha        1 NU7      0.159500
     61 H182       -0.4120    8.2040    1.6430 ha        1 NU7      0.149500
     62 C02        13.3960    3.9450   -3.6100 c3        1 NU7      0.531000
@<TRIPOS>BOND
     1    1    2 1   
     2    1   37 1   
     3    1   38 1   
     4    1   39 1   
     5    2   23 1   
     6    3   62 1   
     7    4   62 1   
     8    5   62 1   
     9    6    7 1   
    10    6   10 1   
    11    6   62 1   
    12    7    8 1   
    13    8    9 1   
    14    8   11 1   
    15    9   10 1   
    16   11   12 1   
    17   11   16 1   
    18   12   13 1   
    19   12   41 1   
    20   13   14 1   
    21   13   40 1   
    22   13   42 1   
    23   14   15 1   
    24   15   16 1   
    25   15   17 1   
    26   15   43 1   
    27   17   18 1   
    28   17   44 1   
    29   19   20 1   
    30   19   45 1   
    31   20   46 1   
    32   20   47 1   
    33   21   22 1   
    34   21   25 1   
    35   21   26 1   
    36   22   23 1   
    37   22   48 1   
    38   22   49 1   
    39   23   50 1   
    40   24   25 1   
    41   24   51 1   
    42   24   52 1   
    43   24   53 1   
    44   25   54 1   
    45   26   27 1   
    46   26   30 1   
    47   27   28 1   
    48   28   29 1   
    49   28   31 1   
    50   29   30 1   
    51   29   55 1   
    52   29   56 1   
    53   31   32 1   
    54   31   36 1   
    55   32   33 1   
    56   32   57 1   
    57   33   34 1   
    58   33   58 1   
    59   34   35 1   
    60   34   59 1   
    61   35   36 1   
    62   35   60 1   
    63   36   61 1   
@<TRIPOS>SUBSTRUCTURE
     1 NU7         1 TEMP              0 ****  ****    0 ROOT
