@<TRIPOS>MOLECULE
NU7
   61    58     1     0     0
SMALL
bcc


@<TRIPOS>ATOM
      1 C1         -3.6270   -3.6950   -2.8290 c3        1 NU7     -0.127000
      2 N2         -2.1890   -3.7120   -2.8790 n3        1 NU7     -0.245000
      3 F01        10.1880    1.7930    2.5360 f         1 NU7     -0.135667
      4 C02         9.8900    0.6110    1.8570 c3        1 NU7      0.530000
      5 F03         9.9430    0.8200    0.5950 f         1 NU7     -0.135667
      6 F04        10.7620   -0.3110    2.1840 f         1 NU7     -0.135667
      7 C05         8.4750    0.1330    2.2380 c2        1 NU7     -0.087000
      8 N06         7.3320    0.6110    1.7510 n2        1 NU7     -0.087000
      9 C07         6.3190   -0.0050    2.3840 c1        1 NU7     -0.037000
     10 N08         6.8530   -0.8780    3.2790 n2        1 NU7     -0.002000
     11 O09         8.1710   -0.7960    3.1920 os        1 NU7     -0.038000
     12 C10         4.8200    0.2340    2.1370 c1        1 NU7     -0.031000
     13 C11         4.1800    1.3540    2.7140 c2        1 NU7     -0.085500
     14 C12         2.8660    1.6240    2.4150 c1        1 NU7     -0.142500
     15 C13         2.1640    0.7920    1.5400 c1        1 NU7     -0.077000
     16 C14         2.7960   -0.3120    0.9710 c1        1 NU7     -0.126000
     17 C15         4.1290   -0.5850    1.2770 c1        1 NU7     -0.077500
     18 C16         2.0370   -1.2150   -0.0160 c2        1 NU7      0.342000
     19 O17         2.6190   -2.2210   -0.5340 o         1 NU7     -0.364000
     20 N18         0.6550   -1.0100   -0.2420 n         1 NU7     -0.356000
     21 C19         0.0850   -1.2180   -1.6160 c3        1 NU7     -0.024000
     22 C20        -1.4660   -1.2070   -1.5540 c3        1 NU7      0.001000
     23 C21        -1.9320   -2.3880   -0.7760 c3        1 NU7     -0.188000
     24 C22        -1.6750   -3.7270   -1.5250 c3        1 NU7     -0.074500
     25 C24        -1.7290   -2.5560   -3.6470 c3        1 NU7     -0.074500
     26 C25        -1.9850   -1.2020   -2.9060 c3        1 NU7     -0.188000
     27 C26        -1.9500    0.1110   -0.8220 c2        1 NU7     -0.278000
     28 N27        -3.3210    0.5670   -0.7070 n2        1 NU7     -0.121000
     29 C28        -3.3310    1.8750    0.0660 c1        1 NU7     -0.040000
     30 C29        -1.9520    2.2090    0.4190 c1        1 NU7     -0.458000
     31 S30        -1.0610    1.1220   -0.1240 ss        1 NU7      0.525000
     32 C31        -4.5480    2.6990    0.3820 c1        1 NU7     -0.031000
     33 C32        -5.4040    2.3190    1.4530 c2        1 NU7     -0.085500
     34 C33        -6.4970    3.1760    1.8430 c1        1 NU7     -0.142500
     35 C34        -6.7100    4.3510    1.1850 c1        1 NU7     -0.127500
     36 C35        -5.8300    4.7450    0.0820 c1        1 NU7     -0.127500
     37 C36        -4.7680    3.9130   -0.2990 c1        1 NU7     -0.077500
     38 H1         -3.9130   -2.8680   -2.5600 h1        1 NU7      0.072333
     39 H1A        -3.9920   -3.8950   -3.7240 h1        1 NU7      0.072333
     40 H1B        -3.9370   -4.3670   -2.1980 h1        1 NU7      0.072333
     41 H11         4.6760    1.9460    3.3320 ha        1 NU7      0.150000
     42 H12         2.4560    2.3440    2.7840 ha        1 NU7      0.139000
     43 H13         1.2350    0.9830    1.3290 ha        1 NU7      0.158000
     44 H15         4.5290   -1.2820    0.9160 ha        1 NU7      0.154000
     45 HN18        0.0910   -0.6990    0.4770 hn        1 NU7      0.231000
     46 H19         0.3700   -2.0150   -1.9450 h1        1 NU7      0.109000
     47 H19A        0.3740   -0.5330   -2.1750 h1        1 NU7      0.109000
     48 H21        -1.4540   -2.4080    0.1000 hc        1 NU7      0.095250
     49 H21A       -2.9370   -2.2950   -0.6050 hc        1 NU7      0.095250
     50 H22        -0.6370   -3.9090   -1.5540 h1        1 NU7      0.096250
     51 H22A       -2.0880   -4.4120   -1.0560 h1        1 NU7      0.096250
     52 H24        -2.2130   -2.5390   -4.5390 h1        1 NU7      0.096250
     53 H24A       -0.7960   -2.6450   -3.8060 h1        1 NU7      0.096250
     54 H25        -1.5250   -0.4350   -3.4350 hc        1 NU7      0.095250
     55 H25A       -2.9800   -1.0300   -2.8750 hc        1 NU7      0.095250
     56 H29        -1.6450    3.0380    0.9430 DU        1 NU7      0.185000
     57 H32        -5.2420    1.4220    1.9550 ha        1 NU7      0.150000
     58 H33        -7.0810    2.9170    2.5730 ha        1 NU7      0.139000
     59 H34        -7.4360    4.9180    1.4460 ha        1 NU7      0.134000
     60 H35        -5.9800    5.5700   -0.3800 ha        1 NU7      0.134000
     61 H36        -4.1840    4.1740   -1.0300 ha        1 NU7      0.154000
@<TRIPOS>BOND
     1    1    2 1   
     2    1   38 1   
     3    1   39 1   
     4    1   40 1   
     5    2   24 1   
     6    2   25 1   
     7    3    4 1   
     8    4    5 1   
     9    4    6 1   
    10    4    7 1   
    11    7    8 1   
    12    7   11 1   
    13    8    9 1   
    14    9   10 1   
    15   10   11 1   
    16   12   13 1   
    17   12   17 1   
    18   13   14 1   
    19   13   41 1   
    20   14   42 1   
    21   15   16 1   
    22   15   43 1   
    23   16   18 1   
    24   17   44 1   
    25   18   19 1   
    26   18   20 1   
    27   20   21 1   
    28   20   45 1   
    29   21   22 1   
    30   21   46 1   
    31   21   47 1   
    32   22   23 1   
    33   22   26 1   
    34   22   27 1   
    35   23   24 1   
    36   23   48 1   
    37   23   49 1   
    38   24   50 1   
    39   24   51 1   
    40   25   26 1   
    41   25   52 1   
    42   25   53 1   
    43   26   54 1   
    44   26   55 1   
    45   27   28 1   
    46   27   31 1   
    47   28   29 1   
    48   29   30 1   
    49   30   31 1   
    50   32   33 1   
    51   32   37 1   
    52   33   34 1   
    53   33   57 1   
    54   34   58 1   
    55   35   36 1   
    56   35   59 1   
    57   36   60 1   
    58   37   61 1   
@<TRIPOS>SUBSTRUCTURE
     1 NU7         1 TEMP              0 ****  ****    0 ROOT
