@<TRIPOS>MOLECULE
NU7
   61    65     1     0     0
SMALL
bcc


@<TRIPOS>ATOM
      1 C1          6.9520   -3.4440    1.4450 c3        1 NU7      0.149100
      2 N2          5.6010   -3.8160    1.0850 n3        1 NU7     -0.719600
      3 F01        -8.4470    0.9970   -1.3800 f         1 NU7     -0.206967
      4 F03        -8.7250    0.1690    0.6170 f         1 NU7     -0.206967
      5 F04        -8.8830   -1.1240   -1.1310 f         1 NU7     -0.206967
      6 C05        -6.6690   -0.3830   -0.5150 cc        1 NU7      0.399700
      7 N06        -5.6560    0.3420   -0.0640 nd        1 NU7     -0.613000
      8 C07        -4.5220   -0.5110   -0.2670 cd        1 NU7      0.596500
      9 N08        -4.9160   -1.6930   -0.8220 nc        1 NU7     -0.337300
     10 O09        -6.2140   -1.6430   -0.9850 os        1 NU7     -0.095100
     11 C10        -3.1580   -0.1290    0.0840 ca        1 NU7     -0.154500
     12 C11        -2.9260    0.9500    0.9510 ca        1 NU7     -0.066000
     13 C12        -1.6200    1.3080    1.2770 ca        1 NU7     -0.147000
     14 C13        -0.5390    0.5970    0.7570 ca        1 NU7     -0.077000
     15 C14        -0.7690   -0.4810   -0.1010 ca        1 NU7     -0.146600
     16 C15        -2.0760   -0.8420   -0.4490 ca        1 NU7     -0.041000
     17 C16         0.3530   -1.2600   -0.7050 c         1 NU7      0.668700
     18 O17         0.3160   -1.6310   -1.8960 o         1 NU7     -0.603100
     19 N18         1.3930   -1.6220    0.1340 n         1 NU7     -0.547900
     20 C19         2.5700   -2.2700   -0.3690 c3        1 NU7      0.092000
     21 C20         3.9190   -1.5930   -0.0140 c3        1 NU7     -0.093300
     22 C21         5.0260   -2.2730   -0.8300 c3        1 NU7     -0.109400
     23 C22         5.3220   -3.6900   -0.3370 c3        1 NU7      0.162300
     24 C24         4.5820   -3.1560    1.8850 c3        1 NU7      0.162300
     25 C25         4.2360   -1.7230    1.4780 c3        1 NU7     -0.109400
     26 C26         3.8680   -0.1400   -0.3900 cc        1 NU7      0.393700
     27 N27         3.2150    0.7970    0.3000 nd        1 NU7     -0.647000
     28 C28         3.3650    2.0350   -0.3280 cd        1 NU7      0.395800
     29 C29         4.1360    1.9950   -1.4910 cc        1 NU7     -0.253400
     30 S30         4.6710    0.4510   -1.7980 ss        1 NU7     -0.059300
     31 C31         2.7610    3.2500    0.2110 ca        1 NU7     -0.122500
     32 C32         2.3200    4.2530   -0.6650 ca        1 NU7     -0.109500
     33 C33         1.7570    5.4230   -0.1620 ca        1 NU7     -0.135000
     34 C34         1.6290    5.6040    1.2150 ca        1 NU7     -0.123000
     35 C35         2.0630    4.6090    2.0900 ca        1 NU7     -0.135000
     36 C36         2.6260    3.4340    1.5940 ca        1 NU7     -0.109500
     37 H1          7.1820   -2.3580    1.2680 h1        1 NU7      0.033033
     38 H1A         7.1090   -3.6690    2.5320 h1        1 NU7      0.033033
     39 H1B         7.6690   -4.0630    0.8450 h1        1 NU7      0.033033
     40 H11        -3.7680    1.5210    1.3730 ha        1 NU7      0.156000
     41 H12        -1.4400    2.1620    1.9480 ha        1 NU7      0.145000
     42 H13         0.4880    0.9050    1.0120 ha        1 NU7      0.158000
     43 H15        -2.2300   -1.6790   -1.1510 ha        1 NU7      0.172000
     44 HN18        1.4620   -1.1780    1.0200 hn        1 NU7      0.317500
     45 H19         2.5950   -3.3170    0.0550 h1        1 NU7      0.069700
     46 H19A        2.4930   -2.3530   -1.4920 h1        1 NU7      0.069700
     47 H21         4.7290   -2.3220   -1.9100 hc        1 NU7      0.055950
     48 H21A        5.9610   -1.6550   -0.7570 hc        1 NU7      0.055950
     49 H22         6.1960   -4.0950   -0.9180 h1        1 NU7      0.056950
     50 H22A        4.4310   -4.3460   -0.5530 h1        1 NU7      0.056950
     51 H24         3.6550   -3.7950    1.8190 h1        1 NU7      0.056950
     52 H24A        4.9130   -3.1490    2.9620 h1        1 NU7      0.056950
     53 H25         5.1010   -1.0510    1.7190 hc        1 NU7      0.055950
     54 H25A        3.3650   -1.3780    2.0920 hc        1 NU7      0.055950
     55 H29         4.3680    2.8590   -2.1110 h4        1 NU7      0.185000
     56 H32         2.4130    4.1100   -1.7520 ha        1 NU7      0.140000
     57 H33         1.4120    6.2050   -0.8540 ha        1 NU7      0.134000
     58 H34         1.1850    6.5300    1.6100 ha        1 NU7      0.133000
     59 H35         1.9640    4.7500    3.1760 ha        1 NU7      0.134000
     60 H36         2.9680    2.6540    2.2910 ha        1 NU7      0.140000
     61 C02        -8.1580   -0.0910   -0.6020 c3        1 NU7      0.649600
@<TRIPOS>BOND
     1    1    2 1   
     2    1   37 1   
     3    1   38 1   
     4    1   39 1   
     5    2   23 1   
     6    2   24 1   
     7    3   61 1   
     8    4   61 1   
     9    5   61 1   
    10    6    7 2   
    11    6   10 1   
    12    6   61 1   
    13    7    8 1   
    14    8    9 2   
    15    8   11 1   
    16    9   10 1   
    17   11   12 ar  
    18   11   16 ar  
    19   12   13 ar  
    20   12   40 1   
    21   13   14 ar  
    22   13   41 1   
    23   14   15 ar  
    24   14   42 1   
    25   15   16 ar  
    26   15   17 1   
    27   16   43 1   
    28   17   18 2   
    29   17   19 1   
    30   19   20 1   
    31   19   44 1   
    32   20   21 1   
    33   20   45 1   
    34   20   46 1   
    35   21   22 1   
    36   21   25 1   
    37   21   26 1   
    38   22   23 1   
    39   22   47 1   
    40   22   48 1   
    41   23   49 1   
    42   23   50 1   
    43   24   25 1   
    44   24   51 1   
    45   24   52 1   
    46   25   53 1   
    47   25   54 1   
    48   26   27 2   
    49   26   30 1   
    50   27   28 1   
    51   28   29 2   
    52   28   31 1   
    53   29   30 1   
    54   29   55 1   
    55   31   32 ar  
    56   31   36 ar  
    57   32   33 ar  
    58   32   56 1   
    59   33   34 ar  
    60   33   57 1   
    61   34   35 ar  
    62   34   58 1   
    63   35   36 ar  
    64   35   59 1   
    65   36   60 1   
@<TRIPOS>SUBSTRUCTURE
     1 NU7         1 TEMP              0 ****  ****    0 ROOT
