@<TRIPOS>MOLECULE
NU7
   62    63     1     0     0
SMALL
bcc


@<TRIPOS>ATOM
      1 C1          1.0710   -1.5420    3.2270 c2        1 NU7     -0.084000
      2 N2          0.8230   -0.3270    2.9270 n2        1 NU7     -0.233000
      3 F01        14.3760    6.3730   -1.6440 f         1 NU7     -0.129667
      4 F03        13.7630    5.4940   -3.5450 f         1 NU7     -0.129667
      5 F04        14.1810    4.2060   -1.8330 f         1 NU7     -0.129667
      6 C05        12.1380    5.4890   -1.7680 c2        1 NU7     -0.077000
      7 N06        11.2370    6.4470   -1.9310 n2        1 NU7     -0.098000
      8 C07        10.0710    5.9130   -1.2950 c2        1 NU7     -0.049000
      9 N08        10.3270    4.6720   -0.7910 n2        1 NU7      0.035000
     10 O09        11.5750    4.3910   -1.0640 os        1 NU7     -0.032000
     11 C10         8.8030    6.6340   -1.2120 c2        1 NU7     -0.131000
     12 C11         8.4520    7.5500   -2.1560 c2        1 NU7     -0.024000
     13 C12         7.1570    8.2700   -2.0820 c3        1 NU7     -0.247000
     14 C13         6.2130    7.8780   -1.0480 c1        1 NU7     -0.038000
     15 C14         6.5910    6.8090   -0.1180 c3        1 NU7     -0.315000
     16 C15         8.0080    6.4100   -0.0440 c1        1 NU7      0.002000
     17 C16         6.0680    7.0920    1.2780 c2        1 NU7      0.274000
     18 O17         4.9000    6.8740    1.5960 o         1 NU7     -0.333000
     19 N18         3.1230    8.5440   -0.6100 n2        1 NU7     -0.286000
     20 C19         3.3550    9.2520   -1.6400 c2        1 NU7     -0.092000
     21 C20         0.4420    1.3450    0.5620 c2        1 NU7     -0.084000
     22 C21        -0.6690    0.5320    1.1240 c3        1 NU7     -0.118000
     23 C22        -0.5050    0.1170    2.5880 c3        1 NU7     -0.110000
     24 C24         0.5880    0.0320   -1.5630 c3        1 NU7     -0.202000
     25 C25         0.9770    1.1250   -0.6540 c2        1 NU7     -0.089000
     26 C26         0.9300    2.4700    1.3610 c2        1 NU7     -0.253000
     27 N27         0.7480    3.7500    1.0400 n2        1 NU7     -0.058000
     28 C28         1.3790    4.5660    1.9880 c2        1 NU7     -0.171000
     29 C29         2.0380    3.8330    3.0060 c2        1 NU7     -0.473000
     30 S30         1.8650    2.2310    2.8030 ss        1 NU7      0.798000
     31 C31         1.3380    5.9940    1.9030 c2        1 NU7      0.222000
     32 C32         1.9970    6.7760    2.9740 c3        1 NU7     -0.204000
     33 C33         1.8190    8.2360    2.9060 c2        1 NU7     -0.027000
     34 C34         1.1900    8.8370    1.8620 c2        1 NU7     -0.181000
     35 C35         0.6660    8.0480    0.7990 c2        1 NU7      0.131000
     36 C36         0.7160    6.6630    0.8410 c2        1 NU7     -0.213000
     37 H1         -0.5010    0.0960   -1.8170 hc        1 NU7      0.097000
     38 H1A         0.3420   -2.3760    3.2530 h4        1 NU7      0.124000
     39 H1B         2.1110   -1.8070    3.4960 h4        1 NU7      0.124000
     40 H11         6.6240    8.1930   -3.0790 hc        1 NU7      0.184000
     41 H12         9.1160    7.8150   -2.9980 ha        1 NU7      0.171000
     42 H13         7.3500    9.3810   -1.9420 hc        1 NU7      0.184000
     43 H15         6.0280    5.8890   -0.5120 hc        1 NU7      0.223000
     44 HN18        6.8260    7.4860    1.9890 h4        1 NU7      0.136000
     45 H19         0.2650    6.0820    0.0150 ha        1 NU7      0.192000
     46 H19A        4.3370    9.3720   -2.1420 h4        1 NU7      0.108000
     47 H21         2.5210    9.8140   -2.1020 h4        1 NU7      0.108000
     48 H21A       -0.8000   -0.3950    0.5020 hc        1 NU7      0.106500
     49 H22        -1.6220    1.1250    1.0460 hc        1 NU7      0.106500
     50 H22A       -1.3040   -0.6510    2.8110 h1        1 NU7      0.090000
     51 H24        -0.7110    1.0100    3.2480 h1        1 NU7      0.090000
     52 H24A        1.1710    0.0820   -2.5150 hc        1 NU7      0.097000
     53 H25         0.7770   -0.9650   -1.0900 hc        1 NU7      0.097000
     54 H25A        1.7690    1.7960   -1.0330 ha        1 NU7      0.130000
     55 H29         2.5910    4.3040    3.8220 h4        1 NU7      0.189000
     56 H32         1.6740    6.4000    3.9900 hc        1 NU7      0.195500
     57 H33         3.1200    6.5720    2.9020 hc        1 NU7      0.195500
     58 H34         2.2480    8.8200    3.7380 ha        1 NU7      0.165000
     59 H35         1.0910    9.9340    1.8060 ha        1 NU7      0.173000
     60 H36         0.2030    8.5580   -0.0650 ha        1 NU7      0.173000
     61 H182        3.9110    8.0540   -0.2280 hn        1 NU7      0.161000
     62 C02        13.5980    5.3900   -2.1910 c3        1 NU7      0.531000
@<TRIPOS>BOND
     1    1    2 1   
     2    1   38 1   
     3    1   39 1   
     4    2   23 1   
     5    3   62 1   
     6    4   62 1   
     7    5   62 1   
     8    6    7 1   
     9    6   10 1   
    10    6   62 1   
    11    7    8 1   
    12    8    9 1   
    13    8   11 1   
    14    9   10 1   
    15   11   12 1   
    16   11   16 1   
    17   12   13 1   
    18   12   41 1   
    19   13   14 1   
    20   13   40 1   
    21   13   42 1   
    22   14   15 1   
    23   15   16 1   
    24   15   17 1   
    25   15   43 1   
    26   17   18 1   
    27   17   44 1   
    28   19   20 1   
    29   19   61 1   
    30   20   46 1   
    31   20   47 1   
    32   21   22 1   
    33   21   25 1   
    34   21   26 1   
    35   22   23 1   
    36   22   48 1   
    37   22   49 1   
    38   23   50 1   
    39   23   51 1   
    40   24   25 1   
    41   24   37 1   
    42   24   52 1   
    43   24   53 1   
    44   25   54 1   
    45   26   27 1   
    46   26   30 1   
    47   27   28 1   
    48   28   29 1   
    49   28   31 1   
    50   29   30 1   
    51   29   55 1   
    52   31   32 1   
    53   31   36 1   
    54   32   33 1   
    55   32   56 1   
    56   32   57 1   
    57   33   34 1   
    58   33   58 1   
    59   34   35 1   
    60   34   59 1   
    61   35   36 1   
    62   35   60 1   
    63   36   45 1   
@<TRIPOS>SUBSTRUCTURE
     1 NU7         1 TEMP              0 ****  ****    0 ROOT
