@<TRIPOS>MOLECULE
NU9
   57    61     1     0     0
SMALL
bcc


@<TRIPOS>ATOM
      1 F01        -8.5360    0.1680   -0.8940 f         1 NU9     -0.206300
      2 C02        -7.9580    0.0660    0.3430 c3        1 NU9      0.649600
      3 F03        -8.2000    1.2640    0.9610 f         1 NU9     -0.206300
      4 F04        -8.7050   -0.8570    1.0230 f         1 NU9     -0.206300
      5 C05        -6.4800   -0.2830    0.2810 cc        1 NU9      0.400700
      6 N06        -5.4530    0.3380   -0.2800 nd        1 NU9     -0.613000
      7 C07        -4.3420   -0.5130    0.0290 cd        1 NU9      0.594500
      8 N08        -4.7620   -1.5920    0.7510 nc        1 NU9     -0.335300
      9 O09        -6.0560   -1.4770    0.9210 os        1 NU9     -0.094100
     10 C10        -2.9730   -0.2290   -0.3890 ca        1 NU9     -0.152500
     11 C11        -2.7240    0.6950   -1.4150 ca        1 NU9     -0.066000
     12 C12        -1.4130    0.9620   -1.8030 ca        1 NU9     -0.150000
     13 C13        -0.3440    0.3130   -1.1850 ca        1 NU9     -0.084000
     14 C14        -0.5910   -0.6150   -0.1700 ca        1 NU9     -0.144600
     15 C15        -1.9030   -0.8810    0.2390 ca        1 NU9     -0.040000
     16 C16         0.5120   -1.3370    0.5320 c         1 NU9      0.668700
     17 O17         0.4310   -1.6180    1.7460 o         1 NU9     -0.601100
     18 N18         1.5800   -1.7650   -0.2400 n         1 NU9     -0.542900
     19 C19         2.7320   -2.3800    0.3510 c3        1 NU9      0.093000
     20 C20         4.1020   -1.7600   -0.0210 c3        1 NU9     -0.094300
     21 C21         5.1910   -2.5280    0.7420 c3        1 NU9     -0.111400
     22 C22         5.4090   -3.9250    0.1890 c3        1 NU9      0.125900
     23 O23         5.6750   -3.9150   -1.2070 os        1 NU9     -0.410600
     24 C24         4.6410   -3.2930   -1.9610 c3        1 NU9      0.125900
     25 C25         4.3980   -1.8610   -1.5200 c3        1 NU9     -0.111400
     26 C26         4.1420   -0.3180    0.3910 cc        1 NU9      0.390700
     27 N27         3.3820    0.6460   -0.1320 nd        1 NU9     -0.639000
     28 C28         3.7080    1.8690    0.4600 cd        1 NU9      0.398800
     29 C29         4.7090    1.7890    1.4280 cc        1 NU9     -0.254400
     30 S30         5.2440    0.2260    1.6030 ss        1 NU9     -0.062300
     31 C31         3.0550    3.1190    0.0810 ca        1 NU9     -0.120500
     32 C32         3.8200    4.2910   -0.0170 ca        1 NU9     -0.109500
     33 C33         3.2100    5.4970   -0.3560 ca        1 NU9     -0.133500
     34 C34         1.8370    5.5450   -0.5980 ca        1 NU9     -0.122000
     35 C35         1.0740    4.3820   -0.5020 ca        1 NU9     -0.133500
     36 C36         1.6780    3.1710   -0.1660 ca        1 NU9     -0.109500
     37 H11        -3.5570    1.2130   -1.9170 ha        1 NU9      0.157000
     38 H12        -1.2200    1.6930   -2.6030 ha        1 NU9      0.145000
     39 H13         0.6870    0.5530   -1.4950 ha        1 NU9      0.154000
     40 H15        -2.0700   -1.5970    1.0620 ha        1 NU9      0.175000
     41 HN18        1.6960   -1.3620   -1.1410 hn        1 NU9      0.314500
     42 H19         2.6270   -2.3640    1.4750 h1        1 NU9      0.067700
     43 H19A        2.7490   -3.4600    0.0180 h1        1 NU9      0.067700
     44 H21         6.1570   -1.9590    0.6600 hc        1 NU9      0.062200
     45 H21A        4.9180   -2.6020    1.8270 hc        1 NU9      0.062200
     46 H22         6.3300   -4.3870    0.6370 h1        1 NU9      0.053450
     47 H22A        4.5210   -4.5810    0.3990 h1        1 NU9      0.053450
     48 H24         5.0230   -3.3220   -3.0170 h1        1 NU9      0.053450
     49 H24A        3.7010   -3.9030   -1.8850 h1        1 NU9      0.053450
     50 H25         3.5620   -1.4260   -2.1230 hc        1 NU9      0.062200
     51 H25A        5.3170   -1.2550   -1.7390 hc        1 NU9      0.062200
     52 H29         5.0840    2.6360    2.0000 h4        1 NU9      0.186000
     53 H32         4.9030    4.2540    0.1710 ha        1 NU9      0.138500
     54 H33         3.8150    6.4130   -0.4320 ha        1 NU9      0.133000
     55 H34         1.3580    6.4990   -0.8630 ha        1 NU9      0.133000
     56 H35        -0.0090    4.4180   -0.6870 ha        1 NU9      0.133000
     57 H36         1.0690    2.2570   -0.0870 ha        1 NU9      0.138500
@<TRIPOS>BOND
     1    1    2 1   
     2    2    3 1   
     3    2    4 1   
     4    2    5 1   
     5    5    6 2   
     6    5    9 1   
     7    6    7 1   
     8    7    8 2   
     9    7   10 1   
    10    8    9 1   
    11   10   11 ar  
    12   10   15 ar  
    13   11   12 ar  
    14   11   37 1   
    15   12   13 ar  
    16   12   38 1   
    17   13   14 ar  
    18   13   39 1   
    19   14   15 ar  
    20   14   16 1   
    21   15   40 1   
    22   16   17 2   
    23   16   18 1   
    24   18   19 1   
    25   18   41 1   
    26   19   20 1   
    27   19   42 1   
    28   19   43 1   
    29   20   21 1   
    30   20   25 1   
    31   20   26 1   
    32   21   22 1   
    33   21   44 1   
    34   21   45 1   
    35   22   23 1   
    36   22   46 1   
    37   22   47 1   
    38   23   24 1   
    39   24   25 1   
    40   24   48 1   
    41   24   49 1   
    42   25   50 1   
    43   25   51 1   
    44   26   27 2   
    45   26   30 1   
    46   27   28 1   
    47   28   29 2   
    48   28   31 1   
    49   29   30 1   
    50   29   52 1   
    51   31   32 ar  
    52   31   36 ar  
    53   32   33 ar  
    54   32   53 1   
    55   33   34 ar  
    56   33   54 1   
    57   34   35 ar  
    58   34   55 1   
    59   35   36 ar  
    60   35   56 1   
    61   36   57 1   
@<TRIPOS>SUBSTRUCTURE
     1 NU9         1 TEMP              0 ****  ****    0 ROOT
