@<TRIPOS>MOLECULE
NU9
   58    62     1     0     0
SMALL
bcc


@<TRIPOS>ATOM
      1 F01        -0.2370   -0.0750    0.3580 f         1 NU9     -0.195967
      2 C02         0.6930   -0.2160   -0.6340 c3        1 NU9      0.651600
      3 F03         1.6400   -1.0730   -0.1450 f         1 NU9     -0.195967
      4 F04         0.0670   -0.8820   -1.6490 f         1 NU9     -0.195967
      5 C05         1.2850    1.1200   -1.0740 cc        1 NU9      0.418700
      6 N06         1.9500    2.0530   -0.4070 nd        1 NU9     -0.611000
      7 C07         2.2180    3.0430   -1.4040 cd        1 NU9      0.559500
      8 N08         1.7030    2.6580   -2.6080 nc        1 NU9     -0.322300
      9 O09         1.1330    1.4960   -2.4370 os        1 NU9     -0.075100
     10 C10         2.9440    4.2800   -1.1310 ca        1 NU9     -0.119500
     11 C11         3.1840    4.6860    0.1900 ca        1 NU9     -0.020000
     12 C12         3.8830    5.8700    0.4390 ca        1 NU9     -0.130000
     13 C13         4.3380    6.6610   -0.6110 ca        1 NU9     -0.076000
     14 C14         4.0930    6.2610   -1.9330 ca        1 NU9     -0.211600
     15 C15         3.4080    5.0630   -2.1960 ca        1 NU9     -0.020000
     16 C16         4.5600    7.0170   -3.0990 c         1 NU9      0.571700
     17 O17         4.8350    6.5820   -4.2100 o         1 NU9     -0.425100
     18 N18         4.6780    8.5110   -2.9090 n4        1 NU9     -0.677800
     19 C19         5.1950    9.2230   -4.1100 c3        1 NU9      0.118800
     20 C20         5.3830   10.7430   -3.9170 c3        1 NU9     -0.078300
     21 C21         5.8960   11.3060   -5.2510 c3        1 NU9     -0.121400
     22 C22         4.8200   11.3350   -6.3240 c3        1 NU9      0.119400
     23 O23         3.6450   12.0030   -5.8880 os        1 NU9     -0.384600
     24 C24         3.0830   11.4350   -4.7150 c3        1 NU9      0.119400
     25 C25         4.0720   11.4500   -3.5600 c3        1 NU9     -0.121400
     26 C26         6.3910   11.0090   -2.8350 cc        1 NU9      0.299700
     27 N27         6.3910   10.3490   -1.6620 nd        1 NU9     -0.721000
     28 C28         7.4120   10.8220   -0.8530 cd        1 NU9      0.427800
     29 C29         8.1630   11.8470   -1.4460 cc        1 NU9     -0.263400
     30 S30         7.6040   12.1970   -2.9620 ss        1 NU9      0.089700
     31 C31         7.6610   10.2910    0.4830 ca        1 NU9     -0.147500
     32 C32         8.9810   10.1130    0.9210 ca        1 NU9     -0.110000
     33 C33         9.2310    9.6280    2.2030 ca        1 NU9     -0.127000
     34 C34         8.1700    9.3210    3.0560 ca        1 NU9     -0.105000
     35 C35         6.8560    9.4990    2.6240 ca        1 NU9     -0.127000
     36 C36         6.5980    9.9790    1.3410 ca        1 NU9     -0.110000
     37 H11         2.8300    4.0750    1.0400 ha        1 NU9      0.186000
     38 H12         4.0800    6.1750    1.4800 ha        1 NU9      0.169000
     39 H13         4.9080    7.5740   -0.3720 ha        1 NU9      0.146000
     40 H15         3.2480    4.7480   -3.2430 ha        1 NU9      0.182000
     41 HN18        3.7530    8.8810   -2.6640 hn        1 NU9      0.476800
     42 H19         4.4750    9.0370   -4.9580 hx        1 NU9      0.111700
     43 H19A        6.1880    8.7570   -4.3770 hx        1 NU9      0.111700
     44 H21         6.2510   12.3590   -5.0760 hc        1 NU9      0.072450
     45 H21A        6.7660   10.7020   -5.6170 hc        1 NU9      0.072450
     46 H22         4.5620   10.2960   -6.6630 h1        1 NU9      0.062700
     47 H22A        5.1620   11.9410   -7.2070 h1        1 NU9      0.062700
     48 H24         2.2000   12.0940   -4.4900 h1        1 NU9      0.062700
     49 H24A        2.7290   10.3910   -4.9270 h1        1 NU9      0.062700
     50 H25         4.3110   12.5200   -3.3120 hc        1 NU9      0.072450
     51 H25A        3.6020   11.0040   -2.6480 hc        1 NU9      0.072450
     52 H29         8.9990   12.3500   -0.9580 h4        1 NU9      0.207000
     53 H32         9.8190   10.3570    0.2510 ha        1 NU9      0.134000
     54 H33        10.2690    9.4910    2.5430 ha        1 NU9      0.144500
     55 H34         8.3710    8.9450    4.0710 ha        1 NU9      0.148000
     56 H35         6.0190    9.2700    3.3010 ha        1 NU9      0.144500
     57 H36         5.5600   10.1340    1.0130 ha        1 NU9      0.134000
     58 H182        5.3150    8.7040   -2.1070 hn        1 NU9      0.476800
@<TRIPOS>BOND
     1    1    2 1   
     2    2    3 1   
     3    2    4 1   
     4    2    5 1   
     5    5    6 2   
     6    5    9 1   
     7    6    7 1   
     8    7    8 2   
     9    7   10 1   
    10    8    9 1   
    11   10   11 ar  
    12   10   15 ar  
    13   11   12 ar  
    14   11   37 1   
    15   12   13 ar  
    16   12   38 1   
    17   13   14 ar  
    18   13   39 1   
    19   14   15 ar  
    20   14   16 1   
    21   15   40 1   
    22   16   17 2   
    23   16   18 1   
    24   18   19 1   
    25   18   41 1   
    26   18   58 1   
    27   19   20 1   
    28   19   42 1   
    29   19   43 1   
    30   20   21 1   
    31   20   25 1   
    32   20   26 1   
    33   21   22 1   
    34   21   44 1   
    35   21   45 1   
    36   22   23 1   
    37   22   46 1   
    38   22   47 1   
    39   23   24 1   
    40   24   25 1   
    41   24   48 1   
    42   24   49 1   
    43   25   50 1   
    44   25   51 1   
    45   26   27 2   
    46   26   30 1   
    47   27   28 1   
    48   28   29 2   
    49   28   31 1   
    50   29   30 1   
    51   29   52 1   
    52   31   32 ar  
    53   31   36 ar  
    54   32   33 ar  
    55   32   53 1   
    56   33   34 ar  
    57   33   54 1   
    58   34   35 ar  
    59   34   55 1   
    60   35   36 ar  
    61   35   56 1   
    62   36   57 1   
@<TRIPOS>SUBSTRUCTURE
     1 NU9         1 TEMP              0 ****  ****    0 ROOT
