@<TRIPOS>MOLECULE
NU9
   58    62     1     0     0
SMALL
bcc


@<TRIPOS>ATOM
      1 F01        -0.2650   -0.0730    0.3190 f         1 NU9     -0.195967
      2 C02         0.6840   -0.2180   -0.6540 c3        1 NU9      0.651600
      3 F03         1.6240   -1.0700   -0.1420 f         1 NU9     -0.195967
      4 F04         0.0790   -0.8920   -1.6770 f         1 NU9     -0.195967
      5 C05         1.2810    1.1170   -1.0920 cc        1 NU9      0.418700
      6 N06         1.9310    2.0550   -0.4190 nd        1 NU9     -0.611000
      7 C07         2.2150    3.0400   -1.4170 cd        1 NU9      0.559500
      8 N08         1.7230    2.6460   -2.6270 nc        1 NU9     -0.322300
      9 O09         1.1530    1.4830   -2.4600 os        1 NU9     -0.075100
     10 C10         2.9330    4.2810   -1.1380 ca        1 NU9     -0.119500
     11 C11         3.1480    4.6940    0.1850 ca        1 NU9     -0.020000
     12 C12         3.8400    5.8820    0.4390 ca        1 NU9     -0.130000
     13 C13         4.3110    6.6680   -0.6070 ca        1 NU9     -0.076000
     14 C14         4.0900    6.2610   -1.9310 ca        1 NU9     -0.210600
     15 C15         3.4130    5.0590   -2.1990 ca        1 NU9     -0.020000
     16 C16         4.5750    7.0110   -3.0930 c         1 NU9      0.571700
     17 O17         4.8660    6.5710   -4.1980 o         1 NU9     -0.425100
     18 N18         4.6920    8.5060   -2.9070 ny        1 NU9     -0.676800
     19 C19         5.2170    9.2130   -4.1070 c3        1 NU9      0.118800
     20 C20         5.4010   10.7340   -3.9180 c3        1 NU9     -0.078300
     21 C21         5.9240   11.2930   -5.2510 c3        1 NU9     -0.121400
     22 C22         4.8550   11.3160   -6.3320 c3        1 NU9      0.119400
     23 O23         3.6760   11.9850   -5.9070 os        1 NU9     -0.384600
     24 C24         3.1070   11.4210   -4.7360 c3        1 NU9      0.119400
     25 C25         4.0870   11.4410   -3.5740 c3        1 NU9     -0.121400
     26 C26         6.4010   11.0060   -2.8310 cc        1 NU9      0.299700
     27 N27         6.3930   10.3510   -1.6550 nd        1 NU9     -0.721000
     28 C28         7.4080   10.8290   -0.8410 cd        1 NU9      0.427800
     29 C29         8.1620   11.8510   -1.4320 cc        1 NU9     -0.263400
     30 S30         7.6140   12.1940   -2.9540 ss        1 NU9      0.089700
     31 C31         7.6470   10.3040    0.5000 ca        1 NU9     -0.147500
     32 C32         8.9640   10.1290    0.9480 ca        1 NU9     -0.110000
     33 C33         9.2050    9.6490    2.2340 ca        1 NU9     -0.127000
     34 C34         8.1390    9.3450    3.0800 ca        1 NU9     -0.105000
     35 C35         6.8270    9.5210    2.6380 ca        1 NU9     -0.127000
     36 C36         6.5780    9.9950    1.3510 ca        1 NU9     -0.110000
     37 H11         2.7810    4.0870    1.0320 ha        1 NU9      0.186000
     38 H12         4.0180    6.1940    1.4820 ha        1 NU9      0.169000
     39 H13         4.8740    7.5840   -0.3640 ha        1 NU9      0.146000
     40 H15         3.2720    4.7380   -3.2470 ha        1 NU9      0.182000
     41 HN18        3.7660    8.8770   -2.6680 hn        1 NU9      0.476800
     42 H19         4.5020    9.0230   -4.9590 hx        1 NU9      0.111700
     43 H19A        6.2120    8.7480   -4.3660 hx        1 NU9      0.111700
     44 H21         6.7970   10.6880   -5.6090 hc        1 NU9      0.072450
     45 H21A        6.2760   12.3470   -5.0780 hc        1 NU9      0.072450
     46 H22         4.6010   10.2750   -6.6690 h1        1 NU9      0.062700
     47 H22A        5.2040   11.9190   -7.2150 h1        1 NU9      0.062700
     48 H24         2.2210   12.0790   -4.5200 h1        1 NU9      0.062700
     49 H24A        2.7550   10.3760   -4.9470 h1        1 NU9      0.062700
     50 H25         4.3230   12.5130   -3.3280 hc        1 NU9      0.072450
     51 H25A        3.6110   10.9980   -2.6640 hc        1 NU9      0.072450
     52 H29         8.9950   12.3580   -0.9410 h4        1 NU9      0.207000
     53 H32         9.8070   10.3700    0.2830 ha        1 NU9      0.134000
     54 H33        10.2410    9.5140    2.5820 ha        1 NU9      0.144500
     55 H34         8.3320    8.9740    4.0980 ha        1 NU9      0.148000
     56 H35         5.9860    9.2950    3.3110 ha        1 NU9      0.144500
     57 H36         5.5420   10.1490    1.0160 ha        1 NU9      0.134000
     58 H182        5.3250    8.7010   -2.1020 hn        1 NU9      0.476800
@<TRIPOS>BOND
     1    1    2 1   
     2    2    3 1   
     3    2    4 1   
     4    2    5 1   
     5    5    6 2   
     6    5    9 1   
     7    6    7 1   
     8    7    8 2   
     9    7   10 1   
    10    8    9 1   
    11   10   11 ar  
    12   10   15 ar  
    13   11   12 ar  
    14   11   37 1   
    15   12   13 ar  
    16   12   38 1   
    17   13   14 ar  
    18   13   39 1   
    19   14   15 ar  
    20   14   16 1   
    21   15   40 1   
    22   16   17 2   
    23   16   18 1   
    24   18   19 1   
    25   18   41 1   
    26   18   58 1   
    27   19   20 1   
    28   19   42 1   
    29   19   43 1   
    30   20   21 1   
    31   20   25 1   
    32   20   26 1   
    33   21   22 1   
    34   21   44 1   
    35   21   45 1   
    36   22   23 1   
    37   22   46 1   
    38   22   47 1   
    39   23   24 1   
    40   24   25 1   
    41   24   48 1   
    42   24   49 1   
    43   25   50 1   
    44   25   51 1   
    45   26   27 2   
    46   26   30 1   
    47   27   28 1   
    48   28   29 2   
    49   28   31 1   
    50   29   30 1   
    51   29   52 1   
    52   31   32 ar  
    53   31   36 ar  
    54   32   33 ar  
    55   32   53 1   
    56   33   34 ar  
    57   33   54 1   
    58   34   35 ar  
    59   34   55 1   
    60   35   36 ar  
    61   35   56 1   
    62   36   57 1   
@<TRIPOS>SUBSTRUCTURE
     1 NU9         1 TEMP              0 ****  ****    0 ROOT
