@<TRIPOS>MOLECULE
NU9
   57    54     1     0     0
SMALL
bcc


@<TRIPOS>ATOM
      1 F01        -2.6420   -8.9430   -3.1600 f         1 NU9     -0.135333
      2 C02        -1.3420   -9.1940   -2.9900 c3        1 NU9      0.530000
      3 F03        -1.1580   -9.7720   -1.8300 f         1 NU9     -0.135333
      4 F04        -0.9200   -9.9910   -3.9470 f         1 NU9     -0.135333
      5 C05        -0.5640   -7.8950   -3.0410 c2        1 NU9     -0.086000
      6 N06        -0.6080   -6.9060   -2.1230 n2        1 NU9     -0.081000
      7 C07         0.1830   -5.8960   -2.5600 c1        1 NU9     -0.035000
      8 N08         0.7080   -6.2620   -3.7380 n2        1 NU9     -0.009000
      9 O09         0.2460   -7.5010   -4.0380 os        1 NU9     -0.039000
     10 C10         0.4280   -4.6230   -1.8600 c1        1 NU9     -0.031500
     11 C11         1.3920   -4.5570   -0.8620 c2        1 NU9     -0.088000
     12 C12         1.6110   -3.3700   -0.1890 c1        1 NU9     -0.142000
     13 C13         0.8550   -2.2250   -0.5170 c1        1 NU9     -0.078000
     14 C14        -0.1060   -2.2900   -1.5120 c1        1 NU9     -0.128000
     15 C15        -0.3260   -3.4790   -2.1870 c1        1 NU9     -0.074000
     16 C16        -0.8850   -1.0060   -1.9150 c2        1 NU9      0.342000
     17 O17        -1.7310   -1.0580   -2.7860 o         1 NU9     -0.363000
     18 N18        -0.6940    0.2520   -1.1370 n         1 NU9     -0.357000
     19 C19        -1.8400    1.0690   -0.7860 c3        1 NU9     -0.024000
     20 C20        -1.3650    2.4410   -0.3550 c3        1 NU9     -0.001000
     21 C21        -0.7690    3.1250   -1.5010 c3        1 NU9     -0.189000
     22 C22        -1.8190    3.5150   -2.5640 c3        1 NU9     -0.024500
     23 O23        -2.9530    4.2620   -1.9900 os        1 NU9     -0.267000
     24 C24        -3.5510    3.5910   -0.8530 c3        1 NU9     -0.024500
     25 C25        -2.5140    3.2020    0.2150 c3        1 NU9     -0.189000
     26 C26        -0.2370    2.2630    0.7930 c2        1 NU9     -0.280000
     27 N27         0.3790    3.3200    1.5330 n2        1 NU9     -0.120000
     28 C28         1.2740    2.6860    2.6590 c1        1 NU9     -0.039000
     29 C29         1.1720    1.2530    2.5650 c1        1 NU9     -0.458000
     30 S30         0.2300    0.9260    1.4040 ss        1 NU9      0.530000
     31 C31         2.1390    3.4390    3.6110 c1        1 NU9     -0.031500
     32 C32         3.2300    4.1340    3.1460 c2        1 NU9     -0.088000
     33 C33         4.0340    4.8460    4.0360 c1        1 NU9     -0.142000
     34 C34         3.7300    4.8520    5.3910 c1        1 NU9     -0.127500
     35 C35         2.6320    4.1520    5.8520 c1        1 NU9     -0.127500
     36 C36         1.8350    3.4450    4.9610 c1        1 NU9     -0.074000
     37 H11         1.9370   -5.3830   -0.6270 ha        1 NU9      0.148500
     38 H12         2.2910   -3.3240    0.5170 ha        1 NU9      0.139500
     39 H13         1.0090   -1.3770   -0.0390 ha        1 NU9      0.158000
     40 H15        -1.0100   -3.5240   -2.8950 ha        1 NU9      0.155000
     41 HN18        0.1210    0.4730   -0.8350 hn        1 NU9      0.232000
     42 H19        -2.3290    0.6470   -0.0500 h1        1 NU9      0.107000
     43 H19A       -2.4530    1.1600   -1.5950 h1        1 NU9      0.107000
     44 H21        -0.1130    2.5410   -1.9070 hc        1 NU9      0.101750
     45 H21A       -0.2860    4.0030   -1.1600 hc        1 NU9      0.101750
     46 H22        -2.1780    2.6550   -3.0100 h1        1 NU9      0.092500
     47 H22A       -1.4030    4.0520   -3.2260 h1        1 NU9      0.092500
     48 H24        -4.2470    4.2180   -0.4250 h1        1 NU9      0.092500
     49 H24A       -4.0070    2.7740   -1.1690 h1        1 NU9      0.092500
     50 H25        -2.1640    4.0380    0.6430 hc        1 NU9      0.101750
     51 H25A       -2.9320    2.6780    0.8670 hc        1 NU9      0.101750
     52 H29         1.6280    0.5980    3.1470 DU        1 NU9      0.186000
     53 H32         3.4450    4.1270    2.1800 ha        1 NU9      0.148500
     54 H33         4.7820    5.3220    3.7190 ha        1 NU9      0.139500
     55 H34         4.3310    5.3830    6.0600 ha        1 NU9      0.134000
     56 H35         2.4140    4.1540    6.8110 ha        1 NU9      0.134000
     57 H36         1.1090    2.9810    5.2670 ha        1 NU9      0.155000
@<TRIPOS>BOND
     1    1    2 1   
     2    2    3 1   
     3    2    4 1   
     4    2    5 1   
     5    5    6 1   
     6    5    9 1   
     7    6    7 1   
     8    7    8 1   
     9    8    9 1   
    10   10   11 1   
    11   10   15 1   
    12   11   12 1   
    13   11   37 1   
    14   12   38 1   
    15   13   14 1   
    16   13   39 1   
    17   14   16 1   
    18   15   40 1   
    19   16   17 1   
    20   16   18 1   
    21   18   19 1   
    22   18   41 1   
    23   19   20 1   
    24   19   42 1   
    25   19   43 1   
    26   20   21 1   
    27   20   25 1   
    28   20   26 1   
    29   21   22 1   
    30   21   44 1   
    31   21   45 1   
    32   22   23 1   
    33   22   46 1   
    34   22   47 1   
    35   23   24 1   
    36   24   25 1   
    37   24   48 1   
    38   24   49 1   
    39   25   50 1   
    40   25   51 1   
    41   26   27 1   
    42   26   30 1   
    43   27   28 1   
    44   28   29 1   
    45   29   30 1   
    46   31   32 1   
    47   31   36 1   
    48   32   33 1   
    49   32   53 1   
    50   33   54 1   
    51   34   35 1   
    52   34   55 1   
    53   35   56 1   
    54   36   57 1   
@<TRIPOS>SUBSTRUCTURE
     1 NU9         1 TEMP              0 ****  ****    0 ROOT
