@<TRIPOS>MOLECULE
NUD
   44    46     1     0     0
SMALL
bcc


@<TRIPOS>ATOM
      1 C1         -0.1220   -0.6560    0.2120 ca        1 NUD     -0.317000
      2 C2          1.2860   -0.8060    0.2990 ca        1 NUD      0.270600
      3 C3          1.9580   -0.2470    1.4400 ca        1 NUD     -0.032600
      4 C4          1.1940    0.3890    2.4430 ca        1 NUD     -0.028000
      5 C5         -0.1830    0.5190    2.3600 ca        1 NUD     -0.160300
      6 C6         -0.8320   -0.0130    1.2220 ca        1 NUD      0.198100
      7 O7         -2.1950    0.1410    1.1660 oh        1 NUD     -0.488100
      8 C8         -0.9700    1.1900    3.4180 c3        1 NUD     -0.033800
      9 N9          3.3790   -0.3510    1.4650 ne        1 NUD     -0.185400
     10 N10         4.0120   -0.0550    2.4790 nf        1 NUD     -0.235400
     11 C11         5.4470   -0.1410    2.4510 ca        1 NUD      0.182400
     12 C12         6.0890   -0.6380    3.6070 ca        1 NUD     -0.152000
     13 C13         7.4750   -0.6500    3.6740 ca        1 NUD     -0.001000
     14 C14         8.2640   -0.1790    2.6160 ca        1 NUD     -0.392500
     15 C15         7.6200    0.3180    1.4770 ca        1 NUD     -0.001000
     16 C16         6.2320    0.3370    1.3850 ca        1 NUD     -0.152000
     17 S17         9.9350   -0.1640    2.7380 sy        1 NUD      1.524200
     18 O18        10.4780    0.7680    1.8440 o         1 NUD     -0.645300
     19 O19        10.2950   -0.0070    4.0970 o         1 NUD     -0.645300
     20 N20        10.3810   -1.7070    2.3660 nh        1 NUD     -0.862800
     21 C21        10.2800   -2.3450    1.1230 ca        1 NUD      0.673200
     22 N22         9.6410   -1.6740    0.1120 nb        1 NUD     -0.728000
     23 C23         9.5610   -2.2850   -1.0800 ca        1 NUD      0.441200
     24 C24        10.0800   -3.5620   -1.3520 ca        1 NUD     -0.283300
     25 C25        10.7210   -4.2440   -0.3170 ca        1 NUD     -0.058000
     26 C26        10.8310   -3.6470    0.9360 ca        1 NUD     -0.286300
     27 N41         1.9440   -1.5300   -0.6720 nh        1 NUD     -0.841200
     28 H1         -0.6640   -1.0620   -0.6550 ha        1 NUD      0.136000
     29 H4          1.7040    0.8080    3.3280 ha        1 NUD      0.156000
     30 HO7        -2.5140   -0.2710    0.3480 ho        1 NUD      0.422000
     31 H8         -1.6700    0.4600    3.8960 hc        1 NUD      0.045700
     32 H8A        -1.5850    2.0130    2.9750 hc        1 NUD      0.045700
     33 H8B        -0.3070    1.6210    4.2070 hc        1 NUD      0.045700
     34 H12         5.4960   -1.0120    4.4560 ha        1 NUD      0.151000
     35 H13         7.9700   -1.0210    4.5900 ha        1 NUD      0.159500
     36 H15         8.2300    0.7030    0.6380 ha        1 NUD      0.159500
     37 H16         5.7560    0.7360    0.4760 ha        1 NUD      0.151000
     38 HN20       10.7920   -2.2810    3.0700 hn        1 NUD      0.458800
     39 H23         9.0450   -1.7040   -1.8660 h4        1 NUD      0.024100
     40 H24         9.9820   -4.0030   -2.3510 ha        1 NUD      0.147000
     41 H25        11.1420   -5.2470   -0.4850 ha        1 NUD      0.141000
     42 H26        11.3350   -4.1670    1.7600 ha        1 NUD      0.145000
     43 HN41        2.9330   -1.4780   -0.7210 hn        1 NUD      0.423800
     44 HN4A        1.4670   -1.6800   -1.5280 hn        1 NUD      0.423800
@<TRIPOS>BOND
     1    1    2 ar  
     2    1    6 ar  
     3    1   28 1   
     4    2    3 ar  
     5    2   27 1   
     6    3    4 ar  
     7    3    9 1   
     8    4    5 ar  
     9    4   29 1   
    10    5    6 ar  
    11    5    8 1   
    12    6    7 1   
    13    7   30 1   
    14    8   31 1   
    15    8   32 1   
    16    8   33 1   
    17    9   10 2   
    18   10   11 1   
    19   11   12 ar  
    20   11   16 ar  
    21   12   13 ar  
    22   12   34 1   
    23   13   14 ar  
    24   13   35 1   
    25   14   15 ar  
    26   14   17 1   
    27   15   16 ar  
    28   15   36 1   
    29   16   37 1   
    30   17   18 2   
    31   17   19 2   
    32   17   20 1   
    33   20   21 1   
    34   20   38 1   
    35   21   22 ar  
    36   21   26 ar  
    37   22   23 ar  
    38   23   24 ar  
    39   23   39 1   
    40   24   25 ar  
    41   24   40 1   
    42   25   26 ar  
    43   25   41 1   
    44   26   42 1   
    45   27   43 1   
    46   27   44 1   
@<TRIPOS>SUBSTRUCTURE
     1 NUD         1 TEMP              0 ****  ****    0 ROOT
