@<TRIPOS>MOLECULE
NUD
   46    48     1     0     0
SMALL
bcc


@<TRIPOS>ATOM
      1 C1         -0.6120    1.3560    0.9410 ca        1 NUD     -0.205000
      2 C2          0.7740    1.3990    0.7470 ca        1 NUD      0.011600
      3 C3          1.6310    0.4460    1.3630 ca        1 NUD      0.072400
      4 C4          1.0410   -0.5440    2.1760 ca        1 NUD     -0.064000
      5 C5         -0.3340   -0.6080    2.3850 ca        1 NUD     -0.031300
      6 C6         -1.1620    0.3570    1.7560 ca        1 NUD      0.188100
      7 O7         -2.4980    0.2480    1.9940 oh        1 NUD     -0.444100
      8 C8         -0.9420   -1.6500    3.2390 c3        1 NUD     -0.073800
      9 N9          3.0420    0.5740    1.1190 ne        1 NUD     -0.212400
     10 N10         3.8160   -0.2660    1.5650 nf        1 NUD     -0.169400
     11 C11         5.2320   -0.1570    1.3560 ca        1 NUD      0.217400
     12 C12         6.0160    0.7220    2.1350 ca        1 NUD     -0.148500
     13 C13         7.3970    0.6750    2.0470 ca        1 NUD      0.029500
     14 C14         8.0540   -0.2250    1.1820 ca        1 NUD     -0.515500
     15 C15         7.2550   -1.0860    0.4040 ca        1 NUD      0.029500
     16 C16         5.8690   -1.0600    0.4790 ca        1 NUD     -0.148500
     17 S17         9.6640   -0.1860    1.0120 sy        1 NUD      1.477200
     18 O18        10.1340   -0.6620   -0.1860 o         1 NUD     -0.555800
     19 O19        10.2480    0.9040    1.6320 o         1 NUD     -0.555800
     20 N20        10.1250   -1.5230    2.3080 n4        1 NUD     -0.678600
     21 C21        10.6010   -2.7680    1.6950 ca        1 NUD      0.449200
     22 N22         9.7080   -3.4180    0.8840 nb        1 NUD     -0.687000
     23 C23        10.1320   -4.5440    0.2990 ca        1 NUD      0.440200
     24 C24        11.4280   -5.0830    0.4810 ca        1 NUD     -0.181300
     25 C25        12.3170   -4.4120    1.3120 ca        1 NUD     -0.063000
     26 C26        11.9090   -3.2270    1.9450 ca        1 NUD     -0.188300
     27 N41         1.3280    2.4510   -0.1090 n4        1 NUD     -0.698000
     28 H1         -1.2850    2.0910    0.4660 ha        1 NUD      0.167000
     29 H4          1.6780   -1.3010    2.6710 ha        1 NUD      0.188000
     30 HO7        -2.9750    0.9510    1.5220 ho        1 NUD      0.451000
     31 H8         -1.5070   -1.1700    4.0810 hc        1 NUD      0.082367
     32 H8A        -1.6770   -2.2510    2.6420 hc        1 NUD      0.082367
     33 H8B        -0.1720   -2.3380    3.6650 hc        1 NUD      0.082367
     34 H12         5.5390    1.4400    2.8240 ha        1 NUD      0.177500
     35 H13         8.0000    1.3810    2.6540 ha        1 NUD      0.184000
     36 H15         7.7420   -1.7960   -0.2950 ha        1 NUD      0.184000
     37 H16         5.2790   -1.7530   -0.1450 ha        1 NUD      0.177500
     38 HN20        9.3240   -1.7400    2.9030 hn        1 NUD      0.460300
     39 H23         9.3930   -5.0480   -0.3560 h4        1 NUD      0.057100
     40 H24        11.7130   -6.0150   -0.0330 ha        1 NUD      0.188000
     41 H25        13.3370   -4.7970    1.4820 ha        1 NUD      0.185000
     42 H26        12.6050   -2.6890    2.6070 ha        1 NUD      0.171000
     43 HN41        1.9890    3.0230    0.4310 hn        1 NUD      0.469800
     44 HN4A        1.8230    2.0260   -0.9020 hn        1 NUD      0.469800
     45 H202       10.8660   -1.1650    2.9140 hn        1 NUD      0.460300
     46 H413        0.5750    3.0520   -0.4650 hn        1 NUD      0.469800
@<TRIPOS>BOND
     1    1    2 ar  
     2    1    6 ar  
     3    1   28 1   
     4    2    3 ar  
     5    2   27 1   
     6    3    4 ar  
     7    3    9 1   
     8    4    5 ar  
     9    4   29 1   
    10    5    6 ar  
    11    5    8 1   
    12    6    7 1   
    13    7   30 1   
    14    8   31 1   
    15    8   32 1   
    16    8   33 1   
    17    9   10 2   
    18   10   11 1   
    19   11   12 ar  
    20   11   16 ar  
    21   12   13 ar  
    22   12   34 1   
    23   13   14 ar  
    24   13   35 1   
    25   14   15 ar  
    26   14   17 1   
    27   15   16 ar  
    28   15   36 1   
    29   16   37 1   
    30   17   18 2   
    31   17   19 2   
    32   17   20 1   
    33   20   21 1   
    34   20   38 1   
    35   20   45 1   
    36   21   22 ar  
    37   21   26 ar  
    38   22   23 ar  
    39   23   24 ar  
    40   23   39 1   
    41   24   25 ar  
    42   24   40 1   
    43   25   26 ar  
    44   25   41 1   
    45   26   42 1   
    46   27   43 1   
    47   27   44 1   
    48   27   46 1   
@<TRIPOS>SUBSTRUCTURE
     1 NUD         1 TEMP              0 ****  ****    0 ROOT
