@<TRIPOS>MOLECULE
NUD
   44    46     1     0     0
SMALL
bcc


@<TRIPOS>ATOM
      1 C1         -0.1240   -0.6750    0.2190 ca        1 NUD     -0.317000
      2 C2          1.2840   -0.8220    0.3050 ca        1 NUD      0.270600
      3 C3          1.9570   -0.2520    1.4390 ca        1 NUD     -0.032600
      4 C4          1.1940    0.3920    2.4380 ca        1 NUD     -0.028000
      5 C5         -0.1840    0.5200    2.3560 ca        1 NUD     -0.160300
      6 C6         -0.8330   -0.0240    1.2240 ca        1 NUD      0.198100
      7 O7         -2.1970    0.1280    1.1680 oh        1 NUD     -0.488100
      8 C8         -0.9700    1.2000    3.4080 c3        1 NUD     -0.033800
      9 N9          3.3780   -0.3540    1.4640 ne        1 NUD     -0.185400
     10 N10         4.0130   -0.0480    2.4740 nf        1 NUD     -0.235400
     11 C11         5.4470   -0.1330    2.4450 ca        1 NUD      0.182400
     12 C12         6.0920   -0.6190    3.6030 ca        1 NUD     -0.152000
     13 C13         7.4780   -0.6290    3.6690 ca        1 NUD     -0.001000
     14 C14         8.2650   -0.1650    2.6050 ca        1 NUD     -0.392500
     15 C15         7.6190    0.3220    1.4640 ca        1 NUD     -0.001000
     16 C16         6.2310    0.3380    1.3730 ca        1 NUD     -0.152000
     17 S17         9.9360   -0.1470    2.7250 sy        1 NUD      1.524200
     18 O18        10.4760    0.7790    1.8230 o         1 NUD     -0.645300
     19 O19        10.2980    0.0230    4.0820 o         1 NUD     -0.645300
     20 N20        10.3840   -1.6920    2.3650 nu        1 NUD     -0.862800
     21 C21        10.2820   -2.3400    1.1280 ca        1 NUD      0.673200
     22 N22         9.6400   -1.6790    0.1120 nb        1 NUD     -0.728000
     23 C23         9.5590   -2.3000   -1.0740 ca        1 NUD      0.441200
     24 C24        10.0790   -3.5790   -1.3360 ca        1 NUD     -0.283300
     25 C25        10.7230   -4.2510   -0.2960 ca        1 NUD     -0.058000
     26 C26        10.8340   -3.6430    0.9510 ca        1 NUD     -0.286300
     27 N41         1.9420   -1.5540   -0.6610 nv        1 NUD     -0.841200
     28 H1         -0.6670   -1.0900   -0.6440 ha        1 NUD      0.136000
     29 H4          1.7040    0.8210    3.3180 ha        1 NUD      0.156000
     30 HO7        -2.5170   -0.2920    0.3550 ho        1 NUD      0.422000
     31 H8         -0.3060    1.6390    4.1920 hc        1 NUD      0.045700
     32 H8A        -1.6680    0.4730    3.8940 hc        1 NUD      0.045700
     33 H8B        -1.5870    2.0180    2.9580 hc        1 NUD      0.045700
     34 H12         5.5010   -0.9870    4.4570 ha        1 NUD      0.151000
     35 H13         7.9750   -0.9910    4.5860 ha        1 NUD      0.159500
     36 H15         8.2270    0.7000    0.6210 ha        1 NUD      0.159500
     37 H16         5.7530    0.7290    0.4620 ha        1 NUD      0.151000
     38 HN20       10.7970   -2.2590    3.0730 hn        1 NUD      0.458800
     39 H23         9.0410   -1.7260   -1.8650 h4        1 NUD      0.024100
     40 H24         9.9790   -4.0290   -2.3310 ha        1 NUD      0.147000
     41 H25        11.1440   -5.2550   -0.4570 ha        1 NUD      0.141000
     42 H26        11.3400   -4.1560    1.7790 ha        1 NUD      0.145000
     43 HN41        2.9300   -1.5020   -0.7110 hn        1 NUD      0.423800
     44 HN4A        1.4630   -1.7140   -1.5140 hn        1 NUD      0.423800
@<TRIPOS>BOND
     1    1    2 ar  
     2    1    6 ar  
     3    1   28 1   
     4    2    3 ar  
     5    2   27 1   
     6    3    4 ar  
     7    3    9 1   
     8    4    5 ar  
     9    4   29 1   
    10    5    6 ar  
    11    5    8 1   
    12    6    7 1   
    13    7   30 1   
    14    8   31 1   
    15    8   32 1   
    16    8   33 1   
    17    9   10 2   
    18   10   11 1   
    19   11   12 ar  
    20   11   16 ar  
    21   12   13 ar  
    22   12   34 1   
    23   13   14 ar  
    24   13   35 1   
    25   14   15 ar  
    26   14   17 1   
    27   15   16 ar  
    28   15   36 1   
    29   16   37 1   
    30   17   18 2   
    31   17   19 2   
    32   17   20 1   
    33   20   21 1   
    34   20   38 1   
    35   21   22 ar  
    36   21   26 ar  
    37   22   23 ar  
    38   23   24 ar  
    39   23   39 1   
    40   24   25 ar  
    41   24   40 1   
    42   25   26 ar  
    43   25   41 1   
    44   26   42 1   
    45   27   43 1   
    46   27   44 1   
@<TRIPOS>SUBSTRUCTURE
     1 NUD         1 TEMP              0 ****  ****    0 ROOT
