@<TRIPOS>MOLECULE
NUE
   47    49     1     0     0
SMALL
bcc


@<TRIPOS>ATOM
      1 C1         -0.4970    0.8280    0.2200 ca        1 NUE     -0.283300
      2 C2          0.8780    0.7350    0.0030 ca        1 NUE     -0.058000
      3 C3         -0.9800    0.5750    1.5160 ca        1 NUE      0.441200
      4 C4          1.7200    0.4030    1.0600 ca        1 NUE     -0.286300
      5 N5         -0.2050    0.2490    2.5610 nb        1 NUE     -0.728000
      6 C6          1.1470    0.1680    2.3440 ca        1 NUE      0.673200
      7 N7          1.9640   -0.1570    3.4340 nh        1 NUE     -0.862800
      8 S8          1.5080   -0.3280    5.0100 sy        1 NUE      1.524200
      9 C9          1.1340   -2.9780    5.0560 ca        1 NUE      0.000000
     10 C10         0.5510   -1.7040    5.0140 ca        1 NUE     -0.392500
     11 C11         0.3590   -4.1280    5.0960 ca        1 NUE     -0.152500
     12 C12        -0.8450   -1.6110    5.0190 ca        1 NUE      0.000000
     13 C13        -1.0490   -4.0270    5.0950 ca        1 NUE      0.183400
     14 C14        -1.6420   -2.7500    5.0550 ca        1 NUE     -0.152500
     15 O15         2.7110   -0.6040    5.7010 o         1 NUE     -0.645800
     16 O16         0.7730    0.7740    5.4660 o         1 NUE     -0.645800
     17 N17        -1.8000   -5.2430    5.2460 ne        1 NUE     -0.237400
     18 N18        -2.8190   -5.4000    4.5720 nf        1 NUE     -0.184400
     19 C19        -3.6130   -6.5750    4.7180 ca        1 NUE     -0.034600
     20 C20        -3.4450   -7.5100    5.7570 ca        1 NUE     -0.020000
     21 C21        -4.6580   -6.7820    3.7490 ca        1 NUE      0.268600
     22 C22        -4.2740   -8.6130    5.9010 ca        1 NUE     -0.220300
     23 C23        -5.5220   -7.9060    3.9030 ca        1 NUE     -0.204300
     24 C24        -5.3160   -8.7950    4.9650 ca        1 NUE      0.201100
     25 N25        -4.8010   -5.9590    2.6530 nh        1 NUE     -0.840200
     26 C26        -6.6260   -8.1410    2.9420 c3        1 NUE     -0.039800
     27 O27        -6.1880   -9.8550    5.0440 oh        1 NUE     -0.497100
     28 C28        -4.0660   -9.5690    7.0120 c3        1 NUE     -0.046800
     29 H1         -1.1870    1.0910   -0.5900 ha        1 NUE      0.147000
     30 H2          1.2990    0.9230   -0.9960 ha        1 NUE      0.141000
     31 H3         -2.0610    0.6360    1.7400 h4        1 NUE      0.025100
     32 H4          2.8050    0.3290    0.9080 ha        1 NUE      0.145000
     33 HN7         2.9230   -0.2680    3.1880 hn        1 NUE      0.458800
     34 H11         0.8470   -5.1160    5.1330 ha        1 NUE      0.151000
     35 H12        -1.3180   -0.6120    4.9960 ha        1 NUE      0.159500
     36 H14        -2.7380   -2.6430    5.0590 ha        1 NUE      0.151000
     37 H20        -2.6350   -7.3660    6.4940 ha        1 NUE      0.153000
     38 HN25       -4.3270   -5.0890    2.6400 hn        1 NUE      0.426800
     39 HN2A       -5.6540   -6.0060    2.1480 hn        1 NUE      0.426800
     40 H26        -7.3350   -7.2740    2.9320 hc        1 NUE      0.045700
     41 H26A       -6.2250   -8.2870    1.9070 hc        1 NUE      0.045700
     42 H26B       -7.2110   -9.0550    3.2140 hc        1 NUE      0.045700
     43 HO27       -5.9460  -10.3990    5.8070 ho        1 NUE      0.428000
     44 H28        -3.8630  -10.5970    6.6160 hc        1 NUE      0.043367
     45 H28A       -3.1970   -9.2660    7.6460 hc        1 NUE      0.043367
     46 H28B       -4.9720   -9.6150    7.6690 hc        1 NUE      0.043367
     47 H9          2.2350   -3.0650    5.0780 ha        1 NUE      0.159500
@<TRIPOS>BOND
     1    1    2 ar  
     2    1    3 ar  
     3    1   29 1   
     4    2    4 ar  
     5    2   30 1   
     6    3    5 ar  
     7    3   31 1   
     8    4    6 ar  
     9    4   32 1   
    10    5    6 ar  
    11    6    7 1   
    12    7    8 1   
    13    7   33 1   
    14    8   10 1   
    15    8   15 2   
    16    8   16 2   
    17    9   10 ar  
    18    9   11 ar  
    19    9   47 1   
    20   10   12 ar  
    21   11   13 ar  
    22   11   34 1   
    23   12   14 ar  
    24   12   35 1   
    25   13   14 ar  
    26   13   17 1   
    27   14   36 1   
    28   17   18 2   
    29   18   19 1   
    30   19   20 ar  
    31   19   21 ar  
    32   20   22 ar  
    33   20   37 1   
    34   21   23 ar  
    35   21   25 1   
    36   22   24 ar  
    37   22   28 1   
    38   23   24 ar  
    39   23   26 1   
    40   24   27 1   
    41   25   38 1   
    42   25   39 1   
    43   26   40 1   
    44   26   41 1   
    45   26   42 1   
    46   27   43 1   
    47   28   44 1   
    48   28   45 1   
    49   28   46 1   
@<TRIPOS>SUBSTRUCTURE
     1 NUE         1 TEMP              0 ****  ****    0 ROOT
