@<TRIPOS>MOLECULE
NUE
   47    49     1     0     0
SMALL
bcc


@<TRIPOS>ATOM
      1 C1         -0.5020    0.8320    0.2240 ca        1 NUE     -0.283300
      2 C2          0.8720    0.7370    0.0010 ca        1 NUE     -0.058000
      3 C3         -0.9800    0.5780    1.5210 ca        1 NUE      0.441200
      4 C4          1.7180    0.4010    1.0540 ca        1 NUE     -0.286300
      5 N5         -0.2020    0.2490    2.5630 nb        1 NUE     -0.728000
      6 C6          1.1490    0.1650    2.3400 ca        1 NUE      0.673200
      7 N7          1.9690   -0.1640    3.4260 nu        1 NUE     -0.862800
      8 S8          1.5200   -0.3370    5.0030 sy        1 NUE      1.524200
      9 C9          1.1400   -2.9860    5.0470 ca        1 NUE      0.000000
     10 C10         0.5600   -1.7100    5.0090 ca        1 NUE     -0.392500
     11 C11         0.3640   -4.1350    5.0880 ca        1 NUE     -0.152500
     12 C12        -0.8360   -1.6150    5.0190 ca        1 NUE      0.000000
     13 C13        -1.0450   -4.0300    5.0920 ca        1 NUE      0.183400
     14 C14        -1.6350   -2.7530    5.0560 ca        1 NUE     -0.152500
     15 O15         2.7250   -0.6160    5.6890 o         1 NUE     -0.645800
     16 O16         0.7890    0.7660    5.4640 o         1 NUE     -0.645800
     17 N17        -1.7980   -5.2460    5.2440 ne        1 NUE     -0.237400
     18 N18        -2.8180   -5.4000    4.5730 nf        1 NUE     -0.184400
     19 C19        -3.6150   -6.5740    4.7190 ca        1 NUE     -0.034600
     20 C20        -3.4470   -7.5090    5.7590 ca        1 NUE     -0.020000
     21 C21        -4.6620   -6.7780    3.7530 ca        1 NUE      0.268600
     22 C22        -4.2770   -8.6100    5.9040 ca        1 NUE     -0.220300
     23 C23        -5.5280   -7.9010    3.9080 ca        1 NUE     -0.204300
     24 C24        -5.3210   -8.7900    4.9690 ca        1 NUE      0.201100
     25 N25        -4.8060   -5.9550    2.6570 nv        1 NUE     -0.840200
     26 C26        -6.6340   -8.1340    2.9490 c3        1 NUE     -0.039800
     27 O27        -6.1950   -9.8480    5.0500 oh        1 NUE     -0.497100
     28 C28        -4.0690   -9.5670    7.0140 c3        1 NUE     -0.046800
     29 H1         -1.1940    1.0990   -0.5830 ha        1 NUE      0.147000
     30 H2          1.2900    0.9260   -0.9990 ha        1 NUE      0.141000
     31 H3         -2.0600    0.6420    1.7500 h4        1 NUE      0.025100
     32 H4          2.8020    0.3240    0.8970 ha        1 NUE      0.145000
     33 HN7         2.9270   -0.2770    3.1750 hn        1 NUE      0.458800
     34 H11         0.8490   -5.1230    5.1210 ha        1 NUE      0.151000
     35 H12        -1.3070   -0.6150    5.0000 ha        1 NUE      0.159500
     36 H14        -2.7310   -2.6430    5.0650 ha        1 NUE      0.151000
     37 H20        -2.6350   -7.3660    6.4940 ha        1 NUE      0.153000
     38 HN25       -5.6590   -6.0000    2.1540 hn        1 NUE      0.426800
     39 HN2A       -4.3300   -5.0860    2.6430 hn        1 NUE      0.426800
     40 H26        -7.2190   -9.0470    3.2220 hc        1 NUE      0.045700
     41 H26A       -6.2350   -8.2790    1.9130 hc        1 NUE      0.045700
     42 H26B       -7.3410   -7.2660    2.9410 hc        1 NUE      0.045700
     43 HO27       -5.9520  -10.3930    5.8130 ho        1 NUE      0.428000
     44 H28        -3.1980   -9.2650    7.6460 hc        1 NUE      0.043367
     45 H28A       -4.9740   -9.6110    7.6720 hc        1 NUE      0.043367
     46 H28B       -3.8690  -10.5950    6.6180 hc        1 NUE      0.043367
     47 H9          2.2410   -3.0750    5.0640 ha        1 NUE      0.159500
@<TRIPOS>BOND
     1    1    2 ar  
     2    1    3 ar  
     3    1   29 1   
     4    2    4 ar  
     5    2   30 1   
     6    3    5 ar  
     7    3   31 1   
     8    4    6 ar  
     9    4   32 1   
    10    5    6 ar  
    11    6    7 1   
    12    7    8 1   
    13    7   33 1   
    14    8   10 1   
    15    8   15 2   
    16    8   16 2   
    17    9   10 ar  
    18    9   11 ar  
    19    9   47 1   
    20   10   12 ar  
    21   11   13 ar  
    22   11   34 1   
    23   12   14 ar  
    24   12   35 1   
    25   13   14 ar  
    26   13   17 1   
    27   14   36 1   
    28   17   18 2   
    29   18   19 1   
    30   19   20 ar  
    31   19   21 ar  
    32   20   22 ar  
    33   20   37 1   
    34   21   23 ar  
    35   21   25 1   
    36   22   24 ar  
    37   22   28 1   
    38   23   24 ar  
    39   23   26 1   
    40   24   27 1   
    41   25   38 1   
    42   25   39 1   
    43   26   40 1   
    44   26   41 1   
    45   26   42 1   
    46   27   43 1   
    47   28   44 1   
    48   28   45 1   
    49   28   46 1   
@<TRIPOS>SUBSTRUCTURE
     1 NUE         1 TEMP              0 ****  ****    0 ROOT
