@<TRIPOS>MOLECULE
NUE
   49    51     1     0     0
SMALL
bcc


@<TRIPOS>ATOM
      1 C1          2.6100    0.7360   -0.3400 ca        1 NUE     -0.181300
      2 C2          3.3450    1.3600    0.6610 ca        1 NUE     -0.063000
      3 C3          1.5970   -0.1790    0.0350 ca        1 NUE      0.439200
      4 C4          3.0660    1.0690    2.0050 ca        1 NUE     -0.189300
      5 N5          1.3020   -0.4800    1.3040 nb        1 NUE     -0.687000
      6 C6          2.0330    0.1490    2.2760 ca        1 NUE      0.449200
      7 N7          1.6780   -0.1760    3.6620 n4        1 NUE     -0.678600
      8 S8         -0.1250    0.3120    4.1010 sy        1 NUE      1.478200
      9 C9         -0.8630   -1.8450    5.4230 ca        1 NUE      0.029500
     10 C10        -0.7660   -1.1720    4.1860 ca        1 NUE     -0.517500
     11 C11        -1.4950   -3.0730    5.5330 ca        1 NUE     -0.149500
     12 C12        -1.3320   -1.7930    3.0550 ca        1 NUE      0.029500
     13 C13        -2.0480   -3.6840    4.3870 ca        1 NUE      0.219400
     14 C14        -1.9660   -3.0250    3.1430 ca        1 NUE     -0.149500
     15 O15         0.1160    0.8720    5.3410 o         1 NUE     -0.556300
     16 O16        -0.5620    1.0740    3.0460 o         1 NUE     -0.556300
     17 N17        -2.5370   -5.0340    4.4350 ne        1 NUE     -0.175400
     18 N18        -3.6420   -5.2900    4.9010 nf        1 NUE     -0.210400
     19 C19        -4.1000   -6.6510    4.9540 ca        1 NUE      0.057400
     20 C20        -3.3340   -7.7680    4.5840 ca        1 NUE     -0.043000
     21 C21        -5.4280   -6.8760    5.4300 ca        1 NUE     -0.002400
     22 C22        -3.8360   -9.0670    4.6730 ca        1 NUE     -0.104300
     23 C23        -5.9650   -8.1670    5.5300 ca        1 NUE     -0.063300
     24 C24        -5.1480   -9.2620    5.1440 ca        1 NUE      0.187100
     25 N25        -6.2540   -5.7300    5.8230 n4        1 NUE     -0.699000
     26 C26        -7.3420   -8.4170    6.0210 c3        1 NUE     -0.094800
     27 O27        -5.7260  -10.4900    5.2660 oh        1 NUE     -0.462100
     28 C28        -2.9960  -10.2200    4.2740 c3        1 NUE     -0.085800
     29 H1          2.8000    0.9400   -1.4060 ha        1 NUE      0.187000
     30 H2          4.1440    2.0800    0.4130 ha        1 NUE      0.185000
     31 H3          0.9870   -0.6980   -0.7320 h4        1 NUE      0.057100
     32 H4          3.6440    1.5570    2.8050 ha        1 NUE      0.171000
     33 HN7         1.8270   -1.1750    3.8090 hn        1 NUE      0.459800
     34 H11        -1.5520   -3.5680    6.5180 ha        1 NUE      0.177500
     35 H12        -1.2810   -1.2820    2.0720 ha        1 NUE      0.183000
     36 H14        -2.3950   -3.4790    2.2330 ha        1 NUE      0.177500
     37 H20        -2.3010   -7.6320    4.2110 ha        1 NUE      0.184000
     38 HN25       -6.3780   -5.1050    5.0180 hn        1 NUE      0.469800
     39 HN2A       -5.7880   -5.2150    6.5790 hn        1 NUE      0.469800
     40 H26        -7.5770   -9.5150    6.0210 hc        1 NUE      0.081700
     41 H26A       -7.4660   -8.0570    7.0740 hc        1 NUE      0.081700
     42 H26B       -8.1010   -7.9220    5.3610 hc        1 NUE      0.081700
     43 HO27       -5.1000  -11.1790    4.9810 ho        1 NUE      0.462000
     44 H28        -3.4810  -10.7880    3.4370 hc        1 NUE      0.077700
     45 H28A       -1.9860   -9.8880    3.9240 hc        1 NUE      0.077700
     46 H28B       -2.8490  -10.9160    5.1400 hc        1 NUE      0.077700
     47 H72         2.3240    0.3220    4.2790 hn        1 NUE      0.459800
     48 H253       -7.1770   -6.0460    6.1490 hn        1 NUE      0.469800
     49 H9         -0.4470   -1.3690    6.3330 ha        1 NUE      0.183000
@<TRIPOS>BOND
     1    1    2 ar  
     2    1    3 ar  
     3    1   29 1   
     4    2    4 ar  
     5    2   30 1   
     6    3    5 ar  
     7    3   31 1   
     8    4    6 ar  
     9    4   32 1   
    10    5    6 ar  
    11    6    7 1   
    12    7    8 1   
    13    7   33 1   
    14    7   47 1   
    15    8   10 1   
    16    8   15 2   
    17    8   16 2   
    18    9   10 ar  
    19    9   11 ar  
    20    9   49 1   
    21   10   12 ar  
    22   11   13 ar  
    23   11   34 1   
    24   12   14 ar  
    25   12   35 1   
    26   13   14 ar  
    27   13   17 1   
    28   14   36 1   
    29   17   18 2   
    30   18   19 1   
    31   19   20 ar  
    32   19   21 ar  
    33   20   22 ar  
    34   20   37 1   
    35   21   23 ar  
    36   21   25 1   
    37   22   24 ar  
    38   22   28 1   
    39   23   24 ar  
    40   23   26 1   
    41   24   27 1   
    42   25   38 1   
    43   25   39 1   
    44   25   48 1   
    45   26   40 1   
    46   26   41 1   
    47   26   42 1   
    48   27   43 1   
    49   28   44 1   
    50   28   45 1   
    51   28   46 1   
@<TRIPOS>SUBSTRUCTURE
     1 NUE         1 TEMP              0 ****  ****    0 ROOT
