@<TRIPOS>MOLECULE
NUP
   35    36     1     0     0
SMALL
bcc


@<TRIPOS>ATOM
      1 O4          0.0000    0.0000    0.0000 o         1 NUP     -0.734500
      2 C4          1.2190    0.0000    0.0000 c         1 NUP      0.626700
      3 N2          1.8970    0.0000    1.1660 ns        1 NUP     -0.139500
      4 C2          3.2430    0.0010    1.1740 c         1 NUP      0.598500
      5 O2          3.8350    0.0010    2.2360 o         1 NUP     -0.682500
      6 C5          1.9260   -0.0050   -1.2130 cc        1 NUP     -0.375200
      7 C6          3.2920   -0.0050   -1.1850 cd        1 NUP     -0.544400
      8 N3          4.0070   -0.0090   -2.3560 nz        1 NUP      0.365600
      9 N1          3.9430    0.0000    0.0250 n         1 NUP      0.083000
     10 C1'         5.4070    0.0000    0.0640 c3        1 NUP      0.205500
     11 O4'         5.8900   -0.9670    1.0190 os        1 NUP     -0.334600
     12 C2'         5.9390    1.3490    0.6150 c3        1 NUP      0.116100
     13 O2'         6.0640    2.3130   -0.4320 oh        1 NUP     -0.591800
     14 C3'         7.3270    0.9490    1.1680 c3        1 NUP      0.130100
     15 O3'         8.3510    1.2580    0.2200 oh        1 NUP     -0.577800
     16 C4'         7.2270   -0.5750    1.3750 c3        1 NUP      0.140100
     17 C5'         7.4970   -0.9190    2.8410 c3        1 NUP      0.294400
     18 O5'         7.5000   -2.3390    3.0050 os        1 NUP     -0.481200
     19 P           7.7540   -3.0580    4.4230 p5        1 NUP      0.804900
     20 O1P         6.5510   -2.6980    5.4310 o         1 NUP     -0.522833
     21 O2P         7.8180   -4.6530    4.2110 o         1 NUP     -0.522833
     22 O3P         9.0350   -2.5840    4.9940 o         1 NUP     -0.522833
     23 HN2         1.3960   -0.0000    2.0320 hn        1 NUP      0.196500
     24 H5          1.4030    0.1690   -2.1450 ha        1 NUP      0.125000
     25 HN31        4.5590    0.8240   -2.4120 hn        1 NUP      0.156467
     26 HN32        3.3760   -0.0450   -3.1320 hn        1 NUP      0.156467
     27 H1'         5.8210   -0.1970   -0.9170 h2        1 NUP     -0.000300
     28 H2'         5.3010    1.7150    1.4110 h1        1 NUP      0.053700
     29 HO2'        5.9140    3.1760   -0.0840 ho        1 NUP      0.391000
     30 H3'         7.5140    1.4460    2.1120 h1        1 NUP      0.023700
     31 HO3'        9.0090    1.7930    0.6320 ho        1 NUP      0.387000
     32 H4'         7.9400   -1.0800    0.7350 h1        1 NUP      0.034700
     33 H5'1        8.4600   -0.5200    3.1350 h1        1 NUP     -0.008800
     34 H5'2        6.7220   -0.4860    3.4630 h1        1 NUP     -0.008800
     35 H33         4.6080   -0.8090   -2.3770 hn        1 NUP      0.156467
@<TRIPOS>BOND
     1    1    2 2   
     2    2    3 1   
     3    2    6 1   
     4    3    4 1   
     5    3   23 1   
     6    4    5 2   
     7    4    9 1   
     8    6    7 2   
     9    6   24 1   
    10    7    8 1   
    11    7    9 1   
    12    8   25 1   
    13    8   26 1   
    14    8   35 1   
    15    9   10 1   
    16   10   11 1   
    17   10   12 1   
    18   10   27 1   
    19   11   16 1   
    20   12   13 1   
    21   12   14 1   
    22   12   28 1   
    23   13   29 1   
    24   14   15 1   
    25   14   16 1   
    26   14   30 1   
    27   15   31 1   
    28   16   17 1   
    29   16   32 1   
    30   17   18 1   
    31   17   33 1   
    32   17   34 1   
    33   18   19 1   
    34   19   20 1   
    35   19   21 1   
    36   19   22 1   
@<TRIPOS>SUBSTRUCTURE
     1 NUP         1 TEMP              0 ****  ****    0 ROOT
