@<TRIPOS>MOLECULE
NUP
   34    33     1     0     0
SMALL
bcc


@<TRIPOS>ATOM
      1 O4         -5.3880   -0.4040   -1.4740 o         1 NUP     -0.443000
      2 C4         -4.1860   -0.4480   -1.3060 c1        1 NUP      0.381000
      3 N2         -3.5460    0.5200   -0.4900 n2        1 NUP     -0.385000
      4 C2         -2.0890    0.5610   -0.4110 c2        1 NUP      0.413000
      5 O2         -1.5380    1.4640    0.1890 o         1 NUP     -0.388000
      6 C5         -3.3820   -1.4600   -2.0090 c2        1 NUP     -0.490000
      7 C6         -1.9200   -1.4680   -1.8530 c1        1 NUP      0.290000
      8 N3         -1.1490   -2.5100   -2.4340 n3        1 NUP     -0.319000
      9 N1         -1.2920   -0.4970   -1.0300 n2        1 NUP     -0.291000
     10 C1'         0.0800   -0.5470   -0.8200 c3        1 NUP      0.134000
     11 O4'         0.4060   -0.4590    0.7740 os        1 NUP     -0.279000
     12 C2'         0.6640    0.5040   -1.3750 c3        1 NUP     -0.090000
     13 O2'         1.1520    0.1630   -2.7220 oh        1 NUP     -0.360000
     14 C3'         1.8520    0.8380   -0.4450 c3        1 NUP      0.166000
     15 O3'         2.9990    0.4940   -1.0200 oh        1 NUP     -0.701000
     16 C4'         1.6190   -0.0140    0.8690 c3        1 NUP     -0.076000
     17 C5'         1.7630    0.8640    2.0990 c3        1 NUP      0.008000
     18 O5'         1.6090    0.0780    3.2580 os        1 NUP     -0.763000
     19 P           2.1040    0.6670    4.6390 p5        1 NUP      1.579500
     20 O1P         1.7340   -0.2820    5.7520 o         1 NUP     -0.726500
     21 O2P         1.4480    2.0040    4.8790 o         1 NUP     -0.726500
     22 O3P         3.6030    0.8400    4.6040 o         1 NUP     -0.726500
     23 HN2        -4.0460    1.1140   -0.0090 hn        1 NUP      0.238000
     24 H5         -3.8230   -2.1730   -2.5080 ha        1 NUP      0.152000
     25 HN31       -1.2470   -2.7100   -3.3210 hn        1 NUP      0.254500
     26 HN32       -0.5300   -2.9550   -1.9310 hn        1 NUP      0.254500
     27 H1'         0.4480   -1.3740   -1.1940 h2        1 NUP      0.132000
     28 H2'         0.0430    1.2570   -1.4180 h1        1 NUP      0.074000
     29 HO2'        1.1940    0.9000   -3.2180 ho        1 NUP      0.234000
     30 H3'         1.8540    1.7930   -0.2310 h1        1 NUP     -0.019000
     31 HO3'        3.5840    1.1610   -0.9380 ho        1 NUP      0.224000
     32 H4'         2.2510   -0.7590    0.9070 h1        1 NUP      0.111000
     33 H5'1        2.6500    1.2790    2.1010 h1        1 NUP      0.069000
     34 H5'2        1.0770    1.5620    2.0840 h1        1 NUP      0.069000
@<TRIPOS>BOND
     1    1    2 1   
     2    2    6 1   
     3    3    4 1   
     4    3   23 1   
     5    4    5 1   
     6    4    9 1   
     7    6    7 1   
     8    6   24 1   
     9    7    8 1   
    10    8   25 1   
    11    8   26 1   
    12    9   10 1   
    13   10   11 1   
    14   10   12 1   
    15   10   27 1   
    16   11   16 1   
    17   12   13 1   
    18   12   14 1   
    19   12   28 1   
    20   13   29 1   
    21   14   15 1   
    22   14   16 1   
    23   14   30 1   
    24   15   31 1   
    25   16   17 1   
    26   16   32 1   
    27   17   18 1   
    28   17   33 1   
    29   17   34 1   
    30   18   19 1   
    31   19   20 1   
    32   19   21 1   
    33   19   22 1   
@<TRIPOS>SUBSTRUCTURE
     1 NUP         1 TEMP              0 ****  ****    0 ROOT
