@<TRIPOS>MOLECULE
NUP
   34    35     1     0     0
SMALL
bcc


@<TRIPOS>ATOM
      1 O4         -5.1570   -2.7220    0.4840 o         1 NUP     -0.720500
      2 C4         -4.2530   -1.8520    0.5170 c         1 NUP      0.743700
      3 N2         -4.6240   -0.5680    0.9840 n         1 NUP     -0.598500
      4 C2         -3.7270    0.4990    1.0400 c         1 NUP      0.816500
      5 O2         -4.1360    1.6040    1.4840 o         1 NUP     -0.707500
      6 C5         -2.8890   -2.0190    0.1450 cc        1 NUP     -0.528200
      7 C6         -1.9480   -0.9650    0.2100 cd        1 NUP      0.388600
      8 N3         -0.6420   -1.2020   -0.0420 nh        1 NUP     -0.789600
      9 N1         -2.3770    0.3160    0.6510 n         1 NUP     -0.393000
     10 C1'        -1.5670    1.5320    0.4910 c3        1 NUP      0.252500
     11 O4'        -1.1420    1.6690   -0.8630 os        1 NUP     -0.442600
     12 C2'        -0.3100    1.6060    1.4200 c3        1 NUP      0.096100
     13 O2'        -0.4300    2.7320    2.2670 oh        1 NUP     -0.564800
     14 C3'         0.8810    1.7650    0.4560 c3        1 NUP      0.116100
     15 O3'         1.7400    2.8060    0.8460 oh        1 NUP     -0.618800
     16 C4'         0.2580    2.0390   -0.9270 c3        1 NUP      0.064100
     17 C5'         0.8820    1.2440   -2.1040 c3        1 NUP      0.231400
     18 O5'         2.2460    1.2420   -2.0850 os        1 NUP     -0.565200
     19 P           3.0550   -0.1010   -1.3370 p5        1 NUP      1.339900
     20 O1P         3.5260    0.6440   -0.1120 o         1 NUP     -0.926167
     21 O2P         1.8730   -0.9930   -1.0090 o         1 NUP     -0.926167
     22 O3P         4.0340   -0.5930   -2.3490 o         1 NUP     -0.926167
     23 HN2        -5.5600   -0.3900    1.2630 hn        1 NUP      0.324500
     24 H5         -2.5860   -3.0120   -0.2010 ha        1 NUP      0.159000
     25 HN31       -0.3750   -2.0870   -0.4190 hn        1 NUP      0.491800
     26 HN32        0.0700   -0.4940   -0.1850 hn        1 NUP      0.491800
     27 H1'        -2.2430    2.4170    0.7070 h2        1 NUP      0.093700
     28 H2'        -0.1840    0.6790    2.0410 h1        1 NUP      0.051700
     29 HO2'       -1.1680    2.5400    2.8590 ho        1 NUP      0.376000
     30 H3'         1.4800    0.7920    0.4100 h1        1 NUP      0.154700
     31 HO3'        2.6380    2.4780    0.6250 ho        1 NUP      0.473000
     32 H4'         0.2840    3.1400   -1.1420 h1        1 NUP      0.044700
     33 H5'1        0.4670    0.1980   -2.1060 h1        1 NUP     -0.000800
     34 H5'2        0.5290    1.7640   -3.0450 h1        1 NUP     -0.000800
@<TRIPOS>BOND
     1    1    2 2   
     2    2    3 1   
     3    2    6 1   
     4    3    4 1   
     5    3   23 1   
     6    4    5 2   
     7    4    9 1   
     8    6    7 2   
     9    6   24 1   
    10    7    8 1   
    11    7    9 1   
    12    8   25 1   
    13    8   26 1   
    14    9   10 1   
    15   10   11 1   
    16   10   12 1   
    17   10   27 1   
    18   11   16 1   
    19   12   13 1   
    20   12   14 1   
    21   12   28 1   
    22   13   29 1   
    23   14   15 1   
    24   14   16 1   
    25   14   30 1   
    26   15   31 1   
    27   16   17 1   
    28   16   32 1   
    29   17   18 1   
    30   17   33 1   
    31   17   34 1   
    32   18   19 1   
    33   19   20 1   
    34   19   21 1   
    35   19   22 1   
@<TRIPOS>SUBSTRUCTURE
     1 NUP         1 TEMP              0 ****  ****    0 ROOT
