@<TRIPOS>MOLECULE
NUT
   70    74     1     0     0
SMALL
bcc


@<TRIPOS>ATOM
      1 O3          0.9330    1.9440    0.1010 o         1 NUT     -0.604100
      2 C25         1.5950    0.8860    0.1910 c         1 NUT      0.777100
      3 N2          1.9190    0.3520    1.4580 n         1 NUT     -0.433800
      4 C29         2.1410   -1.0610    1.6480 c3        1 NUT      0.015000
      5 C28         1.0940   -1.7910    2.5000 c         1 NUT      0.673500
      6 O2          1.0650   -3.0380    2.5090 o         1 NUT     -0.651500
      7 N3          0.2320   -1.0700    3.2930 ns        1 NUT     -0.566900
      8 C27         0.1290    0.3600    3.2150 c3        1 NUT      0.067000
      9 C26         1.3890    1.0300    2.6240 c3        1 NUT      0.066000
     10 N1          2.0910    0.2140   -0.9710 n         1 NUT     -0.415300
     11 C10         1.3860    0.3010   -2.2280 ce        1 NUT      0.531500
     12 C9         -0.0860    0.2670   -2.2590 ca        1 NUT     -0.202900
     13 C3         -0.7990    1.3990   -2.6540 ca        1 NUT     -0.010000
     14 C2         -2.1900    1.3820   -2.7190 ca        1 NUT     -0.247000
     15 C5         -0.7840   -0.9190   -1.9280 ca        1 NUT      0.200100
     16 O1          0.0030   -1.9720   -1.5290 os        1 NUT     -0.327900
     17 C6         -0.6180   -3.2700   -1.4030 c3        1 NUT      0.141100
     18 C8         -0.9580   -3.8360   -2.7670 c3        1 NUT     -0.116600
     19 C7          0.4180   -4.1200   -0.6890 c3        1 NUT     -0.116600
     20 C4         -2.1800   -0.9530   -1.9900 ca        1 NUT     -0.248000
     21 C1         -2.8720    0.2060   -2.3850 ca        1 NUT      0.177100
     22 O          -4.2450    0.0680   -2.4090 os        1 NUT     -0.326900
     23 C          -4.9860    1.2130   -2.8180 c3        1 NUT      0.112700
     24 C18         3.5340    0.2130   -1.2780 c3        1 NUT      0.113000
     25 C19         4.3700    1.2690   -0.6240 ca        1 NUT     -0.102300
     26 C24         5.6070    0.8980   -0.0800 ca        1 NUT     -0.104000
     27 C23         6.4260    1.8440    0.5320 ca        1 NUT     -0.124000
     28 C22         6.0040    3.1750    0.6090 ca        1 NUT      0.024400
     29 Cl1         6.9960    4.3330    1.3590 cl        1 NUT     -0.092400
     30 C21         4.7700    3.5570    0.0750 ca        1 NUT     -0.124000
     31 C20         3.9590    2.6040   -0.5390 ca        1 NUT     -0.104000
     32 C11         3.5610    0.2420   -2.8780 c3        1 NUT      0.149800
     33 N           2.1520    0.3030   -3.2930 n2        1 NUT     -0.592900
     34 C12         4.4360    1.2960   -3.4810 ca        1 NUT     -0.068300
     35 C17         3.9670    2.5830   -3.7640 ca        1 NUT     -0.103000
     36 C16         4.8050    3.5280   -4.3550 ca        1 NUT     -0.126000
     37 C15         6.1240    3.1850   -4.6650 ca        1 NUT      0.022400
     38 Cl          7.1510    4.3350   -5.3830 cl        1 NUT     -0.095400
     39 C14         6.6040    1.9000   -4.3910 ca        1 NUT     -0.126000
     40 C13         5.7580    0.9620   -3.8070 ca        1 NUT     -0.103000
     41 H1          2.1960   -1.6180    0.6690 h1        1 NUT      0.096700
     42 H2          3.1270   -1.1870    2.1850 h1        1 NUT      0.096700
     43 H3         -0.4700   -1.5570    3.8020 hn        1 NUT      0.324500
     44 H4         -0.7660    0.6450    2.5880 h1        1 NUT      0.051700
     45 H5         -0.0310    0.7710    4.2520 h1        1 NUT      0.051700
     46 H6          2.2080    1.0280    3.3990 h1        1 NUT      0.081200
     47 H7          1.1330    2.0970    2.3710 h1        1 NUT      0.081200
     48 H9         -0.2520    2.3200   -2.9110 ha        1 NUT      0.147000
     49 H10        -2.7310    2.2860   -3.0300 ha        1 NUT      0.144000
     50 H11        -1.5400   -3.1780   -0.7660 h1        1 NUT      0.049700
     51 H12        -1.4110   -4.8490   -2.6480 hc        1 NUT      0.053033
     52 H13        -0.0350   -3.9230   -3.3900 hc        1 NUT      0.053033
     53 H14        -1.6810   -3.1730   -3.2990 hc        1 NUT      0.053033
     54 H15         1.3510   -4.1880   -1.2960 hc        1 NUT      0.053033
     55 H16         0.6710   -3.6760    0.3060 hc        1 NUT      0.053033
     56 H17         0.0030   -5.1450   -0.5380 hc        1 NUT      0.053033
     57 H18        -2.7550   -1.8560   -1.7450 ha        1 NUT      0.159000
     58 H19        -4.8140    2.0650   -2.1160 h1        1 NUT      0.047367
     59 H20        -4.7170    1.5040   -3.8630 h1        1 NUT      0.047367
     60 H21        -6.0490    0.8650   -2.7660 h1        1 NUT      0.047367
     61 H22         3.9160   -0.8000   -0.9540 h1        1 NUT      0.073700
     62 H23         5.9420   -0.1490   -0.1350 ha        1 NUT      0.144500
     63 H24         7.3980    1.5430    0.9510 ha        1 NUT      0.149500
     64 H25         4.4360    4.6040    0.1360 ha        1 NUT      0.149500
     65 H26         2.9850    2.9130   -0.9550 ha        1 NUT      0.144500
     66 H27         3.9480   -0.7680   -3.2100 h1        1 NUT      0.083700
     67 H30         2.9290    2.8640   -3.5270 ha        1 NUT      0.139000
     68 H31         4.4260    4.5370   -4.5760 ha        1 NUT      0.147000
     69 H32         7.6410    1.6290   -4.6390 ha        1 NUT      0.147000
     70 H33         6.1350   -0.0520   -3.6030 ha        1 NUT      0.139000
@<TRIPOS>BOND
     1    1    2 2   
     2    2    3 1   
     3    2   10 1   
     4    3    4 1   
     5    3    9 1   
     6    4    5 1   
     7    4   41 1   
     8    4   42 1   
     9    5    6 2   
    10    5    7 1   
    11    7    8 1   
    12    7   43 1   
    13    8    9 1   
    14    8   44 1   
    15    8   45 1   
    16    9   46 1   
    17    9   47 1   
    18   10   11 1   
    19   10   24 1   
    20   11   12 1   
    21   11   33 2   
    22   12   13 ar  
    23   12   15 ar  
    24   13   14 ar  
    25   13   48 1   
    26   14   21 ar  
    27   14   49 1   
    28   15   16 1   
    29   15   20 ar  
    30   16   17 1   
    31   17   18 1   
    32   17   19 1   
    33   17   50 1   
    34   18   51 1   
    35   18   52 1   
    36   18   53 1   
    37   19   54 1   
    38   19   55 1   
    39   19   56 1   
    40   20   21 ar  
    41   20   57 1   
    42   21   22 1   
    43   22   23 1   
    44   23   58 1   
    45   23   59 1   
    46   23   60 1   
    47   24   25 1   
    48   24   32 1   
    49   24   61 1   
    50   25   26 ar  
    51   25   31 ar  
    52   26   27 ar  
    53   26   62 1   
    54   27   28 ar  
    55   27   63 1   
    56   28   29 1   
    57   28   30 ar  
    58   30   31 ar  
    59   30   64 1   
    60   31   65 1   
    61   32   33 1   
    62   32   34 1   
    63   32   66 1   
    64   34   35 ar  
    65   34   40 ar  
    66   35   36 ar  
    67   35   67 1   
    68   36   37 ar  
    69   36   68 1   
    70   37   38 1   
    71   37   39 ar  
    72   39   40 ar  
    73   39   69 1   
    74   40   70 1   
@<TRIPOS>SUBSTRUCTURE
     1 NUT         1 TEMP              0 ****  ****    0 ROOT
