@<TRIPOS>MOLECULE
NUT
   70    74     1     0     0
SMALL
bcc


@<TRIPOS>ATOM
      1 O3          0.9240    1.9410    0.0980 o         1 NUT     -0.604100
      2 C25         1.5900    0.8880    0.1900 c         1 NUT      0.777100
      3 N2          1.9130    0.3540    1.4580 n         1 NUT     -0.433800
      4 C29         2.1420   -1.0580    1.6480 c3        1 NUT      0.015000
      5 C28         1.0960   -1.7940    2.4960 c         1 NUT      0.673500
      6 O2          1.0740   -3.0420    2.5030 o         1 NUT     -0.651500
      7 N3          0.2280   -1.0770    3.2860 n         1 NUT     -0.566900
      8 C27         0.1180    0.3520    3.2080 c3        1 NUT      0.067000
      9 C26         1.3760    1.0280    2.6230 c3        1 NUT      0.066000
     10 N1          2.0940    0.2180   -0.9710 n         1 NUT     -0.415300
     11 C10         1.3930    0.3030   -2.2300 ce        1 NUT      0.531500
     12 C9         -0.0790    0.2610   -2.2660 ca        1 NUT     -0.202900
     13 C3         -0.7970    1.3890   -2.6630 ca        1 NUT     -0.010000
     14 C2         -2.1880    1.3660   -2.7320 ca        1 NUT     -0.247000
     15 C5         -0.7720   -0.9290   -1.9380 ca        1 NUT      0.200100
     16 O1          0.0190   -1.9780   -1.5380 os        1 NUT     -0.327900
     17 C6         -0.5960   -3.2790   -1.4150 c3        1 NUT      0.141100
     18 C8         -0.9280   -3.8460   -2.7790 c3        1 NUT     -0.116600
     19 C7          0.4420   -4.1250   -0.6970 c3        1 NUT     -0.116600
     20 C4         -2.1680   -0.9700   -2.0050 ca        1 NUT     -0.248000
     21 C1         -2.8650    0.1850   -2.4010 ca        1 NUT      0.177100
     22 O          -4.2360    0.0410   -2.4310 os        1 NUT     -0.326900
     23 C          -4.9820    1.1820   -2.8410 c3        1 NUT      0.112700
     24 C18         3.5380    0.2250   -1.2730 c3        1 NUT      0.113000
     25 C19         4.3660    1.2850   -0.6150 ca        1 NUT     -0.102300
     26 C24         5.6030    0.9200   -0.0680 ca        1 NUT     -0.104000
     27 C23         6.4150    1.8690    0.5470 ca        1 NUT     -0.124000
     28 C22         5.9860    3.1980    0.6250 ca        1 NUT      0.024400
     29 CL1         6.9700    4.3600    1.3790 cl        1 NUT     -0.092400
     30 C21         4.7520    3.5740    0.0870 ca        1 NUT     -0.124000
     31 C20         3.9480    2.6180   -0.5310 ca        1 NUT     -0.104000
     32 C11         3.5700    0.2560   -2.8730 c3        1 NUT      0.149800
     33 N           2.1620    0.3100   -3.2930 n2        1 NUT     -0.592900
     34 C12         4.4410    1.3150   -3.4720 ca        1 NUT     -0.068300
     35 C17         3.9660    2.6000   -3.7560 ca        1 NUT     -0.103000
     36 C16         4.8010    3.5500   -4.3430 ca        1 NUT     -0.126000
     37 C15         6.1220    3.2140   -4.6490 ca        1 NUT      0.022400
     38 CL          7.1450    4.3700   -5.3620 cl        1 NUT     -0.095400
     39 C14         6.6090    1.9320   -4.3750 ca        1 NUT     -0.126000
     40 C13         5.7660    0.9890   -3.7940 ca        1 NUT     -0.103000
     41 H1          2.2030   -1.6140    0.6690 h1        1 NUT      0.096700
     42 H2          3.1270   -1.1790    2.1880 h1        1 NUT      0.096700
     43 H3         -0.4730   -1.5680    3.7920 hn        1 NUT      0.324500
     44 H4         -0.7770    0.6320    2.5790 h1        1 NUT      0.051700
     45 H5         -0.0480    0.7610    4.2460 h1        1 NUT      0.051700
     46 H6          2.1930    1.0310    3.4000 h1        1 NUT      0.081200
     47 H7          1.1150    2.0940    2.3690 h1        1 NUT      0.081200
     48 H9         -0.2530    2.3130   -2.9180 ha        1 NUT      0.147000
     49 H10        -2.7320    2.2670   -3.0440 ha        1 NUT      0.144000
     50 H11        -1.5200   -3.1920   -0.7800 h1        1 NUT      0.049700
     51 H12        -1.6530   -3.1870   -3.3140 hc        1 NUT      0.053033
     52 H13        -0.0030   -3.9280   -3.4000 hc        1 NUT      0.053033
     53 H14        -1.3770   -4.8610   -2.6630 hc        1 NUT      0.053033
     54 H15         1.3780   -4.1870   -1.3010 hc        1 NUT      0.053033
     55 H16         0.0330   -5.1510   -0.5480 hc        1 NUT      0.053033
     56 H17         0.6890   -3.6790    0.2990 hc        1 NUT      0.053033
     57 H18        -2.7390   -1.8760   -1.7620 ha        1 NUT      0.159000
     58 H19        -6.0430    0.8290   -2.7920 h1        1 NUT      0.047367
     59 H20        -4.7110    1.4750   -3.8850 h1        1 NUT      0.047367
     60 H21        -4.8160    2.0340   -2.1380 h1        1 NUT      0.047367
     61 H22         3.9240   -0.7870   -0.9490 h1        1 NUT      0.073700
     62 H23         5.9440   -0.1260   -0.1220 ha        1 NUT      0.144500
     63 H24         7.3870    1.5730    0.9700 ha        1 NUT      0.149500
     64 H25         4.4130    4.6200    0.1480 ha        1 NUT      0.149500
     65 H26         2.9740    2.9220   -0.9500 ha        1 NUT      0.144500
     66 H27         3.9630   -0.7510   -3.2050 h1        1 NUT      0.083700
     67 H30         2.9260    2.8750   -3.5220 ha        1 NUT      0.139000
     68 H31         4.4170    4.5570   -4.5640 ha        1 NUT      0.147000
     69 H32         7.6480    1.6670   -4.6200 ha        1 NUT      0.147000
     70 H33         6.1480   -0.0230   -3.5910 ha        1 NUT      0.139000
@<TRIPOS>BOND
     1    1    2 2   
     2    2    3 1   
     3    2   10 1   
     4    3    4 1   
     5    3    9 1   
     6    4    5 1   
     7    4   41 1   
     8    4   42 1   
     9    5    6 2   
    10    5    7 1   
    11    7    8 1   
    12    7   43 1   
    13    8    9 1   
    14    8   44 1   
    15    8   45 1   
    16    9   46 1   
    17    9   47 1   
    18   10   11 1   
    19   10   24 1   
    20   11   12 1   
    21   11   33 2   
    22   12   13 ar  
    23   12   15 ar  
    24   13   14 ar  
    25   13   48 1   
    26   14   21 ar  
    27   14   49 1   
    28   15   16 1   
    29   15   20 ar  
    30   16   17 1   
    31   17   18 1   
    32   17   19 1   
    33   17   50 1   
    34   18   51 1   
    35   18   52 1   
    36   18   53 1   
    37   19   54 1   
    38   19   55 1   
    39   19   56 1   
    40   20   21 ar  
    41   20   57 1   
    42   21   22 1   
    43   22   23 1   
    44   23   58 1   
    45   23   59 1   
    46   23   60 1   
    47   24   25 1   
    48   24   32 1   
    49   24   61 1   
    50   25   26 ar  
    51   25   31 ar  
    52   26   27 ar  
    53   26   62 1   
    54   27   28 ar  
    55   27   63 1   
    56   28   29 1   
    57   28   30 ar  
    58   30   31 ar  
    59   30   64 1   
    60   31   65 1   
    61   32   33 1   
    62   32   34 1   
    63   32   66 1   
    64   34   35 ar  
    65   34   40 ar  
    66   35   36 ar  
    67   35   67 1   
    68   36   37 ar  
    69   36   68 1   
    70   37   38 1   
    71   37   39 ar  
    72   39   40 ar  
    73   39   69 1   
    74   40   70 1   
@<TRIPOS>SUBSTRUCTURE
     1 NUT         1 TEMP              0 ****  ****    0 ROOT
