@<TRIPOS>MOLECULE
NUT
   70    74     1     0     0
SMALL
bcc


@<TRIPOS>ATOM
      1 O3          0.6890   -0.4360   -2.0500 o         1 NUT     -0.604100
      2 C25         0.5690   -1.0670   -0.9780 c         1 NUT      0.777100
      3 N2          0.4800   -2.4770   -0.9850 n         1 NUT     -0.433800
      4 C29         0.9080   -3.2670    0.1440 c3        1 NUT      0.015000
      5 C28         2.1450   -4.1460   -0.0890 c         1 NUT      0.673500
      6 O2          2.7290   -4.6620    0.8850 o         1 NUT     -0.651500
      7 N3          2.5670   -4.4070   -1.3720 n         1 NUT     -0.566900
      8 C27         2.0210   -3.7310   -2.5140 c3        1 NUT      0.067000
      9 C26         0.6140   -3.1480   -2.2620 c3        1 NUT      0.066000
     10 N1          0.4630   -0.3920    0.2800 n         1 NUT     -0.415300
     11 C10         1.0920    0.8920    0.4800 ce        1 NUT      0.531500
     12 C9          2.4230    1.1650   -0.0870 ca        1 NUT     -0.202900
     13 C3          2.5660    2.1080   -1.1040 ca        1 NUT     -0.010000
     14 C2          3.8180    2.4040   -1.6370 ca        1 NUT     -0.247000
     15 C5          3.5690    0.5030    0.4180 ca        1 NUT      0.200100
     16 O1          3.3250   -0.4250    1.4020 os        1 NUT     -0.327900
     17 C6          4.4570   -0.9620    2.1180 c3        1 NUT      0.141100
     18 C8          5.0560    0.0840    3.0360 c3        1 NUT     -0.116600
     19 C7          3.8900   -2.1330    2.9030 c3        1 NUT     -0.116600
     20 C4          4.8330    0.7890   -0.1050 ca        1 NUT     -0.248000
     21 C1          4.9440    1.7410   -1.1340 ca        1 NUT      0.177100
     22 O           6.2330    1.9470   -1.5810 os        1 NUT     -0.326900
     23 C           6.3950    2.9140   -2.6140 c3        1 NUT      0.112700
     24 C18        -0.8170   -0.3700    1.0140 c3        1 NUT      0.113000
     25 C19        -2.0570   -0.6680    0.2290 ca        1 NUT     -0.102300
     26 C24        -3.0130   -1.5240    0.7920 ca        1 NUT     -0.104000
     27 C23        -4.1870   -1.8260    0.1070 ca        1 NUT     -0.124000
     28 C22        -4.4080   -1.2730   -1.1580 ca        1 NUT      0.024400
     29 CL1        -5.8370   -1.6420   -2.0020 cl        1 NUT     -0.092400
     30 C21        -3.4610   -0.4220   -1.7340 ca        1 NUT     -0.124000
     31 C20        -2.2910   -0.1230   -1.0380 ca        1 NUT     -0.104000
     32 C11        -0.8040    1.0680    1.7160 c3        1 NUT      0.149800
     33 N           0.4400    1.7120    1.2700 n2        1 NUT     -0.592900
     34 C12        -2.0400    1.8870    1.5090 ca        1 NUT     -0.068300
     35 C17        -2.1890    2.7520    0.4200 ca        1 NUT     -0.103000
     36 C16        -3.3430    3.5220    0.2800 ca        1 NUT     -0.126000
     37 C15        -4.3580    3.4270    1.2350 ca        1 NUT      0.022400
     38 CL         -5.7680    4.3620    1.0670 cl        1 NUT     -0.095400
     39 C14        -4.2200    2.5700    2.3310 ca        1 NUT     -0.126000
     40 C13        -3.0620    1.8100    2.4660 ca        1 NUT     -0.103000
     41 H1          1.1390   -2.6310    1.0450 h1        1 NUT      0.096700
     42 H2          0.0670   -3.9720    0.4120 h1        1 NUT      0.096700
     43 H3          3.3970   -4.9390   -1.5030 hn        1 NUT      0.324500
     44 H4          2.7130   -2.8960   -2.8310 h1        1 NUT      0.051700
     45 H5          1.9480   -4.4620   -3.3700 h1        1 NUT      0.051700
     46 H6         -0.1420   -3.9850   -2.2680 h1        1 NUT      0.081200
     47 H7          0.3720   -2.4380   -3.1020 h1        1 NUT      0.081200
     48 H9          1.6720    2.6210   -1.4940 ha        1 NUT      0.147000
     49 H10         3.9060    3.1480   -2.4390 ha        1 NUT      0.144000
     50 H11         5.2200   -1.3330    1.3790 h1        1 NUT      0.049700
     51 H12         4.2900    0.4440    3.7640 hc        1 NUT      0.053033
     52 H13         5.9120   -0.3600    3.5990 hc        1 NUT      0.053033
     53 H14         5.4220    0.9600    2.4480 hc        1 NUT      0.053033
     54 H15         3.4350   -2.8840    2.2110 hc        1 NUT      0.053033
     55 H16         4.7150   -2.6170    3.4770 hc        1 NUT      0.053033
     56 H17         3.1060   -1.7820    3.6140 hc        1 NUT      0.053033
     57 H18         5.7430    0.3000    0.2650 ha        1 NUT      0.159000
     58 H19         6.0570    3.9200   -2.2680 h1        1 NUT      0.047367
     59 H20         7.4990    2.9100   -2.8010 h1        1 NUT      0.047367
     60 H21         5.8380    2.6060   -3.5320 h1        1 NUT      0.047367
     61 H22        -0.7140   -1.1440    1.8320 h1        1 NUT      0.073700
     62 H23        -2.8410   -1.9640    1.7860 ha        1 NUT      0.144500
     63 H24        -4.9330   -2.4950    0.5610 ha        1 NUT      0.149500
     64 H25        -3.6330    0.0130   -2.7300 ha        1 NUT      0.149500
     65 H26        -1.5460    0.5470   -1.5000 ha        1 NUT      0.144500
     66 H27        -0.6880    0.8820    2.8250 h1        1 NUT      0.083700
     67 H30        -1.3940    2.8380   -0.3370 ha        1 NUT      0.139000
     68 H31        -3.4490    4.2020   -0.5790 ha        1 NUT      0.147000
     69 H32        -5.0180    2.4980    3.0860 ha        1 NUT      0.147000
     70 H33        -2.9510    1.1450    3.3360 ha        1 NUT      0.139000
@<TRIPOS>BOND
     1    1    2 2   
     2    2    3 1   
     3    2   10 1   
     4    3    4 1   
     5    3    9 1   
     6    4    5 1   
     7    4   41 1   
     8    4   42 1   
     9    5    6 2   
    10    5    7 1   
    11    7    8 1   
    12    7   43 1   
    13    8    9 1   
    14    8   44 1   
    15    8   45 1   
    16    9   46 1   
    17    9   47 1   
    18   10   11 1   
    19   10   24 1   
    20   11   12 1   
    21   11   33 2   
    22   12   13 ar  
    23   12   15 ar  
    24   13   14 ar  
    25   13   48 1   
    26   14   21 ar  
    27   14   49 1   
    28   15   16 1   
    29   15   20 ar  
    30   16   17 1   
    31   17   18 1   
    32   17   19 1   
    33   17   50 1   
    34   18   51 1   
    35   18   52 1   
    36   18   53 1   
    37   19   54 1   
    38   19   55 1   
    39   19   56 1   
    40   20   21 ar  
    41   20   57 1   
    42   21   22 1   
    43   22   23 1   
    44   23   58 1   
    45   23   59 1   
    46   23   60 1   
    47   24   25 1   
    48   24   32 1   
    49   24   61 1   
    50   25   26 ar  
    51   25   31 ar  
    52   26   27 ar  
    53   26   62 1   
    54   27   28 ar  
    55   27   63 1   
    56   28   29 1   
    57   28   30 ar  
    58   30   31 ar  
    59   30   64 1   
    60   31   65 1   
    61   32   33 1   
    62   32   34 1   
    63   32   66 1   
    64   34   35 ar  
    65   34   40 ar  
    66   35   36 ar  
    67   35   67 1   
    68   36   37 ar  
    69   36   68 1   
    70   37   38 1   
    71   37   39 ar  
    72   39   40 ar  
    73   39   69 1   
    74   40   70 1   
@<TRIPOS>SUBSTRUCTURE
     1 NUT         1 TEMP              0 ****  ****    0 ROOT
