@<TRIPOS>MOLECULE
NUT
   70    66     1     0     0
SMALL
bcc


@<TRIPOS>ATOM
      1 O3         -3.5460    0.7060    1.1550 o         1 NUT     -0.353000
      2 C25        -2.3590    0.7020    1.1600 c1        1 NUT      0.372000
      3 N2         -1.6380    0.8320    2.4240 n2        1 NUT     -0.268000
      4 C29        -2.2910    0.9560    3.6680 c3        1 NUT     -0.075000
      5 C28        -1.6690    2.2190    4.4530 c2        1 NUT      0.285000
      6 O2         -2.3440    2.8030    5.3760 o         1 NUT     -0.363000
      7 N3         -0.2480    2.2000    4.5080 n         1 NUT     -0.382000
      8 C27         0.3590    1.9750    3.2140 c3        1 NUT     -0.049000
      9 C26        -0.1700    0.8280    2.5060 c3        1 NUT     -0.075000
     10 N1         -1.5960    0.7250   -0.1520 n3        1 NUT     -0.300000
     11 C10        -0.2560    0.7210   -0.3170 c2        1 NUT      0.142000
     12 C9          0.6660    0.1450    0.8050 c1        1 NUT     -0.104000
     13 C3          0.3160   -1.0250    1.4560 c1        1 NUT     -0.130500
     14 C2          1.2110   -1.6170    2.3580 c1        1 NUT     -0.130500
     15 C5          1.9230    0.7360    1.0530 c1        1 NUT      0.143000
     16 O1          2.2970    1.9160    0.3810 os        1 NUT     -0.226000
     17 C6          3.6810    1.9380   -0.0290 c3        1 NUT      0.033000
     18 C8          3.7570    2.0510   -1.5390 c3        1 NUT     -0.230000
     19 C7          4.3990    3.1730    0.6350 c3        1 NUT     -0.230000
     20 C4          2.8120    0.1370    1.9570 c1        1 NUT     -0.233000
     21 C1          2.4640   -1.0240    2.6020 c1        1 NUT      0.127000
     22 O           3.2910   -1.5070    3.7090 os        1 NUT     -0.207000
     23 C           3.8430   -2.7670    3.4940 c3        1 NUT     -0.078000
     24 C18        -2.1440    0.7530   -1.4700 c3        1 NUT      0.040000
     25 C19        -2.9190   -0.3660   -1.6990 c2        1 NUT     -0.072000
     26 C24        -3.9330   -0.3370   -2.7140 c2        1 NUT     -0.097000
     27 C23        -4.7610   -1.4150   -2.8890 c1        1 NUT     -0.124000
     28 C22        -4.6200   -2.5380   -2.0840 c1        1 NUT     -0.054000
     29 CL1        -5.6250   -3.9120   -2.3430 cl        1 NUT     -0.016000
     30 C21        -3.6140   -2.5710   -1.0760 c1        1 NUT     -0.127500
     31 C20        -2.7770   -1.4820   -0.8970 c1        1 NUT     -0.094000
     32 C11        -0.8040    0.7530   -2.5010 c3        1 NUT     -0.029000
     33 N           0.1590    0.7270   -1.5550 n2        1 NUT     -0.173000
     34 C12        -0.7590   -0.3860   -3.4990 c2        1 NUT     -0.057000
     35 C17        -1.2710   -0.2210   -4.7400 c2        1 NUT     -0.116000
     36 C16        -1.1990   -1.2720   -5.6740 c1        1 NUT     -0.125000
     37 C15        -0.5980   -2.4850   -5.3150 c1        1 NUT     -0.054000
     38 CL         -0.4750   -3.7160   -6.4300 cl        1 NUT     -0.016000
     39 C14        -0.0830   -2.6490   -4.0660 c1        1 NUT     -0.127500
     40 C13        -0.1520   -1.6170   -3.1450 c1        1 NUT     -0.090000
     41 H1         -3.2590    0.8700    3.5790 h1        1 NUT      0.139500
     42 H2         -2.1030    0.1920    4.2180 h1        1 NUT      0.139500
     43 H3          0.1710    2.6790    5.1050 hn        1 NUT      0.237000
     44 H4          0.2140    2.7820    2.6540 h1        1 NUT      0.084500
     45 H5          1.3630    1.8400    3.3440 h1        1 NUT      0.084500
     46 H6          0.1150    0.0360    2.9490 h1        1 NUT      0.121500
     47 H7          0.1970    0.8320    1.5810 h1        1 NUT      0.121500
     48 H9         -0.5740   -1.4470    1.2840 ha        1 NUT      0.147500
     49 H10         0.9740   -2.4150    2.8020 ha        1 NUT      0.147500
     50 H11         4.1360    1.0810    0.2690 h1        1 NUT      0.099000
     51 H12         4.2120    1.2660   -1.9000 hc        1 NUT      0.088667
     52 H13         4.2650    2.8800   -1.7930 hc        1 NUT      0.088667
     53 H14         2.8970    2.0960   -1.8860 hc        1 NUT      0.088667
     54 H15         3.7200    3.7220    1.1340 hc        1 NUT      0.088667
     55 H16         5.0700    2.8660    1.2430 hc        1 NUT      0.088667
     56 H17         4.8210    3.7300   -0.0700 hc        1 NUT      0.088667
     57 H18         3.7190    0.5630    2.1360 ha        1 NUT      0.160000
     58 H19         4.3070   -2.7700    2.6850 h1        1 NUT      0.088333
     59 H20         4.4900   -2.9930    4.2590 h1        1 NUT      0.088333
     60 H21         3.1140   -3.4490    3.4620 h1        1 NUT      0.088333
     61 H22        -2.6890    1.5870   -1.6010 h1        1 NUT      0.120000
     62 H23        -4.0380    0.4910   -3.3100 ha        1 NUT      0.138000
     63 H24        -5.4530   -1.3930   -3.5810 ha        1 NUT      0.149000
     64 H25        -3.5150   -3.3630   -0.5090 ha        1 NUT      0.147000
     65 H26        -2.0190   -1.5070   -0.1390 ha        1 NUT      0.138000
     66 H27        -0.7600    1.5130   -3.0550 h1        1 NUT      0.115000
     67 H30        -1.6920    0.6310   -4.9900 ha        1 NUT      0.133000
     68 H31        -1.5780   -1.1520   -6.5920 ha        1 NUT      0.148000
     69 H32         0.3450   -3.5180   -3.8120 ha        1 NUT      0.147000
     70 H33         0.2200   -1.7400   -2.2470 ha        1 NUT      0.148000
@<TRIPOS>BOND
     1    1    2 1   
     2    2   10 1   
     3    3    4 1   
     4    3    9 1   
     5    4    5 1   
     6    4   41 1   
     7    4   42 1   
     8    5    6 1   
     9    5    7 1   
    10    7    8 1   
    11    7   43 1   
    12    8    9 1   
    13    8   44 1   
    14    8   45 1   
    15    9   46 1   
    16    9   47 1   
    17   10   11 1   
    18   10   24 1   
    19   11   12 1   
    20   11   33 1   
    21   12   15 1   
    22   13   14 1   
    23   13   48 1   
    24   14   49 1   
    25   15   16 1   
    26   16   17 1   
    27   17   18 1   
    28   17   19 1   
    29   17   50 1   
    30   18   51 1   
    31   18   52 1   
    32   18   53 1   
    33   19   54 1   
    34   19   55 1   
    35   19   56 1   
    36   20   21 1   
    37   20   57 1   
    38   21   22 1   
    39   22   23 1   
    40   23   58 1   
    41   23   59 1   
    42   23   60 1   
    43   24   25 1   
    44   24   32 1   
    45   24   61 1   
    46   25   26 1   
    47   25   31 1   
    48   26   27 1   
    49   26   62 1   
    50   27   63 1   
    51   28   29 1   
    52   28   30 1   
    53   30   64 1   
    54   31   65 1   
    55   32   33 1   
    56   32   34 1   
    57   32   66 1   
    58   34   35 1   
    59   34   40 1   
    60   35   36 1   
    61   35   67 1   
    62   36   68 1   
    63   37   38 1   
    64   37   39 1   
    65   39   69 1   
    66   40   70 1   
@<TRIPOS>SUBSTRUCTURE
     1 NUT         1 TEMP              0 ****  ****    0 ROOT
