@<TRIPOS>MOLECULE
NUT
   70    74     1     0     0
SMALL
bcc


@<TRIPOS>ATOM
      1 O3          0.9170    1.9460    0.0870 o         1 NUT     -0.604100
      2 C25         1.5830    0.8930    0.1870 c         1 NUT      0.777100
      3 N2          1.9010    0.3670    1.4590 n         1 NUT     -0.433800
      4 C29         2.1300   -1.0440    1.6590 c3        1 NUT      0.015000
      5 C28         1.0800   -1.7750    2.5070 c         1 NUT      0.673500
      6 O2          1.0570   -3.0220    2.5220 o         1 NUT     -0.651500
      7 N3          0.2090   -1.0530    3.2900 n         1 NUT     -0.566900
      8 C27         0.1000    0.3750    3.2040 c3        1 NUT      0.067000
      9 C26         1.3610    1.0480    2.6180 c3        1 NUT      0.066000
     10 N1          2.0900    0.2160   -0.9670 n         1 NUT     -0.414300
     11 C10         1.3940    0.2940   -2.2300 ce        1 NUT      0.531500
     12 C9         -0.0780    0.2540   -2.2710 ca        1 NUT     -0.202900
     13 C3         -0.7930    1.3800   -2.6760 ca        1 NUT     -0.010000
     14 C2         -2.1840    1.3570   -2.7510 ca        1 NUT     -0.247000
     15 C5         -0.7730   -0.9340   -1.9390 ca        1 NUT      0.200100
     16 O1          0.0160   -1.9820   -1.5300 os        1 NUT     -0.327900
     17 C6         -0.6010   -3.2810   -1.4010 c3        1 NUT      0.141100
     18 C8         -0.9290   -3.8570   -2.7630 c3        1 NUT     -0.116600
     19 C7          0.4340   -4.1240   -0.6750 c3        1 NUT     -0.116600
     20 C4         -2.1690   -0.9740   -2.0100 ca        1 NUT     -0.249000
     21 C1         -2.8630    0.1790   -2.4160 ca        1 NUT      0.177100
     22 O          -4.2350    0.0350   -2.4490 os        1 NUT     -0.326900
     23 C          -4.9780    1.1760   -2.8680 c3        1 NUT      0.112700
     24 C18         3.5350    0.2200   -1.2650 c3        1 NUT      0.113000
     25 C19         4.3620    1.2830   -0.6100 ca        1 NUT     -0.102300
     26 C24         5.5970    0.9200   -0.0560 ca        1 NUT     -0.104000
     27 C23         6.4080    1.8720    0.5560 ca        1 NUT     -0.124000
     28 C22         5.9790    3.2010    0.6240 ca        1 NUT      0.024400
     29 CL1         6.9620    4.3670    1.3760 cl        1 NUT     -0.092400
     30 C21         4.7480    3.5760    0.0810 ca        1 NUT     -0.124000
     31 C20         3.9450    2.6160   -0.5350 ca        1 NUT     -0.104000
     32 C11         3.5730    0.2410   -2.8650 c3        1 NUT      0.149800
     33 N           2.1670    0.2940   -3.2900 n2        1 NUT     -0.592900
     34 C12         4.4470    1.2960   -3.4670 ca        1 NUT     -0.068300
     35 C17         3.9750    2.5800   -3.7590 ca        1 NUT     -0.103000
     36 C16         4.8120    3.5260   -4.3490 ca        1 NUT     -0.126000
     37 C15         6.1340    3.1880   -4.6490 ca        1 NUT      0.022400
     38 CL          7.1600    4.3390   -5.3650 cl        1 NUT     -0.095400
     39 C14         6.6180    1.9070   -4.3660 ca        1 NUT     -0.126000
     40 C13         5.7720    0.9670   -3.7830 ca        1 NUT     -0.103000
     41 H1          2.1950   -1.6060    0.6830 h1        1 NUT      0.096700
     42 H2          3.1130   -1.1620    2.2040 h1        1 NUT      0.096700
     43 H3         -0.4940   -1.5410    3.7960 hn        1 NUT      0.324500
     44 H4         -0.7920    0.6530    2.5700 h1        1 NUT      0.051700
     45 H5         -0.0690    0.7910    4.2380 h1        1 NUT      0.051700
     46 H6          2.1750    1.0550    3.3980 h1        1 NUT      0.081200
     47 H7          1.1010    2.1130    2.3580 h1        1 NUT      0.081200
     48 H9         -0.2480    2.3020   -2.9340 ha        1 NUT      0.147000
     49 H10        -2.7260    2.2570   -3.0690 ha        1 NUT      0.144000
     50 H11        -1.5280   -3.1890   -0.7700 h1        1 NUT      0.049700
     51 H12        -1.6510   -3.2000   -3.3040 hc        1 NUT      0.053033
     52 H13        -1.3790   -4.8710   -2.6420 hc        1 NUT      0.053033
     53 H14        -0.0020   -3.9440   -3.3800 hc        1 NUT      0.053033
     54 H15         1.3720   -4.1910   -1.2750 hc        1 NUT      0.053033
     55 H16         0.0220   -5.1490   -0.5200 hc        1 NUT      0.053033
     56 H17         0.6780   -3.6720    0.3190 hc        1 NUT      0.053033
     57 H18        -2.7410   -1.8790   -1.7650 ha        1 NUT      0.159000
     58 H19        -4.7030    1.4630   -3.9110 h1        1 NUT      0.047367
     59 H20        -4.8140    2.0310   -2.1680 h1        1 NUT      0.047367
     60 H21        -6.0400    0.8240   -2.8200 h1        1 NUT      0.047367
     61 H22         3.9200   -0.7900   -0.9330 h1        1 NUT      0.073700
     62 H23         5.9370   -0.1260   -0.1040 ha        1 NUT      0.144500
     63 H24         7.3780    1.5770    0.9840 ha        1 NUT      0.149500
     64 H25         4.4090    4.6220    0.1340 ha        1 NUT      0.149500
     65 H26         2.9730    2.9190   -0.9590 ha        1 NUT      0.144500
     66 H27         3.9670   -0.7680   -3.1890 h1        1 NUT      0.083700
     67 H30         2.9340    2.8570   -3.5300 ha        1 NUT      0.139000
     68 H31         4.4300    4.5320   -4.5770 ha        1 NUT      0.147000
     69 H32         7.6580    1.6390   -4.6060 ha        1 NUT      0.147000
     70 H33         6.1540   -0.0440   -3.5720 ha        1 NUT      0.139000
@<TRIPOS>BOND
     1    1    2 2   
     2    2    3 1   
     3    2   10 1   
     4    3    4 1   
     5    3    9 1   
     6    4    5 1   
     7    4   41 1   
     8    4   42 1   
     9    5    6 2   
    10    5    7 1   
    11    7    8 1   
    12    7   43 1   
    13    8    9 1   
    14    8   44 1   
    15    8   45 1   
    16    9   46 1   
    17    9   47 1   
    18   10   11 1   
    19   10   24 1   
    20   11   12 1   
    21   11   33 2   
    22   12   13 ar  
    23   12   15 ar  
    24   13   14 ar  
    25   13   48 1   
    26   14   21 ar  
    27   14   49 1   
    28   15   16 1   
    29   15   20 ar  
    30   16   17 1   
    31   17   18 1   
    32   17   19 1   
    33   17   50 1   
    34   18   51 1   
    35   18   52 1   
    36   18   53 1   
    37   19   54 1   
    38   19   55 1   
    39   19   56 1   
    40   20   21 ar  
    41   20   57 1   
    42   21   22 1   
    43   22   23 1   
    44   23   58 1   
    45   23   59 1   
    46   23   60 1   
    47   24   25 1   
    48   24   32 1   
    49   24   61 1   
    50   25   26 ar  
    51   25   31 ar  
    52   26   27 ar  
    53   26   62 1   
    54   27   28 ar  
    55   27   63 1   
    56   28   29 1   
    57   28   30 ar  
    58   30   31 ar  
    59   30   64 1   
    60   31   65 1   
    61   32   33 1   
    62   32   34 1   
    63   32   66 1   
    64   34   35 ar  
    65   34   40 ar  
    66   35   36 ar  
    67   35   67 1   
    68   36   37 ar  
    69   36   68 1   
    70   37   38 1   
    71   37   39 ar  
    72   39   40 ar  
    73   39   69 1   
    74   40   70 1   
@<TRIPOS>SUBSTRUCTURE
     1 NUT         1 TEMP              0 ****  ****    0 ROOT
