@<TRIPOS>MOLECULE
NVB
   57    60     1     0     0
SMALL
bcc


@<TRIPOS>ATOM
      1 S1          0.5800   -0.4340   -0.1760 sy        1 NVB      1.500200
      2 O2          1.9480   -0.3560   -0.3210 o         1 NVB     -0.572300
      3 O3         -0.0420   -0.1060    1.0070 o         1 NVB     -0.572300
      4 N4          0.0710    1.1050   -1.2990 n4        1 NVB     -0.687900
      5 C6         -0.2010    2.3060   -0.5040 c3        1 NVB      0.080100
      6 C10        -0.1430   -1.5430   -1.0520 ca        1 NVB     -0.581500
      7 C11         0.5370   -2.2210   -2.0920 ca        1 NVB      0.012000
      8 C13        -0.0610   -3.2500   -2.7940 ca        1 NVB     -0.140000
      9 C15        -1.3710   -3.6670   -2.4790 cp        1 NVB      0.146000
     10 C16        -2.0690   -2.9920   -1.4590 ca        1 NVB     -0.140000
     11 C18        -1.4650   -1.9620   -0.7620 ca        1 NVB      0.012000
     12 C20        -1.9720   -4.7720   -3.2190 cp        1 NVB     -0.154300
     13 C21        -2.5740   -5.8770   -2.5300 ca        1 NVB      0.317300
     14 N22        -2.5950   -5.9100   -1.1440 nb        1 NVB     -0.658000
     15 C23        -3.1230   -6.9840   -0.5670 cp        1 NVB      0.400500
     16 C24        -3.6700   -8.0790   -1.3650 ca        1 NVB      0.314900
     17 N26        -3.6750   -8.0670   -2.6790 nb        1 NVB     -0.603000
     18 C27        -3.1180   -6.9590   -3.3060 ca        1 NVB      0.277300
     19 C28        -3.0790   -6.8950   -4.7300 ca        1 NVB     -0.105300
     20 C30        -2.4980   -5.8170   -5.3540 ca        1 NVB     -0.139000
     21 C32        -1.9330   -4.7680   -4.6030 ca        1 NVB     -0.071000
     22 C34        -3.1790   -7.1150    0.8980 cp        1 NVB     -0.117500
     23 C35        -2.7580   -8.3150    1.4830 ca        1 NVB     -0.194500
     24 C37        -2.8150   -8.4630    2.8730 ca        1 NVB      0.132100
     25 C38        -3.3310   -7.4240    3.6840 ca        1 NVB      0.075100
     26 C39        -3.7330   -6.2200    3.0720 ca        1 NVB      0.132100
     27 C40        -3.6540   -6.0620    1.6810 ca        1 NVB     -0.194500
     28 O42        -4.1490   -5.2200    3.9280 os        1 NVB     -0.306900
     29 C43        -5.0010   -4.2300    3.3580 c3        1 NVB      0.111200
     30 O47        -3.5320   -7.6630    5.0270 os        1 NVB     -0.306900
     31 C48        -2.6600   -6.9290    5.8910 c3        1 NVB      0.114700
     32 O52        -2.3900   -9.5800    3.5530 os        1 NVB     -0.306900
     33 C53        -2.0560  -10.7160    2.7600 c3        1 NVB      0.111200
     34 HN4         0.8350    1.3000   -1.9430 hn        1 NVB      0.438300
     35 H6         -0.9850    2.0720    0.2690 hx        1 NVB      0.102033
     36 H6A         0.7420    2.6290    0.0170 hx        1 NVB      0.102033
     37 H6B        -0.5630    3.1500   -1.1510 hx        1 NVB      0.102033
     38 H11         1.5800   -1.9340   -2.3260 ha        1 NVB      0.163500
     39 H13         0.4960   -3.7720   -3.5910 ha        1 NVB      0.178000
     40 H16        -3.0980   -3.2980   -1.2040 ha        1 NVB      0.178000
     41 H18        -2.0160   -1.4630    0.0570 ha        1 NVB      0.163500
     42 H24        -4.1100   -8.9570   -0.8560 h4        1 NVB      0.055100
     43 H28        -3.5150   -7.7220   -5.3170 ha        1 NVB      0.173000
     44 H30        -2.4630   -5.7650   -6.4540 ha        1 NVB      0.158000
     45 H32        -1.4630   -3.9260   -5.1380 ha        1 NVB      0.141000
     46 H35        -2.3730   -9.1280    0.8510 ha        1 NVB      0.145000
     47 H40        -3.9740   -5.1230    1.2110 ha        1 NVB      0.145000
     48 H43        -5.8330   -4.6970    2.7780 h1        1 NVB      0.048200
     49 H43A       -5.3980   -3.6830    4.2520 h1        1 NVB      0.048200
     50 H43B       -4.4080   -3.5420    2.7090 h1        1 NVB      0.048200
     51 H48        -2.9870   -7.2440    6.9130 h1        1 NVB      0.047700
     52 H48A       -2.8020   -5.8310    5.7450 h1        1 NVB      0.047700
     53 H48B       -1.5980   -7.2200    5.7050 h1        1 NVB      0.047700
     54 H53        -2.9160  -11.0200    2.1170 h1        1 NVB      0.048200
     55 H53A       -1.1520  -10.5060    2.1380 h1        1 NVB      0.048200
     56 H53B       -1.8350  -11.5030    3.5260 h1        1 NVB      0.048200
     57 H42        -0.7460    0.8740   -1.8560 hn        1 NVB      0.438300
@<TRIPOS>BOND
     1    1    2 2   
     2    1    3 2   
     3    1    4 1   
     4    1    6 1   
     5    4    5 1   
     6    4   34 1   
     7    4   57 1   
     8    5   35 1   
     9    5   36 1   
    10    5   37 1   
    11    6    7 ar  
    12    6   11 ar  
    13    7    8 ar  
    14    7   38 1   
    15    8    9 ar  
    16    8   39 1   
    17    9   10 ar  
    18    9   12 1   
    19   10   11 ar  
    20   10   40 1   
    21   11   41 1   
    22   12   13 ar  
    23   12   21 ar  
    24   13   14 ar  
    25   13   18 ar  
    26   14   15 ar  
    27   15   16 ar  
    28   15   22 1   
    29   16   17 ar  
    30   16   42 1   
    31   17   18 ar  
    32   18   19 ar  
    33   19   20 ar  
    34   19   43 1   
    35   20   21 ar  
    36   20   44 1   
    37   21   45 1   
    38   22   23 ar  
    39   22   27 ar  
    40   23   24 ar  
    41   23   46 1   
    42   24   25 ar  
    43   24   32 1   
    44   25   26 ar  
    45   25   30 1   
    46   26   27 ar  
    47   26   28 1   
    48   27   47 1   
    49   28   29 1   
    50   29   48 1   
    51   29   49 1   
    52   29   50 1   
    53   30   31 1   
    54   31   51 1   
    55   31   52 1   
    56   31   53 1   
    57   32   33 1   
    58   33   54 1   
    59   33   55 1   
    60   33   56 1   
@<TRIPOS>SUBSTRUCTURE
     1 NVB         1 TEMP              0 ****  ****    0 ROOT
