@<TRIPOS>MOLECULE
NVB
   57    60     1     0     0
SMALL
bcc


@<TRIPOS>ATOM
      1 S1          0.6190   -0.4570   -0.1500 sy        1 NVB      1.500200
      2 O2          1.9880   -0.3900   -0.2890 o         1 NVB     -0.572300
      3 O3         -0.0050   -0.1270    1.0320 o         1 NVB     -0.572300
      4 N4          0.1290    1.0900   -1.2700 ny        1 NVB     -0.687900
      5 C6         -0.1390    2.2910   -0.4720 c3        1 NVB      0.080100
      6 C10        -0.1100   -1.5560   -1.0320 ca        1 NVB     -0.581500
      7 C11         0.5680   -2.2370   -2.0720 ca        1 NVB      0.012000
      8 C13        -0.0360   -3.2580   -2.7800 ca        1 NVB     -0.140000
      9 C15        -1.3510   -3.6640   -2.4720 cp        1 NVB      0.146000
     10 C16        -2.0470   -2.9870   -1.4520 ca        1 NVB     -0.140000
     11 C18        -1.4370   -1.9650   -0.7500 ca        1 NVB      0.012000
     12 C20        -1.9590   -4.7610   -3.2190 cp        1 NVB     -0.154300
     13 C21        -2.5730   -5.8630   -2.5350 ca        1 NVB      0.317300
     14 N22        -2.6000   -5.9010   -1.1500 nb        1 NVB     -0.658000
     15 C23        -3.1400   -6.9730   -0.5790 cp        1 NVB      0.400500
     16 C24        -3.6940   -8.0600   -1.3830 ca        1 NVB      0.314900
     17 N26        -3.6930   -8.0420   -2.6970 nb        1 NVB     -0.603000
     18 C27        -3.1240   -6.9370   -3.3170 ca        1 NVB      0.277300
     19 C28        -3.0780   -6.8690   -4.7410 ca        1 NVB     -0.105300
     20 C30        -2.4850   -5.7940   -5.3590 ca        1 NVB     -0.139000
     21 C32        -1.9140   -4.7530   -4.6030 ca        1 NVB     -0.071000
     22 C34        -3.2040   -7.1090    0.8850 cp        1 NVB     -0.117500
     23 C35        -2.7970   -8.3150    1.4670 ca        1 NVB     -0.194500
     24 C37        -2.8610   -8.4670    2.8570 ca        1 NVB      0.132100
     25 C38        -3.3690   -7.4260    3.6700 ca        1 NVB      0.075100
     26 C39        -3.7560   -6.2150    3.0610 ca        1 NVB      0.132100
     27 C40        -3.6710   -6.0540    1.6710 ca        1 NVB     -0.194500
     28 O42        -4.1660   -5.2140    3.9190 os        1 NVB     -0.306900
     29 C43        -5.0050   -4.2140    3.3500 c3        1 NVB      0.111200
     30 O47        -3.5770   -7.6680    5.0110 os        1 NVB     -0.306900
     31 C48        -2.7010   -6.9460    5.8810 c3        1 NVB      0.114700
     32 O52        -2.4490   -9.5910    3.5350 os        1 NVB     -0.306900
     33 C53        -2.1230  -10.7270    2.7380 c3        1 NVB      0.111200
     34 HN4         0.8970    1.2820   -1.9090 hn        1 NVB      0.438300
     35 H6         -0.9290    2.0600    0.2950 hx        1 NVB      0.102033
     36 H6A         0.8030    2.6040    0.0560 hx        1 NVB      0.102033
     37 H6B        -0.4910    3.1390   -1.1170 hx        1 NVB      0.102033
     38 H11         1.6150   -1.9580   -2.3010 ha        1 NVB      0.163500
     39 H13         0.5200   -3.7820   -3.5770 ha        1 NVB      0.178000
     40 H16        -3.0800   -3.2850   -1.2020 ha        1 NVB      0.178000
     41 H18        -1.9870   -1.4640    0.0690 ha        1 NVB      0.163500
     42 H24        -4.1440   -8.9350   -0.8790 h4        1 NVB      0.055100
     43 H28        -3.5190   -7.6900   -5.3330 ha        1 NVB      0.173000
     44 H30        -2.4450   -5.7380   -6.4590 ha        1 NVB      0.158000
     45 H32        -1.4330   -3.9140   -5.1320 ha        1 NVB      0.141000
     46 H35        -2.4170   -9.1290    0.8340 ha        1 NVB      0.145000
     47 H40        -3.9790   -5.1090    1.2030 ha        1 NVB      0.145000
     48 H43        -5.8390   -4.6700    2.7650 h1        1 NVB      0.048200
     49 H43A       -5.3990   -3.6660    4.2440 h1        1 NVB      0.048200
     50 H43B       -4.4020   -3.5290    2.7050 h1        1 NVB      0.048200
     51 H48        -3.0350   -7.2620    6.9010 h1        1 NVB      0.047700
     52 H48A       -2.8310   -5.8460    5.7390 h1        1 NVB      0.047700
     53 H48B       -1.6420   -7.2470    5.6990 h1        1 NVB      0.047700
     54 H53        -2.9840  -11.0200    2.0910 h1        1 NVB      0.048200
     55 H53A       -1.2150  -10.5240    2.1210 h1        1 NVB      0.048200
     56 H53B       -1.9130  -11.5200    3.5020 h1        1 NVB      0.048200
     57 H42        -0.6870    0.8680   -1.8320 hn        1 NVB      0.438300
@<TRIPOS>BOND
     1    1    2 2   
     2    1    3 2   
     3    1    4 1   
     4    1    6 1   
     5    4    5 1   
     6    4   34 1   
     7    4   57 1   
     8    5   35 1   
     9    5   36 1   
    10    5   37 1   
    11    6    7 ar  
    12    6   11 ar  
    13    7    8 ar  
    14    7   38 1   
    15    8    9 ar  
    16    8   39 1   
    17    9   10 ar  
    18    9   12 1   
    19   10   11 ar  
    20   10   40 1   
    21   11   41 1   
    22   12   13 ar  
    23   12   21 ar  
    24   13   14 ar  
    25   13   18 ar  
    26   14   15 ar  
    27   15   16 ar  
    28   15   22 1   
    29   16   17 ar  
    30   16   42 1   
    31   17   18 ar  
    32   18   19 ar  
    33   19   20 ar  
    34   19   43 1   
    35   20   21 ar  
    36   20   44 1   
    37   21   45 1   
    38   22   23 ar  
    39   22   27 ar  
    40   23   24 ar  
    41   23   46 1   
    42   24   25 ar  
    43   24   32 1   
    44   25   26 ar  
    45   25   30 1   
    46   26   27 ar  
    47   26   28 1   
    48   27   47 1   
    49   28   29 1   
    50   29   48 1   
    51   29   49 1   
    52   29   50 1   
    53   30   31 1   
    54   31   51 1   
    55   31   52 1   
    56   31   53 1   
    57   32   33 1   
    58   33   54 1   
    59   33   55 1   
    60   33   56 1   
@<TRIPOS>SUBSTRUCTURE
     1 NVB         1 TEMP              0 ****  ****    0 ROOT
