@<TRIPOS>MOLECULE
NVB
   57    60     1     0     0
SMALL
bcc


@<TRIPOS>ATOM
      1 S1          0.5960   -0.4450   -0.1790 sy        1 NVB      1.500200
      2 O2          1.9640   -0.3710   -0.3260 o         1 NVB     -0.572300
      3 O3         -0.0220   -0.1140    1.0070 o         1 NVB     -0.572300
      4 N4          0.0910    1.0980   -1.2990 n4        1 NVB     -0.687900
      5 C6         -0.1790    2.2980   -0.5030 c3        1 NVB      0.080100
      6 C10        -0.1340   -1.5490   -1.0530 ca        1 NVB     -0.581500
      7 C11         0.5420   -2.2290   -2.0960 ca        1 NVB      0.012000
      8 C13        -0.0620   -3.2550   -2.7970 ca        1 NVB     -0.140000
      9 C15        -1.3730   -3.6670   -2.4800 cp        1 NVB      0.146000
     10 C16        -2.0660   -2.9910   -1.4570 ca        1 NVB     -0.140000
     11 C18        -1.4560   -1.9640   -0.7610 ca        1 NVB      0.012000
     12 C20        -1.9800   -4.7690   -3.2200 cp        1 NVB     -0.154300
     13 C21        -2.5850   -5.8720   -2.5300 ca        1 NVB      0.317300
     14 N22        -2.6020   -5.9070   -1.1440 nb        1 NVB     -0.658000
     15 C23        -3.1340   -6.9790   -0.5670 cp        1 NVB      0.400500
     16 C24        -3.6880   -8.0710   -1.3650 ca        1 NVB      0.314900
     17 N26        -3.6960   -8.0570   -2.6790 nb        1 NVB     -0.603000
     18 C27        -3.1360   -6.9510   -3.3050 ca        1 NVB      0.277300
     19 C28        -3.1000   -6.8860   -4.7290 ca        1 NVB     -0.105300
     20 C30        -2.5150   -5.8090   -5.3540 ca        1 NVB     -0.139000
     21 C32        -1.9440   -4.7640   -4.6040 ca        1 NVB     -0.071000
     22 C34        -3.1870   -7.1120    0.8980 cp        1 NVB     -0.117500
     23 C35        -2.7710   -8.3150    1.4800 ca        1 NVB     -0.194500
     24 C37        -2.8250   -8.4640    2.8710 ca        1 NVB      0.132100
     25 C38        -3.3320   -7.4230    3.6850 ca        1 NVB      0.075100
     26 C39        -3.7290   -6.2160    3.0750 ca        1 NVB      0.132100
     27 C40        -3.6540   -6.0570    1.6840 ca        1 NVB     -0.194500
     28 O42        -4.1370   -5.2140    3.9330 os        1 NVB     -0.306900
     29 C43        -4.9850   -4.2190    3.3670 c3        1 NVB      0.111200
     30 O47        -3.5310   -7.6630    5.0280 os        1 NVB     -0.306900
     31 C48        -2.6520   -6.9340    5.8900 c3        1 NVB      0.114700
     32 O52        -2.4040   -9.5840    3.5490 os        1 NVB     -0.306900
     33 C53        -2.0780  -10.7210    2.7530 c3        1 NVB      0.111200
     34 HN4         0.8560    1.2920   -1.9420 hn        1 NVB      0.438300
     35 H6         -0.9650    2.0650    0.2680 hx        1 NVB      0.101700
     36 H6A         0.7630    2.6180    0.0200 hx        1 NVB      0.101700
     37 H6B        -0.5390    3.1430   -1.1490 hx        1 NVB      0.101700
     38 H11         1.5850   -1.9460   -2.3320 ha        1 NVB      0.163500
     39 H13         0.4910   -3.7780   -3.5960 ha        1 NVB      0.178000
     40 H16        -3.0950   -3.2930   -1.2000 ha        1 NVB      0.178000
     41 H18        -2.0030   -1.4630    0.0600 ha        1 NVB      0.163500
     42 H24        -4.1310   -8.9470   -0.8550 h4        1 NVB      0.055100
     43 H28        -3.5400   -7.7100   -5.3160 ha        1 NVB      0.173000
     44 H30        -2.4820   -5.7560   -6.4540 ha        1 NVB      0.158000
     45 H32        -1.4710   -3.9240   -5.1390 ha        1 NVB      0.141000
     46 H35        -2.3920   -9.1290    0.8470 ha        1 NVB      0.145000
     47 H40        -3.9700   -5.1150    1.2160 ha        1 NVB      0.145000
     48 H43        -5.8200   -4.6800    2.7890 h1        1 NVB      0.048200
     49 H43A       -4.3880   -3.5330    2.7170 h1        1 NVB      0.048200
     50 H43B       -5.3750   -3.6710    4.2630 h1        1 NVB      0.048200
     51 H48        -2.9780   -7.2490    6.9130 h1        1 NVB      0.047700
     52 H48A       -2.7880   -5.8350    5.7460 h1        1 NVB      0.047700
     53 H48B       -1.5930   -7.2300    5.7010 h1        1 NVB      0.047700
     54 H53        -2.9420  -11.0200    2.1120 h1        1 NVB      0.048200
     55 H53A       -1.8590  -11.5100    3.5170 h1        1 NVB      0.048200
     56 H53B       -1.1750  -10.5150    2.1290 h1        1 NVB      0.048200
     57 H42        -0.7260    0.8700   -1.8570 hn        1 NVB      0.438300
@<TRIPOS>BOND
     1    1    2 2   
     2    1    3 2   
     3    1    4 1   
     4    1    6 1   
     5    4    5 1   
     6    4   34 1   
     7    4   57 1   
     8    5   35 1   
     9    5   36 1   
    10    5   37 1   
    11    6    7 ar  
    12    6   11 ar  
    13    7    8 ar  
    14    7   38 1   
    15    8    9 ar  
    16    8   39 1   
    17    9   10 ar  
    18    9   12 1   
    19   10   11 ar  
    20   10   40 1   
    21   11   41 1   
    22   12   13 ar  
    23   12   21 ar  
    24   13   14 ar  
    25   13   18 ar  
    26   14   15 ar  
    27   15   16 ar  
    28   15   22 1   
    29   16   17 ar  
    30   16   42 1   
    31   17   18 ar  
    32   18   19 ar  
    33   19   20 ar  
    34   19   43 1   
    35   20   21 ar  
    36   20   44 1   
    37   21   45 1   
    38   22   23 ar  
    39   22   27 ar  
    40   23   24 ar  
    41   23   46 1   
    42   24   25 ar  
    43   24   32 1   
    44   25   26 ar  
    45   25   30 1   
    46   26   27 ar  
    47   26   28 1   
    48   27   47 1   
    49   28   29 1   
    50   29   48 1   
    51   29   49 1   
    52   29   50 1   
    53   30   31 1   
    54   31   51 1   
    55   31   52 1   
    56   31   53 1   
    57   32   33 1   
    58   33   54 1   
    59   33   55 1   
    60   33   56 1   
@<TRIPOS>SUBSTRUCTURE
     1 NVB         1 TEMP              0 ****  ****    0 ROOT
