@<TRIPOS>MOLECULE
NVB
   56    46     1     0     0
SMALL
bcc


@<TRIPOS>ATOM
      1 S1          3.2160    4.6330   -0.4510 ss        1 NVB      2.854000
      2 O2          3.0350    4.6200    0.9960 o         1 NVB     -0.934500
      3 O3          2.4290    5.8110   -0.8270 o         1 NVB     -0.934500
      4 N4          4.7950    4.8240   -0.8460 n2        1 NVB     -0.893000
      5 C6          5.6550    5.5200    0.0290 c3        1 NVB     -0.064000
      6 C10         2.5470    3.1100   -1.2190 c1        1 NVB     -0.825000
      7 C11         3.1710    1.8770   -0.9820 c2        1 NVB     -0.021000
      8 C13         2.6900    0.7120   -1.6060 c1        1 NVB     -0.121000
      9 C15         1.5790    0.7870   -2.4730 c1        1 NVB     -0.006667
     10 C16         0.9600    2.0170   -2.7080 c1        1 NVB     -0.117667
     11 C18         1.4450    3.1840   -2.0790 c1        1 NVB     -0.022000
     12 C20         1.0750   -0.3670   -3.0660 c1        1 NVB     -0.006667
     13 C21         0.1990   -1.3520   -2.5760 c1        1 NVB     -0.023000
     14 N22        -0.3150   -1.2550   -1.3010 n2        1 NVB     -0.095000
     15 C23        -1.1610   -2.2080   -0.8410 c1        1 NVB      0.001000
     16 C24        -1.5060   -3.2810   -1.6570 c1        1 NVB     -0.092000
     17 N26        -0.9960   -3.3720   -2.9140 n1        1 NVB     -0.094000
     18 C27        -0.1500   -2.4200   -3.3780 c1        1 NVB     -0.047000
     19 C28         0.3720   -2.5280   -4.6970 c2        1 NVB     -0.082000
     20 C30         1.2420   -1.5540   -5.1890 c1        1 NVB     -0.126000
     21 C32         1.5990   -0.4770   -4.3900 c1        1 NVB     -0.117667
     22 C34        -1.6920   -2.0360    0.4290 c1        1 NVB     -0.006667
     23 C35        -3.0100   -1.5370    0.5770 c1        1 NVB     -0.125000
     24 C37        -3.6190   -1.5350    1.8320 c1        1 NVB      0.038000
     25 C38        -2.9320   -2.0210    2.9380 c1        1 NVB      0.035000
     26 C39        -1.6110   -2.5210    2.7880 c1        1 NVB      0.035000
     27 C40        -1.0050   -2.5220    1.5330 c1        1 NVB     -0.117667
     28 O42        -0.8580   -2.9380    3.9550 os        1 NVB     -0.224000
     29 C43        -0.2620   -1.8280    4.7020 c3        1 NVB     -0.075500
     30 O47        -3.4750   -1.8680    4.2120 os        1 NVB     -0.224000
     31 C48        -4.2190   -3.0050    4.6620 c3        1 NVB     -0.075500
     32 O52        -4.9390   -0.9820    1.9910 os        1 NVB     -0.227000
     33 C53        -4.9660    0.4110    2.0310 c3        1 NVB     -0.078000
     34 HN4         5.1480    4.3760   -1.5870 hn        1 NVB      0.243000
     35 H6          6.0680    6.2670   -0.4460 h1        1 NVB      0.082000
     36 H6A         5.1390    5.8630    0.7940 h1        1 NVB      0.082000
     37 H6B         6.3500    4.9160    0.3500 h1        1 NVB      0.082000
     38 H11         3.9470    1.8270   -0.3780 ha        1 NVB      0.152000
     39 H13         3.1310   -0.1600   -1.4370 ha        1 NVB      0.149000
     40 H16         0.1880    2.0690   -3.3110 ha        1 NVB      0.150333
     41 H18         1.0110    4.0410   -2.2420 ha        1 NVB      0.153000
     42 H24        -2.0960   -3.9500   -1.3370 ha        1 NVB      0.179000
     43 H28         0.1170   -3.3030   -5.2700 ha        1 NVB      0.156000
     44 H30         1.6110   -1.6350   -6.1210 ha        1 NVB      0.143000
     45 H32         2.1940    0.1880   -4.7250 ha        1 NVB      0.150333
     46 H35        -3.4810   -1.2030   -0.1830 ha        1 NVB      0.153000
     47 H40        -0.1340   -2.8500    1.4350 ha        1 NVB      0.150333
     48 H43         0.4700   -2.1720    5.2730 h1        1 NVB      0.088333
     49 H43A       -0.9440   -1.4080    5.2610 h1        1 NVB      0.088333
     50 H43B        0.1000   -1.1620    4.0710 h1        1 NVB      0.088333
     51 H48        -5.0460   -2.7100    5.0760 h1        1 NVB      0.088333
     52 H48A       -3.6920   -3.5000    5.3100 h1        1 NVB      0.088333
     53 H48B       -4.4290   -3.5950    3.8840 h1        1 NVB      0.088333
     54 H53        -5.8840    0.7180    2.2190 h1        1 NVB      0.087333
     55 H53A       -4.3850    0.7180    2.7130 h1        1 NVB      0.087333
     56 H53B       -4.6750    0.7650    1.1740 h1        1 NVB      0.087333
@<TRIPOS>BOND
     1    1    2 1   
     2    1    3 1   
     3    4    5 1   
     4    4   34 1   
     5    5   35 1   
     6    5   36 1   
     7    5   37 1   
     8    6    7 1   
     9    6   11 1   
    10    7    8 1   
    11    7   38 1   
    12    8   39 1   
    13    9   10 1   
    14   10   40 1   
    15   11   41 1   
    16   12   21 1   
    17   13   14 1   
    18   13   18 1   
    19   14   15 1   
    20   16   17 1   
    21   16   42 1   
    22   18   19 1   
    23   19   20 1   
    24   19   43 1   
    25   20   44 1   
    26   21   45 1   
    27   22   27 1   
    28   23   24 1   
    29   23   46 1   
    30   24   32 1   
    31   25   26 1   
    32   25   30 1   
    33   26   28 1   
    34   27   47 1   
    35   28   29 1   
    36   29   48 1   
    37   29   49 1   
    38   29   50 1   
    39   30   31 1   
    40   31   51 1   
    41   31   52 1   
    42   31   53 1   
    43   32   33 1   
    44   33   54 1   
    45   33   55 1   
    46   33   56 1   
@<TRIPOS>SUBSTRUCTURE
     1 NVB         1 TEMP              0 ****  ****    0 ROOT
