@<TRIPOS>MOLECULE
NVB
   56    59     1     0     0
SMALL
bcc


@<TRIPOS>ATOM
      1 S1         -4.6730    1.8390   -0.8040 sy        1 NVB      1.515200
      2 O2         -4.8730    1.9710   -2.1960 o         1 NVB     -0.655300
      3 O3         -4.0770    2.9260   -0.1270 o         1 NVB     -0.655300
      4 N4         -6.0890    1.4670   -0.1210 n3        1 NVB     -0.920100
      5 C6         -6.4490    1.7700    1.2240 c3        1 NVB      0.212100
      6 C10        -3.7340    0.4620   -0.5290 ca        1 NVB     -0.380500
      7 C11        -3.7200   -0.5940   -1.4480 ca        1 NVB     -0.021500
      8 C13        -2.9250   -1.7160   -1.2390 ca        1 NVB     -0.135000
      9 C15        -2.1120   -1.7980   -0.0990 cp        1 NVB      0.036000
     10 C16        -2.1140   -0.7440    0.8230 ca        1 NVB     -0.135000
     11 C18        -2.9180    0.3700    0.6040 ca        1 NVB     -0.021500
     12 C20        -1.2860   -2.9880    0.1240 cp        1 NVB     -0.087300
     13 C21         0.1350   -2.8730    0.2980 ca        1 NVB      0.305300
     14 N22         0.7490   -1.6360    0.2100 nb        1 NVB     -0.622000
     15 C23         2.0690   -1.5940    0.3670 cp        1 NVB      0.372500
     16 C24         2.8320   -2.8060    0.6440 ca        1 NVB      0.306900
     17 N26         2.2760   -3.9950    0.7260 nb        1 NVB     -0.621000
     18 C27         0.9020   -4.0660    0.5410 ca        1 NVB      0.280300
     19 C28         0.2400   -5.3290    0.5920 ca        1 NVB     -0.146300
     20 C30        -1.1170   -5.4000    0.4030 ca        1 NVB     -0.127000
     21 C32        -1.8770   -4.2350    0.1670 ca        1 NVB     -0.104000
     22 C34         2.8030   -0.3210    0.2660 cp        1 NVB     -0.098500
     23 C35         4.0650   -0.3110   -0.3400 ca        1 NVB     -0.198500
     24 C37         4.7790    0.8880   -0.4330 ca        1 NVB      0.133100
     25 C38         4.2440    2.0860    0.0930 ca        1 NVB      0.058100
     26 C39         2.9600    2.0580    0.6770 ca        1 NVB      0.133100
     27 C40         2.2420    0.8570    0.7650 ca        1 NVB     -0.198500
     28 O42         2.4930    3.2720    1.1350 os        1 NVB     -0.309900
     29 C43         1.1660    3.2840    1.6530 c3        1 NVB      0.109200
     30 O47         5.0360    3.2170    0.1170 os        1 NVB     -0.309900
     31 C48         4.5900    4.2570   -0.7560 c3        1 NVB      0.114700
     32 O52         6.0150    1.0120   -1.0300 os        1 NVB     -0.309900
     33 C53         6.6290   -0.1980   -1.4630 c3        1 NVB      0.109200
     34 HN4        -6.7990    0.9980   -0.6300 hn        1 NVB      0.447800
     35 H6         -7.4420    2.2970    1.2580 h1        1 NVB      0.042700
     36 H6A        -6.5290    0.8330    1.8410 h1        1 NVB      0.042700
     37 H6B        -5.6760    2.4430    1.6850 h1        1 NVB      0.042700
     38 H11        -4.3350   -0.5210   -2.3630 ha        1 NVB      0.151500
     39 H13        -2.9220   -2.5350   -1.9730 ha        1 NVB      0.145500
     40 H16        -1.4730   -0.7930    1.7160 ha        1 NVB      0.145500
     41 H18        -2.9030    1.2070    1.3250 ha        1 NVB      0.151500
     42 H24         3.9230   -2.7410    0.8070 h4        1 NVB      0.040100
     43 H28         0.8340   -6.2380    0.7810 ha        1 NVB      0.156000
     44 H30        -1.6330   -6.3720    0.4350 ha        1 NVB      0.143000
     45 H32        -2.9660   -4.3280    0.0210 ha        1 NVB      0.144000
     46 H35         4.4800   -1.2390   -0.7580 ha        1 NVB      0.149500
     47 H40         1.2420    0.8390    1.2200 ha        1 NVB      0.149500
     48 H43         1.0030    4.3620    1.9120 h1        1 NVB      0.048033
     49 H43A        0.4340    2.9490    0.8790 h1        1 NVB      0.048033
     50 H43B        1.0970    2.6450    2.5670 h1        1 NVB      0.048033
     51 H48         3.5630    4.5910   -0.4730 h1        1 NVB      0.044033
     52 H48A        5.3370    5.0720   -0.5900 h1        1 NVB      0.044033
     53 H48B        4.6130    3.9080   -1.8170 h1        1 NVB      0.044033
     54 H53         6.7600   -0.9060   -0.6100 h1        1 NVB      0.048033
     55 H53A        6.0310   -0.6710   -2.2800 h1        1 NVB      0.048033
     56 H53B        7.6230    0.1440   -1.8490 h1        1 NVB      0.048033
@<TRIPOS>BOND
     1    1    2 2   
     2    1    3 2   
     3    1    4 1   
     4    1    6 1   
     5    4    5 1   
     6    4   34 1   
     7    5   35 1   
     8    5   36 1   
     9    5   37 1   
    10    6    7 ar  
    11    6   11 ar  
    12    7    8 ar  
    13    7   38 1   
    14    8    9 ar  
    15    8   39 1   
    16    9   10 ar  
    17    9   12 1   
    18   10   11 ar  
    19   10   40 1   
    20   11   41 1   
    21   12   13 ar  
    22   12   21 ar  
    23   13   14 ar  
    24   13   18 ar  
    25   14   15 ar  
    26   15   16 ar  
    27   15   22 1   
    28   16   17 ar  
    29   16   42 1   
    30   17   18 ar  
    31   18   19 ar  
    32   19   20 ar  
    33   19   43 1   
    34   20   21 ar  
    35   20   44 1   
    36   21   45 1   
    37   22   23 ar  
    38   22   27 ar  
    39   23   24 ar  
    40   23   46 1   
    41   24   25 ar  
    42   24   32 1   
    43   25   26 ar  
    44   25   30 1   
    45   26   27 ar  
    46   26   28 1   
    47   27   47 1   
    48   28   29 1   
    49   29   48 1   
    50   29   49 1   
    51   29   50 1   
    52   30   31 1   
    53   31   51 1   
    54   31   52 1   
    55   31   53 1   
    56   32   33 1   
    57   33   54 1   
    58   33   55 1   
    59   33   56 1   
@<TRIPOS>SUBSTRUCTURE
     1 NVB         1 TEMP              0 ****  ****    0 ROOT
