@<TRIPOS>MOLECULE
NVC
   52    54     1     0     0
SMALL
bcc


@<TRIPOS>ATOM
      1 O28         0.5880    1.0700   -0.4970 o         1 NVC     -0.583100
      2 C27         1.5590    0.3620   -0.1640 c         1 NVC      0.674100
      3 C29         2.0150    0.4070    1.3090 c3        1 NVC     -0.154700
      4 C40         1.0580   -0.4260    2.1510 c3        1 NVC     -0.084400
      5 C43         1.3340   -1.9110    2.0370 c3        1 NVC     -0.090400
      6 C46         0.4600   -2.6950    2.9960 c3        1 NVC     -0.076400
      7 C49         0.7210   -4.1750    2.8840 c3        1 NVC     -0.097100
      8 C31         1.9450    1.8920    1.6850 c3        1 NVC      0.089800
      9 N34         2.5340    2.2030    3.0410 nx        1 NVC     -0.402700
     10 O35         1.9810    3.3210    3.5700 oh        1 NVC     -0.353300
     11 C37         4.0570    2.2960    2.9620 c         1 NVC      0.544900
     12 O39         4.5490    3.4020    2.9320 o         1 NVC     -0.364100
     13 N17         2.2670   -0.3790   -1.0760 n         1 NVC     -0.447800
     14 C15         1.7560   -0.6190   -2.4260 c3        1 NVC      0.105400
     15 C24         2.8280   -1.4660   -3.1510 c3        1 NVC     -0.083400
     16 C21         3.7670   -1.9860   -2.0680 c3        1 NVC     -0.088400
     17 C18         3.3920   -1.2460   -0.7730 c3        1 NVC      0.086000
     18 C3          0.4370   -1.3410   -2.4450 cc        1 NVC      0.503600
     19 O1         -0.2640   -1.2360   -3.6750 os        1 NVC     -0.298700
     20 C6         -1.4330   -1.9710   -3.4590 ca        1 NVC      0.038100
     21 C5         -1.3910   -2.4840   -2.1160 ca        1 NVC      0.050400
     22 N4         -0.1830   -2.0550   -1.5150 nd        1 NVC     -0.562100
     23 C7         -2.4820   -2.2070   -4.3350 ca        1 NVC     -0.107000
     24 C9         -3.5270   -2.9860   -3.8370 ca        1 NVC     -0.099000
     25 C11        -3.5110   -3.4990   -2.5310 ca        1 NVC     -0.138000
     26 C13        -2.4550   -3.2620   -1.6530 ca        1 NVC     -0.067000
     27 H29         3.0640    0.0230    1.4230 hc        1 NVC      0.064700
     28 H40         0.0020   -0.2170    1.8220 hc        1 NVC      0.058200
     29 H40A        1.1320   -0.1290    3.2310 hc        1 NVC      0.058200
     30 H43         1.1290   -2.2530    0.9870 hc        1 NVC      0.057700
     31 H43A        2.4140   -2.1190    2.2600 hc        1 NVC      0.057700
     32 H46        -0.6190   -2.4840    2.7730 hc        1 NVC      0.044200
     33 H46A        0.6550   -2.3570    4.0480 hc        1 NVC      0.044200
     34 H49         0.5060   -4.5360    1.8490 hc        1 NVC      0.043700
     35 H49A        1.7860   -4.4100    3.1250 hc        1 NVC      0.043700
     36 H49B        0.0660   -4.7350    3.5950 hc        1 NVC      0.043700
     37 H31         0.8580    2.2160    1.6960 hx        1 NVC      0.134200
     38 H31A        2.4930    2.5200    0.9260 hx        1 NVC      0.134200
     39 HO35        2.2790    4.1000    3.0450 ho        1 NVC      0.477000
     40 H37         4.5340    1.2920    2.9340 hx        1 NVC      0.142200
     41 H15         1.5980    0.3770   -2.9360 h1        1 NVC      0.109700
     42 H24         2.3510   -2.3030   -3.7190 hc        1 NVC      0.079700
     43 H24A        3.3760   -0.8220   -3.8820 hc        1 NVC      0.079700
     44 H21         4.8340   -1.7880   -2.3340 hc        1 NVC      0.070700
     45 H21A        3.6430   -3.0880   -1.9280 hc        1 NVC      0.070700
     46 H18         3.1260   -1.9790    0.0390 h1        1 NVC      0.043700
     47 H18A        4.2530   -0.6160   -0.4160 h1        1 NVC      0.043700
     48 H7         -2.4880   -1.8020   -5.3550 ha        1 NVC      0.161000
     49 H9         -4.3880   -3.2050   -4.4890 ha        1 NVC      0.149000
     50 H11        -4.3620   -4.1100   -2.1900 ha        1 NVC      0.146000
     51 H13        -2.4580   -3.6720   -0.6340 ha        1 NVC      0.151000
     52 H341        2.2700    1.4430    3.7080 hn        1 NVC      0.497800
@<TRIPOS>BOND
     1    1    2 2   
     2    2    3 1   
     3    2   13 1   
     4    3    4 1   
     5    3    8 1   
     6    3   27 1   
     7    4    5 1   
     8    4   28 1   
     9    4   29 1   
    10    5    6 1   
    11    5   30 1   
    12    5   31 1   
    13    6    7 1   
    14    6   32 1   
    15    6   33 1   
    16    7   34 1   
    17    7   35 1   
    18    7   36 1   
    19    8    9 1   
    20    8   37 1   
    21    8   38 1   
    22    9   10 1   
    23    9   11 1   
    24    9   52 1   
    25   10   39 1   
    26   11   12 2   
    27   11   40 1   
    28   13   14 1   
    29   13   17 1   
    30   14   15 1   
    31   14   18 1   
    32   14   41 1   
    33   15   16 1   
    34   15   42 1   
    35   15   43 1   
    36   16   17 1   
    37   16   44 1   
    38   16   45 1   
    39   17   46 1   
    40   17   47 1   
    41   18   19 1   
    42   18   22 2   
    43   19   20 1   
    44   20   21 ar  
    45   20   23 ar  
    46   21   22 1   
    47   21   26 ar  
    48   23   24 ar  
    49   23   48 1   
    50   24   25 ar  
    51   24   49 1   
    52   25   26 ar  
    53   25   50 1   
    54   26   51 1   
@<TRIPOS>SUBSTRUCTURE
     1 NVC         1 TEMP              0 ****  ****    0 ROOT
