@<TRIPOS>MOLECULE
NVC
   51    48     1     0     0
SMALL
bcc


@<TRIPOS>ATOM
      1 O28        -1.3170    1.3160    0.0230 o         1 NVC     -0.350000
      2 C27        -0.0830    1.1900    0.0130 c1        1 NVC      0.318000
      3 C29         0.6810    1.1080    1.3180 c2        1 NVC     -0.139000
      4 C40        -0.2850    0.7120    2.4570 c3        1 NVC     -0.154000
      5 C43         0.1750   -0.6270    3.0820 c3        1 NVC     -0.162000
      6 C46        -0.5450   -0.8480    4.4210 c3        1 NVC     -0.155000
      7 C49         0.3060   -1.7570    5.3060 c3        1 NVC     -0.211000
      8 C31         1.2980    2.4510    1.6210 c3        1 NVC     -0.053000
      9 N34         1.8630    2.4320    2.9360 n         1 NVC     -0.182000
     10 O35         1.0680    2.5490    4.0070 oh        1 NVC     -0.233000
     11 C37         3.2490    2.2060    3.1060 c2        1 NVC      0.211000
     12 O39         3.7270    2.1600    4.2280 o         1 NVC     -0.306000
     13 N17         0.6170    1.0740   -1.2380 n3        1 NVC     -0.338000
     14 C15         0.0020    1.0870   -2.6540 c3        1 NVC      0.107000
     15 C24         1.0340    1.2140   -3.4780 c3        1 NVC     -0.162000
     16 C21         2.2870    0.5910   -2.7170 c3        1 NVC     -0.168000
     17 C18         2.1410    0.9120   -1.4400 c3        1 NVC     -0.016000
     18 C3         -0.7500   -0.2430   -2.9280 c2        1 NVC      0.025000
     19 O1         -1.8850    0.0040   -3.6310 os        1 NVC     -0.127000
     20 C6         -2.5210   -1.1880   -3.8400 c1        1 NVC     -0.009000
     21 C5         -1.7780   -2.1620   -3.2680 c1        1 NVC     -0.085000
     22 N4         -0.6790   -1.5750   -2.7020 n1        1 NVC     -0.121000
     23 C7         -3.7620   -1.5140   -4.4690 c1        1 NVC     -0.113000
     24 C9         -4.1990   -2.8180   -4.4920 c1        1 NVC     -0.129000
     25 C11        -3.4300   -3.8240   -3.9010 c1        1 NVC     -0.129000
     26 C13        -2.2320   -3.5100   -3.2930 c1        1 NVC     -0.067000
     27 H29         1.4060    0.4160    1.2390 ha        1 NVC      0.103000
     28 H40        -1.1900    0.6090    2.0950 hc        1 NVC      0.107000
     29 H40A       -0.2850    1.3980    3.1300 hc        1 NVC      0.107000
     30 H43         1.1640   -0.6000    3.2380 hc        1 NVC      0.082500
     31 H43A       -0.0370   -1.3520    2.4810 hc        1 NVC      0.082500
     32 H46        -0.6780    0.0130    4.8690 hc        1 NVC      0.081000
     33 H46A       -1.4440   -1.2850    4.2550 hc        1 NVC      0.081000
     34 H49         1.2030   -1.3590    5.4200 hc        1 NVC      0.073000
     35 H49A        0.3900   -2.6420    4.8820 hc        1 NVC      0.073000
     36 H49B       -0.1170   -1.8530    6.1700 hc        1 NVC      0.073000
     37 H31         0.5940    3.1590    1.5710 h1        1 NVC      0.118500
     38 H31A        2.0150    2.6480    0.9540 h1        1 NVC      0.118500
     39 HO35        1.0540    3.3760    4.2670 ho        1 NVC      0.226000
     40 H37         3.8060    2.0360    2.3390 h5        1 NVC      0.125000
     41 H15        -0.6180    1.8610   -2.7540 h1        1 NVC      0.144000
     42 H24         1.1980    2.1770   -3.6770 hc        1 NVC      0.105500
     43 H24A        0.8590    0.7060   -4.3370 hc        1 NVC      0.105500
     44 H21         2.2920   -0.3640   -2.8180 hc        1 NVC      0.098500
     45 H21A        3.1130    0.9690   -3.0650 hc        1 NVC      0.098500
     46 H18         2.4800    0.2110   -0.8790 h1        1 NVC      0.084000
     47 H18A        2.6000    1.7560   -1.2480 h1        1 NVC      0.084000
     48 H7         -4.3030   -0.8070   -4.8860 ha        1 NVC      0.153000
     49 H9         -5.0650   -3.0450   -4.9290 ha        1 NVC      0.137500
     50 H11        -3.7350   -4.7310   -3.9170 ha        1 NVC      0.137500
     51 H13        -1.6810   -4.2340   -2.8680 ha        1 NVC      0.151000
@<TRIPOS>BOND
     1    1    2 1   
     2    2   13 1   
     3    3    4 1   
     4    3    8 1   
     5    3   27 1   
     6    4    5 1   
     7    4   28 1   
     8    4   29 1   
     9    5    6 1   
    10    5   30 1   
    11    5   31 1   
    12    6    7 1   
    13    6   32 1   
    14    6   33 1   
    15    7   34 1   
    16    7   35 1   
    17    7   36 1   
    18    8    9 1   
    19    8   37 1   
    20    8   38 1   
    21    9   10 1   
    22    9   11 1   
    23   10   39 1   
    24   11   12 1   
    25   11   40 1   
    26   13   14 1   
    27   13   17 1   
    28   14   15 1   
    29   14   18 1   
    30   14   41 1   
    31   15   16 1   
    32   15   42 1   
    33   15   43 1   
    34   16   17 1   
    35   16   44 1   
    36   16   45 1   
    37   17   46 1   
    38   17   47 1   
    39   18   19 1   
    40   18   22 1   
    41   19   20 1   
    42   20   23 1   
    43   21   26 1   
    44   23   48 1   
    45   24   25 1   
    46   24   49 1   
    47   25   50 1   
    48   26   51 1   
@<TRIPOS>SUBSTRUCTURE
     1 NVC         1 TEMP              0 ****  ****    0 ROOT
