@<TRIPOS>MOLECULE
NVC
   52    54     1     0     0
SMALL
bcc


@<TRIPOS>ATOM
      1 O28         0.6280    1.0810   -0.4850 o         1 NVC     -0.583100
      2 C27         1.5860    0.3530   -0.1550 c         1 NVC      0.674100
      3 C29         2.0430    0.3810    1.3170 c3        1 NVC     -0.154700
      4 C40         1.0700   -0.4390    2.1540 c3        1 NVC     -0.084400
      5 C43         1.3180   -1.9280    2.0320 c3        1 NVC     -0.090400
      6 C46         0.4300   -2.7010    2.9860 c3        1 NVC     -0.076400
      7 C49         0.6630   -4.1850    2.8660 c3        1 NVC     -0.097100
      8 C31         2.0010    1.8650    1.7020 c3        1 NVC      0.089800
      9 N34         2.5950    2.1560    3.0600 n4        1 NVC     -0.402700
     10 O35         2.0630    3.2810    3.5960 oh        1 NVC     -0.353300
     11 C37         4.1200    2.2210    2.9810 c         1 NVC      0.544900
     12 O39         4.6320    3.3190    2.9580 o         1 NVC     -0.364100
     13 N17         2.2790   -0.3960   -1.0720 n         1 NVC     -0.447800
     14 C15         1.7640   -0.6180   -2.4230 c3        1 NVC      0.105400
     15 C24         2.8200   -1.4810   -3.1540 c3        1 NVC     -0.083400
     16 C21         3.7490   -2.0240   -2.0740 c3        1 NVC     -0.088400
     17 C18         3.3880   -1.2850   -0.7740 c3        1 NVC      0.086000
     18 C3          0.4320   -1.3150   -2.4460 cc        1 NVC      0.503600
     19 O1         -0.2670   -1.1910   -3.6760 os        1 NVC     -0.298700
     20 C6         -1.4490   -1.9050   -3.4650 ca        1 NVC      0.038100
     21 C5         -1.4170   -2.4260   -2.1240 ca        1 NVC      0.050400
     22 N4         -0.2010   -2.0220   -1.5200 nd        1 NVC     -0.562100
     23 C7         -2.5020   -2.1170   -4.3410 ca        1 NVC     -0.107000
     24 C9         -3.5620   -2.8800   -3.8480 ca        1 NVC     -0.099000
     25 C11        -3.5550   -3.3990   -2.5450 ca        1 NVC     -0.138000
     26 C13        -2.4960   -3.1860   -1.6650 ca        1 NVC     -0.067000
     27 H29         3.0840   -0.0240    1.4290 hc        1 NVC      0.064700
     28 H40         0.0180   -0.2080    1.8270 hc        1 NVC      0.058200
     29 H40A        1.1490   -0.1500    3.2360 hc        1 NVC      0.058200
     30 H43         2.3940   -2.1580    2.2540 hc        1 NVC      0.057700
     31 H43A        1.1070   -2.2600    0.9800 hc        1 NVC      0.057700
     32 H46        -0.6450   -2.4690    2.7640 hc        1 NVC      0.044200
     33 H46A        0.6300   -2.3730    4.0410 hc        1 NVC      0.044200
     34 H49        -0.0020   -4.7370    3.5740 hc        1 NVC      0.043700
     35 H49A        1.7230   -4.4420    3.1060 hc        1 NVC      0.043700
     36 H49B        0.4420   -4.5360    1.8280 hc        1 NVC      0.043700
     37 H31         0.9200    2.2090    1.7150 hx        1 NVC      0.134200
     38 H31A        2.5600    2.4870    0.9470 hx        1 NVC      0.134200
     39 HO35        2.3750    4.0580    3.0760 ho        1 NVC      0.477000
     40 H37         4.5790    1.2090    2.9460 hx        1 NVC      0.142200
     41 H15         1.6250    0.3840   -2.9280 h1        1 NVC      0.109700
     42 H24         3.3810   -0.8420   -3.8810 hc        1 NVC      0.079700
     43 H24A        2.3270   -2.3050   -3.7260 hc        1 NVC      0.079700
     44 H21         3.6050   -3.1250   -1.9410 hc        1 NVC      0.070700
     45 H21A        4.8200   -1.8460   -2.3390 hc        1 NVC      0.070700
     46 H18         4.2610   -0.6740   -0.4140 h1        1 NVC      0.043700
     47 H18A        3.1090   -2.0180    0.0330 h1        1 NVC      0.043700
     48 H7         -2.5000   -1.7070   -5.3600 ha        1 NVC      0.161000
     49 H9         -4.4260   -3.0790   -4.5010 ha        1 NVC      0.149000
     50 H11        -4.4180   -3.9950   -2.2070 ha        1 NVC      0.146000
     51 H13        -2.5060   -3.6010   -0.6480 ha        1 NVC      0.151000
     52 H341        2.3180    1.3970    3.7230 hn        1 NVC      0.497800
@<TRIPOS>BOND
     1    1    2 2   
     2    2    3 1   
     3    2   13 1   
     4    3    4 1   
     5    3    8 1   
     6    3   27 1   
     7    4    5 1   
     8    4   28 1   
     9    4   29 1   
    10    5    6 1   
    11    5   30 1   
    12    5   31 1   
    13    6    7 1   
    14    6   32 1   
    15    6   33 1   
    16    7   34 1   
    17    7   35 1   
    18    7   36 1   
    19    8    9 1   
    20    8   37 1   
    21    8   38 1   
    22    9   10 1   
    23    9   11 1   
    24    9   52 1   
    25   10   39 1   
    26   11   12 2   
    27   11   40 1   
    28   13   14 1   
    29   13   17 1   
    30   14   15 1   
    31   14   18 1   
    32   14   41 1   
    33   15   16 1   
    34   15   42 1   
    35   15   43 1   
    36   16   17 1   
    37   16   44 1   
    38   16   45 1   
    39   17   46 1   
    40   17   47 1   
    41   18   19 1   
    42   18   22 2   
    43   19   20 1   
    44   20   21 ar  
    45   20   23 ar  
    46   21   22 1   
    47   21   26 ar  
    48   23   24 ar  
    49   23   48 1   
    50   24   25 ar  
    51   24   49 1   
    52   25   26 ar  
    53   25   50 1   
    54   26   51 1   
@<TRIPOS>SUBSTRUCTURE
     1 NVC         1 TEMP              0 ****  ****    0 ROOT
