@<TRIPOS>MOLECULE
NVC
   51    53     1     0     0
SMALL
bcc


@<TRIPOS>ATOM
      1 O28         0.4220    0.0680    2.0030 o         1 NVC     -0.591100
      2 C27         0.9400    0.4500    0.9370 c         1 NVC      0.674100
      3 C29         2.2930   -0.0890    0.4700 c3        1 NVC     -0.148700
      4 C40         2.3500   -1.5930    0.6900 c3        1 NVC     -0.081400
      5 C43         1.5110   -2.3380   -0.3270 c3        1 NVC     -0.082400
      6 C46         1.5560   -3.8310   -0.0780 c3        1 NVC     -0.077400
      7 C49         0.7320   -4.5830   -1.0910 c3        1 NVC     -0.093100
      8 C31         3.3710    0.6360    1.2940 c3        1 NVC      0.065000
      9 N34         4.7420    0.5770    0.7910 n         1 NVC     -0.295300
     10 O35         5.3140   -0.6020    1.0620 oh        1 NVC     -0.429100
     11 C37         4.9560    1.0580   -0.5310 c         1 NVC      0.608900
     12 O39         5.8880    0.6650   -1.2410 o         1 NVC     -0.544100
     13 N17         0.2980    1.4020    0.1640 n         1 NVC     -0.479800
     14 C15        -0.9950    1.9600    0.5200 c3        1 NVC      0.107400
     15 C24        -1.1350    3.2860   -0.2690 c3        1 NVC     -0.083400
     16 C21        -0.0250    3.2750   -1.3150 c3        1 NVC     -0.090400
     17 C18         0.8570    2.0530   -1.0030 c3        1 NVC      0.100000
     18 C3         -2.1460    1.0520    0.1730 cc        1 NVC      0.522600
     19 O1         -3.1980    1.0590    1.1330 os        1 NVC     -0.305700
     20 C6         -4.1380    0.1710    0.6110 ca        1 NVC      0.036100
     21 C5         -3.6230   -0.3350   -0.6330 ca        1 NVC      0.054400
     22 N4         -2.3580    0.2570   -0.8660 nd        1 NVC     -0.548100
     23 C7         -5.3640   -0.2050    1.1370 ca        1 NVC     -0.113000
     24 C9         -6.0970   -1.1230    0.3850 ca        1 NVC     -0.111000
     25 C11        -5.6180   -1.6320   -0.8310 ca        1 NVC     -0.147000
     26 C13        -4.3850   -1.2540   -1.3600 ca        1 NVC     -0.067000
     27 H29         2.4470    0.1160   -0.6250 hc        1 NVC      0.065700
     28 H40         3.4180   -1.9310    0.6180 hc        1 NVC      0.069700
     29 H40A        1.9870   -1.8290    1.7260 hc        1 NVC      0.069700
     30 H43         0.4490   -1.9800   -0.2720 hc        1 NVC      0.044700
     31 H43A        1.8840   -2.1200   -1.3620 hc        1 NVC      0.044700
     32 H46         2.6200   -4.1850   -0.1190 hc        1 NVC      0.041200
     33 H46A        1.1750   -4.0480    0.9550 hc        1 NVC      0.041200
     34 H49         0.7740   -5.6800   -0.8880 hc        1 NVC      0.033033
     35 H49A       -0.3360   -4.2570   -1.0500 hc        1 NVC      0.033033
     36 H49B        1.1140   -4.4010   -2.1250 hc        1 NVC      0.033033
     37 H31         3.1190    1.7330    1.3510 h1        1 NVC      0.079700
     38 H31A        3.3730    0.2070    2.3360 h1        1 NVC      0.079700
     39 HO35        6.2490   -0.3960    1.2590 ho        1 NVC      0.429000
     40 H37         4.2850    1.9040   -0.8050 h5        1 NVC      0.032200
     41 H15        -1.0360    2.1320    1.6370 h1        1 NVC      0.104700
     42 H24        -2.1430    3.3640   -0.7440 hc        1 NVC      0.065700
     43 H24A       -1.0140    4.1470    0.4340 hc        1 NVC      0.065700
     44 H21        -0.4490    3.1860   -2.3450 hc        1 NVC      0.059700
     45 H21A        0.5790    4.2140   -1.2700 hc        1 NVC      0.059700
     46 H18         1.9170    2.3710   -0.7920 h1        1 NVC      0.043700
     47 H18A        0.8690    1.3420   -1.8750 h1        1 NVC      0.043700
     48 H7         -5.7310    0.1950    2.0910 ha        1 NVC      0.153000
     49 H9         -7.0770   -1.4580    0.7570 ha        1 NVC      0.138000
     50 H11        -6.2360   -2.3560   -1.3840 ha        1 NVC      0.137000
     51 H13        -4.0210   -1.6630   -2.3120 ha        1 NVC      0.151000
@<TRIPOS>BOND
     1    1    2 2   
     2    2    3 1   
     3    2   13 1   
     4    3    4 1   
     5    3    8 1   
     6    3   27 1   
     7    4    5 1   
     8    4   28 1   
     9    4   29 1   
    10    5    6 1   
    11    5   30 1   
    12    5   31 1   
    13    6    7 1   
    14    6   32 1   
    15    6   33 1   
    16    7   34 1   
    17    7   35 1   
    18    7   36 1   
    19    8    9 1   
    20    8   37 1   
    21    8   38 1   
    22    9   10 1   
    23    9   11 1   
    24   10   39 1   
    25   11   12 2   
    26   11   40 1   
    27   13   14 1   
    28   13   17 1   
    29   14   15 1   
    30   14   18 1   
    31   14   41 1   
    32   15   16 1   
    33   15   42 1   
    34   15   43 1   
    35   16   17 1   
    36   16   44 1   
    37   16   45 1   
    38   17   46 1   
    39   17   47 1   
    40   18   19 1   
    41   18   22 2   
    42   19   20 1   
    43   20   21 ar  
    44   20   23 ar  
    45   21   22 1   
    46   21   26 ar  
    47   23   24 ar  
    48   23   48 1   
    49   24   25 ar  
    50   24   49 1   
    51   25   26 ar  
    52   25   50 1   
    53   26   51 1   
@<TRIPOS>SUBSTRUCTURE
     1 NVC         1 TEMP              0 ****  ****    0 ROOT
