@<TRIPOS>MOLECULE
NVE
   70    73     1     0     0
SMALL
bcc


@<TRIPOS>ATOM
      1 C1          6.5720   -2.5650    2.9840 c3        1 NVE     -0.098100
      2 C2          6.9420   -2.3890    1.5190 c3        1 NVE      0.192800
      3 N3          6.5270   -1.0970    0.9760 na        1 NVE     -0.713000
      4 C4          7.1740   -0.6950   -0.2490 ca        1 NVE      0.578200
      5 C5          7.3030    0.7190   -0.5030 ca        1 NVE     -0.038700
      6 N6          6.8580    1.7010    0.4000 n         1 NVE     -0.368000
      7 C7          7.7120    2.8500    0.5940 c3        1 NVE      0.079300
      8 C8          5.6360    1.6630    1.0740 c         1 NVE      0.736100
      9 O9          5.3260    2.6300    1.8010 o         1 NVE     -0.631500
     10 C10         4.6990    0.5250    0.9080 ca        1 NVE     -0.249900
     11 C11         3.3290    0.8170    0.8620 ca        1 NVE     -0.033000
     12 C12         2.4030   -0.2240    0.7850 ca        1 NVE     -0.218600
     13 C13         2.9080   -1.5430    0.7760 ca        1 NVE      0.437200
     14 N14         4.2070   -1.8580    0.8220 nb        1 NVE     -0.690000
     15 C15         5.1160   -0.8360    0.8900 ca        1 NVE      0.637200
     16 C16         7.9520    1.1050   -1.6990 ca        1 NVE     -0.119000
     17 C17         8.4410    0.1370   -2.5680 ca        1 NVE     -0.235300
     18 C18         8.2710   -1.2160   -2.2300 ca        1 NVE      0.396200
     19 N19         7.6470   -1.6300   -1.1200 nb        1 NVE     -0.672000
     20 C20        -6.4640    3.7440   -0.7440 c3        1 NVE     -0.107600
     21 C21        -7.7320    2.9230   -0.8400 c3        1 NVE      0.164400
     22 O22        -7.6750    1.8250    0.0480 os        1 NVE     -0.584200
     23 P23        -7.6320    0.3410   -0.5650 p5        1 NVE      1.528300
     24 C24        -6.1210   -0.3080   -0.2640 c3        1 NVE     -0.132800
     25 C26        -3.8680    0.3330   -0.7410 ca        1 NVE      0.121100
     26 C27        -3.0200    1.2960   -1.3180 ca        1 NVE     -0.167000
     27 C28        -1.6460    1.0950   -1.2780 ca        1 NVE     -0.094000
     28 C29        -1.1050   -0.0470   -0.6720 ca        1 NVE     -0.108300
     29 C30        -1.9650   -0.9930   -0.1040 ca        1 NVE     -0.094000
     30 C31        -3.3470   -0.8120   -0.1320 ca        1 NVE     -0.167000
     31 C32         0.3670   -0.2590   -0.6420 c3        1 NVE     -0.031100
     32 C33         0.9420    0.0310    0.7370 c3        1 NVE     -0.028100
     33 O34        -8.5210   -0.4460    0.5200 os        1 NVE     -0.584200
     34 C35        -9.9130   -0.2220    0.3850 c3        1 NVE      0.164400
     35 C36       -10.6450   -1.0950    1.3720 c3        1 NVE     -0.107600
     36 O37        -8.1850    0.2730   -1.9100 o         1 NVE     -0.829300
     37 H1          6.9840   -1.7370    3.6090 hc        1 NVE      0.043367
     38 H2          5.4660   -2.6020    3.1290 hc        1 NVE      0.043367
     39 H3          7.0070   -3.5310    3.3370 hc        1 NVE      0.043367
     40 H4          8.0660   -2.4250    1.4340 h1        1 NVE      0.058200
     41 H5          6.5250   -3.2520    0.9260 h1        1 NVE      0.058200
     42 H6          7.4410    3.6620   -0.1330 h1        1 NVE      0.052367
     43 H7          7.5780    3.2440    1.6380 h1        1 NVE      0.052367
     44 H8          8.7840    2.5590    0.4420 h1        1 NVE      0.052367
     45 H9          3.0010    1.8690    0.9050 ha        1 NVE      0.162000
     46 H10         2.2160   -2.4050    0.7250 h4        1 NVE      0.027100
     47 H11         8.0750    2.1720   -1.9420 ha        1 NVE      0.148000
     48 H12         8.9490    0.4200   -3.4990 ha        1 NVE      0.149000
     49 H13         8.6490   -2.0210   -2.8870 h4        1 NVE      0.029100
     50 H14        -6.2990    4.0760    0.3090 hc        1 NVE      0.046533
     51 H15        -5.5750    3.1480   -1.0650 hc        1 NVE      0.046533
     52 H16        -6.5570    4.6410   -1.4010 hc        1 NVE      0.046533
     53 H17        -8.6140    3.5470   -0.5190 h1        1 NVE      0.051700
     54 H18        -7.9010    2.5500   -1.8890 h1        1 NVE      0.051700
     55 H19        -5.9070   -0.4340    0.8310 h1        1 NVE      0.099200
     56 H20        -5.9860   -1.3150   -0.7400 h1        1 NVE      0.099200
     57 H21        -3.4540    2.1880   -1.7910 ha        1 NVE      0.145500
     58 H22        -0.9770    1.8430   -1.7300 ha        1 NVE      0.136500
     59 H23        -1.5470   -1.8930    0.3720 ha        1 NVE      0.136500
     60 H24        -4.0050   -1.5670    0.3200 ha        1 NVE      0.145500
     61 H25         0.6000   -1.3220   -0.9230 hc        1 NVE      0.052700
     62 H26         0.8670    0.4020   -1.3990 hc        1 NVE      0.052700
     63 H27         0.4240   -0.6170    1.4960 hc        1 NVE      0.057200
     64 H28         0.7280    1.0990    1.0120 hc        1 NVE      0.057200
     65 H29       -10.0990    0.8690    0.5840 h1        1 NVE      0.051700
     66 H30       -10.2010   -0.4630   -0.6770 h1        1 NVE      0.051700
     67 H31       -10.4320   -2.1720    1.1710 hc        1 NVE      0.046533
     68 H32       -10.3200   -0.8620    2.4140 hc        1 NVE      0.046533
     69 H33       -11.7430   -0.9160    1.2810 hc        1 NVE      0.046533
     70 O25        -5.2190    0.6280   -0.8360 os        1 NVE     -0.318900
@<TRIPOS>BOND
     1    1    2 1   
     2    1   37 1   
     3    1   38 1   
     4    1   39 1   
     5    2    3 1   
     6    2   40 1   
     7    2   41 1   
     8    3    4 1   
     9    3   15 1   
    10    4    5 ar  
    11    4   19 ar  
    12    5    6 1   
    13    5   16 ar  
    14    6    7 1   
    15    6    8 1   
    16    7   42 1   
    17    7   43 1   
    18    7   44 1   
    19    8    9 2   
    20    8   10 1   
    21   10   11 ar  
    22   10   15 ar  
    23   11   12 ar  
    24   11   45 1   
    25   12   13 ar  
    26   12   32 1   
    27   13   14 ar  
    28   13   46 1   
    29   14   15 ar  
    30   16   17 ar  
    31   16   47 1   
    32   17   18 ar  
    33   17   48 1   
    34   18   19 ar  
    35   18   49 1   
    36   20   21 1   
    37   20   50 1   
    38   20   51 1   
    39   20   52 1   
    40   21   22 1   
    41   21   53 1   
    42   21   54 1   
    43   22   23 1   
    44   23   24 1   
    45   23   33 1   
    46   23   36 2   
    47   24   55 1   
    48   24   56 1   
    49   24   70 1   
    50   25   26 ar  
    51   25   30 ar  
    52   25   70 1   
    53   26   27 ar  
    54   26   57 1   
    55   27   28 ar  
    56   27   58 1   
    57   28   29 ar  
    58   28   31 1   
    59   29   30 ar  
    60   29   59 1   
    61   30   60 1   
    62   31   32 1   
    63   31   61 1   
    64   31   62 1   
    65   32   63 1   
    66   32   64 1   
    67   33   34 1   
    68   34   35 1   
    69   34   65 1   
    70   34   66 1   
    71   35   67 1   
    72   35   68 1   
    73   35   69 1   
@<TRIPOS>SUBSTRUCTURE
     1 NVE         1 TEMP              0 ****  ****    0 ROOT
