@<TRIPOS>MOLECULE
NVE
   70    64     1     0     0
SMALL
bcc


@<TRIPOS>ATOM
      1 C1         -2.0070   -7.4820    2.7050 c3        1 NVE     -0.215000
      2 C2         -2.9690   -6.2680    2.6500 c3        1 NVE     -0.044000
      3 N3         -2.9380   -5.6900    1.3300 n3        1 NVE     -0.169000
      4 C4         -4.2160   -5.9640    0.6430 c2        1 NVE      0.058000
      5 C5         -4.0050   -6.2620   -0.6980 c2        1 NVE      0.032000
      6 N6         -3.3700   -5.1390   -1.3900 n3        1 NVE     -0.270000
      7 C7         -3.9290   -4.4640   -2.5040 c3        1 NVE     -0.076000
      8 C8         -2.1000   -4.8520   -0.8350 c1        1 NVE      0.373000
      9 O9         -0.9930   -5.3300   -1.2750 o         1 NVE     -0.358000
     10 C10        -2.2040   -3.7440    0.2350 c1        1 NVE     -0.162000
     11 C11        -1.5380   -2.5130    0.2170 c1        1 NVE     -0.034000
     12 C12        -1.3640   -1.7930    1.4040 c1        1 NVE     -0.146000
     13 C13        -1.8570   -2.3060    2.6110 c2        1 NVE     -0.026000
     14 N14        -2.5160   -3.5240    2.6300 n1        1 NVE     -0.166000
     15 C15        -2.6920   -4.2520    1.4310 c1        1 NVE      0.116000
     16 C16        -4.8260   -7.1870   -1.3440 c1        1 NVE     -0.118000
     17 C17        -5.8480   -7.8060   -0.6500 c1        1 NVE     -0.120000
     18 C18        -6.0600   -7.5040    0.7060 c1        1 NVE     -0.120000
     19 N19        -5.2500   -6.5910    1.3430 n1        1 NVE     -0.145000
     20 C20         2.8770    9.9420   -3.1140 c3        1 NVE     -0.225000
     21 C21         3.0780    9.3610   -1.7200 c3        1 NVE      0.015000
     22 O22         2.5590    8.0420   -1.6800 os        1 NVE     -0.744000
     23 P23         3.4280    6.9100   -0.9770 p5        1 NVE      2.673000
     24 C24         2.3190    5.5650   -0.3840 c3        1 NVE     -0.693000
     25 O25         3.0390    4.7030    0.4770 os        1 NVE     -0.206000
     26 C26         2.3390    3.4840    0.7980 c1        1 NVE      0.076000
     27 C27         2.3660    2.9880    2.0970 c1        1 NVE     -0.120000
     28 C28         1.8070    1.7300    2.3780 c1        1 NVE     -0.120000
     29 C29         1.2280    0.9850    1.3580 c1        1 NVE     -0.100000
     30 C30         1.2030    1.4840    0.0630 c1        1 NVE     -0.094000
     31 C31         1.7600    2.7360   -0.2170 c1        1 NVE     -0.186000
     32 C32         0.7400   -0.4390    1.6360 c3        1 NVE     -0.119000
     33 C33        -0.7610   -0.4270    1.8520 c2        1 NVE     -0.113000
     34 O34         4.4700    6.3170   -2.0170 os        1 NVE     -0.744000
     35 C35         5.6980    5.7700   -1.5170 c3        1 NVE      0.015000
     36 C36         6.3140    4.8280   -2.5860 c3        1 NVE     -0.225000
     37 O37         4.1900    7.5190    0.2250 o         1 NVE     -1.101000
     38 H1         -1.0670   -7.1660    2.5820 hc        1 NVE      0.082333
     39 H2         -2.0940   -7.9450    3.6080 hc        1 NVE      0.082333
     40 H3         -2.2390   -8.1240    1.9760 hc        1 NVE      0.082333
     41 H4         -2.6890   -5.6020    3.3030 h1        1 NVE      0.097500
     42 H5         -3.8900   -6.5670    2.8570 h1        1 NVE      0.097500
     43 H6         -4.8510   -4.2390   -2.3160 h1        1 NVE      0.091667
     44 H7         -3.8900   -5.0330   -3.2740 h1        1 NVE      0.091667
     45 H8         -3.4110   -3.6280   -2.6810 h1        1 NVE      0.091667
     46 H9         -1.1890   -2.1490   -0.6380 ha        1 NVE      0.161000
     47 H10        -1.7330   -1.7850    3.4700 h4        1 NVE      0.166000
     48 H11        -4.6790   -7.3960   -2.2750 ha        1 NVE      0.147000
     49 H12        -6.4280   -8.4600   -1.1070 ha        1 NVE      0.150500
     50 H13        -6.7800   -7.9410    1.1950 ha        1 NVE      0.150500
     51 H14         3.0880    9.2780   -3.7690 hc        1 NVE      0.086167
     52 H15         1.9450   10.2210   -3.2200 hc        1 NVE      0.086167
     53 H16         3.4770   10.7320   -3.2360 hc        1 NVE      0.086167
     54 H17         2.6100    9.9160   -1.0660 h1        1 NVE      0.090500
     55 H18         4.0270    9.3410   -1.5100 h1        1 NVE      0.090500
     56 H19         1.9660    5.0310   -1.1870 h1        1 NVE      0.138500
     57 H20         1.5700    5.9520    0.1020 h1        1 NVE      0.138500
     58 H21         2.7640    3.5030    2.7970 ha        1 NVE      0.150500
     59 H22         1.8250    1.3660    3.3230 ha        1 NVE      0.150500
     60 H23         0.7990    0.9630   -0.6500 ha        1 NVE      0.136000
     61 H24         1.7410    3.0810   -1.1200 ha        1 NVE      0.141000
     62 H25         0.9600   -1.0230    0.8600 hc        1 NVE      0.095000
     63 H26         1.1700   -0.7740    2.4160 hc        1 NVE      0.095000
     64 H27        -1.1670    0.3030    1.3180 ha        1 NVE      0.095000
     65 H28        -0.9570   -0.2770    2.8250 ha        1 NVE      0.095000
     66 H29         5.5170    5.2550   -0.6840 h1        1 NVE      0.090500
     67 H30         6.3050    6.4740   -1.3280 h1        1 NVE      0.090500
     68 H31         7.2030    4.5100   -2.2750 hc        1 NVE      0.086167
     69 H32         5.7010    4.0330   -2.7300 hc        1 NVE      0.086167
     70 H33         6.4220    5.3270   -3.4480 hc        1 NVE      0.086167
@<TRIPOS>BOND
     1    1    2 1   
     2    1   38 1   
     3    1   39 1   
     4    1   40 1   
     5    2    3 1   
     6    2   41 1   
     7    2   42 1   
     8    3    4 1   
     9    3   15 1   
    10    4    5 1   
    11    4   19 1   
    12    5    6 1   
    13    5   16 1   
    14    6    7 1   
    15    6    8 1   
    16    7   43 1   
    17    7   44 1   
    18    7   45 1   
    19    8    9 1   
    20   10   15 1   
    21   11   12 1   
    22   11   46 1   
    23   12   13 1   
    24   13   14 1   
    25   13   47 1   
    26   16   48 1   
    27   17   18 1   
    28   17   49 1   
    29   18   50 1   
    30   20   21 1   
    31   20   51 1   
    32   20   52 1   
    33   20   53 1   
    34   21   22 1   
    35   21   54 1   
    36   21   55 1   
    37   22   23 1   
    38   23   24 1   
    39   23   34 1   
    40   23   37 1   
    41   24   25 1   
    42   24   56 1   
    43   24   57 1   
    44   25   26 1   
    45   26   31 1   
    46   27   28 1   
    47   27   58 1   
    48   28   59 1   
    49   29   30 1   
    50   29   32 1   
    51   30   60 1   
    52   31   61 1   
    53   32   33 1   
    54   32   62 1   
    55   32   63 1   
    56   33   64 1   
    57   33   65 1   
    58   34   35 1   
    59   35   36 1   
    60   35   66 1   
    61   35   67 1   
    62   36   68 1   
    63   36   69 1   
    64   36   70 1   
@<TRIPOS>SUBSTRUCTURE
     1 NVE         1 TEMP              0 ****  ****    0 ROOT
