@<TRIPOS>MOLECULE
NVE
   70    68     1     0     0
SMALL
bcc


@<TRIPOS>ATOM
      1 C1         -2.2700    1.4240    1.7200 c3        1 NVE     -0.270500
      2 C2          0.5750    0.1160    0.2090 c1        1 NVE     -0.068000
      3 N3          1.2790   -0.0910    1.3140 n3        1 NVE     -0.122000
      4 C4          1.3730   -1.3200    2.0510 c2        1 NVE      0.063000
      5 C5          2.2970   -1.3850    3.2540 c3        1 NVE     -0.223000
      6 N6          1.7230   -0.6220    4.5280 n4        1 NVE      0.135000
      7 C7          2.6650   -0.3560    5.4990 c2        1 NVE     -0.642000
      8 C8          1.0920    0.6550    4.0540 c2        1 NVE      0.325000
      9 O9         -0.0290    0.9230    4.4690 o         1 NVE     -0.204000
     10 C10         1.9130    1.4600    3.1190 c2        1 NVE     -0.119000
     11 C11         2.5520    2.6220    3.7050 c2        1 NVE     -0.162000
     12 C12         2.5330    3.8450    3.1580 c2        1 NVE     -0.092000
     13 C13         3.4990    2.2460    0.0850 c1        1 NVE      0.228000
     14 N14         2.8390    1.7000    0.9080 n2        1 NVE     -0.312000
     15 C15         2.0360    1.0450    1.8180 c2        1 NVE      0.246000
     16 C16         2.6070   -2.7960    3.6310 c2        1 NVE     -0.130000
     17 C17         1.8810   -3.8250    3.1430 c2        1 NVE     -0.221000
     18 C18         0.6700   -3.5140    2.3920 c1        1 NVE      0.028000
     19 N19         0.6070   -2.3530    1.7140 n2        1 NVE     -0.208000
     20 C20         9.1970    3.7010   10.7150 c3        1 NVE     -0.270500
     21 C21         6.2430    5.8960   11.3360 c1        1 NVE     -0.032000
     22 O22         6.5170    7.1630   11.5020 os        1 NVE     -0.610000
     23 P23         5.1710    8.0760   11.8290 p5        1 NVE      2.623000
     24 C24         6.3890    9.6550    8.7860 c1        1 NVE     -0.072000
     25 C26         6.0420    8.4080    6.8370 c2        1 NVE      0.096000
     26 C27         5.0310    7.6850    7.3630 c2        1 NVE     -0.103000
     27 C28         4.4440    6.4860    6.8180 c2        1 NVE     -0.138000
     28 C29         4.5040    6.0860    5.5400 c2        1 NVE     -0.140000
     29 C30         7.4150    8.0050    4.6630 c1        1 NVE     -0.159000
     30 C31         6.7770    8.1880    5.6610 c1        1 NVE     -0.131000
     31 C32         3.8770    4.8320    5.0550 c3        1 NVE     -0.139000
     32 C33         3.1560    5.0540    3.7400 c3        1 NVE     -0.140000
     33 O34         4.1270    7.7090   10.6770 os        1 NVE     -0.744000
     34 C35         3.2760    6.5920   10.8750 c3        1 NVE      0.027000
     35 C36         1.8330    7.0420   10.9420 c3        1 NVE     -0.238000
     36 O37         4.6980    7.8360   13.1790 o         1 NVE     -1.069000
     37 H1         -1.5020    1.1710    0.9540 hc        1 NVE      0.068125
     38 H2         -2.6670    2.4430    1.5210 hc        1 NVE      0.068125
     39 H3         -1.8100    1.3970    2.7330 hc        1 NVE      0.068125
     40 H4         -3.1000    0.6860    1.6690 hc        1 NVE      0.068125
     41 H5         -0.0400   -0.7170   -0.1850 ha        1 NVE      0.104000
     42 H6          0.9920   -1.2370    4.9030 hn        1 NVE      0.234000
     43 H7          3.4260    0.4000    5.3100 hx        1 NVE      0.140500
     44 H8          2.8190   -1.0960    6.2860 hx        1 NVE      0.140500
     45 H9          3.0350    2.4320    4.6820 ha        1 NVE      0.155000
     46 H10         2.0110    4.0300    2.2000 ha        1 NVE      0.134000
     47 H11         3.2650   -0.8550    3.0170 hx        1 NVE      0.164000
     48 H12         3.4200   -2.9180    4.3640 ha        1 NVE      0.158000
     49 H13         2.0950   -4.8780    3.3700 ha        1 NVE      0.169000
     50 H14        10.0430    3.0050   10.5320 hc        1 NVE      0.068125
     51 H15         9.0210    4.3170    9.8060 hc        1 NVE      0.068125
     52 H16         8.2800    3.1180   10.9500 hc        1 NVE      0.068125
     53 H17         9.4430    4.3660   11.5710 hc        1 NVE      0.068125
     54 H18         7.1680    5.2930   11.1560 ha        1 NVE      0.044000
     55 H19         5.5840    9.2400   11.5080 hp        1 NVE     -0.457000
     56 H20         6.7590   10.6670    9.0970 ha        1 NVE      0.049000
     57 H21         4.6060    8.0140    8.3360 ha        1 NVE      0.179000
     58 H22         3.8870    5.8850    7.5620 ha        1 NVE      0.133000
     59 H23         5.0390    6.6760    4.7760 ha        1 NVE      0.133000
     60 H24         7.9770    7.8380    3.7800 ha        1 NVE      0.231000
     61 H25         4.6860    4.0620    4.9150 hc        1 NVE      0.096000
     62 H26         3.1580    4.4260    5.8160 hc        1 NVE      0.096000
     63 H27         3.8790    5.4740    2.9850 hc        1 NVE      0.106000
     64 H28         2.3520    5.8290    3.8850 hc        1 NVE      0.106000
     65 H29         3.4280    5.9160    9.9860 h1        1 NVE      0.097000
     66 H30         3.5850    6.0540   11.8140 h1        1 NVE      0.097000
     67 H31         1.1700    6.1440   10.9290 hc        1 NVE      0.087667
     68 H32         1.6350    7.6190   11.8770 hc        1 NVE      0.087667
     69 H33         1.5870    7.6900   10.0680 hc        1 NVE      0.087667
     70 O25         6.4700    9.6120    7.4770 os        1 NVE     -0.123000
@<TRIPOS>BOND
     1    1   37 1   
     2    1   38 1   
     3    1   39 1   
     4    1   40 1   
     5    2    3 1   
     6    2   41 1   
     7    3    4 1   
     8    3   15 1   
     9    4    5 1   
    10    4   19 1   
    11    5    6 1   
    12    5   16 1   
    13    5   47 1   
    14    6    7 1   
    15    6    8 1   
    16    6   42 1   
    17    7   43 1   
    18    7   44 1   
    19    8    9 1   
    20    8   10 1   
    21   10   11 1   
    22   10   15 1   
    23   11   12 1   
    24   11   45 1   
    25   12   32 1   
    26   12   46 1   
    27   13   14 1   
    28   14   15 1   
    29   16   17 1   
    30   16   48 1   
    31   17   18 1   
    32   17   49 1   
    33   18   19 1   
    34   20   50 1   
    35   20   51 1   
    36   20   52 1   
    37   20   53 1   
    38   21   22 1   
    39   21   54 1   
    40   22   23 1   
    41   23   33 1   
    42   23   36 1   
    43   23   55 1   
    44   24   56 1   
    45   24   70 1   
    46   25   26 1   
    47   25   30 1   
    48   25   70 1   
    49   26   27 1   
    50   26   57 1   
    51   27   28 1   
    52   27   58 1   
    53   28   31 1   
    54   28   59 1   
    55   29   30 1   
    56   29   60 1   
    57   31   32 1   
    58   31   61 1   
    59   31   62 1   
    60   32   63 1   
    61   32   64 1   
    62   33   34 1   
    63   34   35 1   
    64   34   65 1   
    65   34   66 1   
    66   35   67 1   
    67   35   68 1   
    68   35   69 1   
@<TRIPOS>SUBSTRUCTURE
     1 NVE         1 TEMP              0 ****  ****    0 ROOT
