@<TRIPOS>MOLECULE
NVE
   70    68     1     0     0
SMALL
bcc


@<TRIPOS>ATOM
      1 C1          0.8620    0.3930   -1.5770 c3        1 NVE     -0.240000
      2 C2          1.8860   -0.4920   -0.8880 c3        1 NVE     -0.022000
      3 N3          1.6170   -0.7460    0.5250 n3        1 NVE     -0.212000
      4 C4          0.7710   -1.7740    0.9050 c2        1 NVE      0.157000
      5 C5          0.6100   -2.0660    2.4020 c3        1 NVE     -0.188000
      6 N6         -0.3540   -1.0650    3.1210 nx        1 NVE      0.146000
      7 C7         -0.1860   -0.9890    4.4940 c2        1 NVE     -0.692000
      8 C8         -0.1410    0.2990    2.5260 c2        1 NVE      0.310000
      9 O9         -1.1310    0.9360    2.1790 o         1 NVE     -0.214000
     10 C10         1.2700    0.7420    2.4500 c2        1 NVE     -0.114000
     11 C11         1.6610    1.6900    3.4760 c2        1 NVE     -0.149000
     12 C12         2.3640    2.8090    3.2590 c2        1 NVE     -0.107000
     13 C13         4.5810    0.8260    1.3730 c1        1 NVE      0.207000
     14 N14         3.4290    0.5480    1.4190 n2        1 NVE     -0.320000
     15 C15         2.0900    0.1990    1.4900 c2        1 NVE      0.211000
     16 C16         0.1300   -3.4660    2.6310 c2        1 NVE     -0.167000
     17 C17        -0.3780   -4.2010    1.6230 c2        1 NVE     -0.193000
     18 C18        -0.6440   -3.5420    0.3410 c1        1 NVE     -0.024000
     19 N19         0.0430   -2.4640   -0.0040 n2        1 NVE     -0.248000
     20 C20        10.1680    6.9170   12.2290 c3        1 NVE     -0.270000
     21 C21         7.0470    8.9290   12.5690 c1        1 NVE     -0.055000
     22 O22         6.8930    9.8680   11.6760 os        1 NVE     -0.604000
     23 P23         5.5030   10.7470   11.9270 p5        1 NVE      2.630000
     24 C24         4.8900    9.0620    8.7680 c1        1 NVE     -0.046000
     25 C26         5.3750    7.0350    7.6020 c2        1 NVE      0.005000
     26 C27         4.1240    6.6920    7.2310 c2        1 NVE     -0.112000
     27 C28         3.7320    5.7340    6.2280 c2        1 NVE     -0.151000
     28 C29         4.5110    5.2680    5.2410 c2        1 NVE     -0.124000
     29 C30         7.6650    6.1360    6.7660 c1        1 NVE     -0.154000
     30 C31         6.6040    6.5460    7.1400 c1        1 NVE     -0.130000
     31 C32         4.1060    4.2930    4.2050 c3        1 NVE     -0.135000
     32 C33         2.6890    3.7720    4.3400 c3        1 NVE     -0.143000
     33 O34         4.4370    9.6360   12.3120 oh        1 NVE     -0.802000
     34 C35         4.9700    7.2690   14.8360 c2        1 NVE     -0.230000
     35 C36         3.7550    7.0490   14.3520 c2        1 NVE     -0.230000
     36 O37         5.7320   11.7480   12.9500 o         1 NVE     -1.070000
     37 H1          0.7980    1.3980   -1.0950 hc        1 NVE      0.095333
     38 H2         -0.1510   -0.0770   -1.5630 hc        1 NVE      0.095333
     39 H3          1.1760    0.5260   -2.6410 hc        1 NVE      0.095333
     40 H4          2.9050   -0.0190   -0.9820 h1        1 NVE      0.113500
     41 H5          1.9310   -1.4880   -1.4180 h1        1 NVE      0.113500
     42 H6         -1.3090   -1.3720    2.9000 hn        1 NVE      0.233000
     43 H7         -0.8730   -1.5490    5.1270 hx        1 NVE      0.138000
     44 H8          0.7650   -0.6380    4.8900 hx        1 NVE      0.138000
     45 H9          1.2850    1.4380    4.4870 ha        1 NVE      0.161000
     46 H10         2.7140    3.0940    2.2530 ha        1 NVE      0.128000
     47 H11         1.6080   -1.9470    2.9170 hx        1 NVE      0.159000
     48 H12         0.1940   -3.8130    3.6730 ha        1 NVE      0.154000
     49 H13        -0.6940   -5.2470    1.7370 ha        1 NVE      0.163000
     50 H14        11.0820    6.2890   12.1520 hc        1 NVE      0.067750
     51 H15        10.4560    7.9620   12.4760 hc        1 NVE      0.067750
     52 H16         9.6250    6.9010   11.2590 hc        1 NVE      0.067750
     53 H17         9.5080    6.5150   13.0290 hc        1 NVE      0.067750
     54 H18         7.9980    8.3620   12.4250 ha        1 NVE      0.052000
     55 H19         5.1860   11.1140   10.7500 hp        1 NVE     -0.454000
     56 H20         4.1310    9.3450    8.0100 ha        1 NVE      0.046000
     57 H21         3.2770    7.1810    7.7530 ha        1 NVE      0.137000
     58 H22         2.6820    5.3980    6.3200 ha        1 NVE      0.132000
     59 H23         5.5580    5.6120    5.1420 ha        1 NVE      0.134000
     60 H24         8.6050    5.7700    6.4340 ha        1 NVE      0.232000
     61 H25         4.2290    4.7790    3.1960 hc        1 NVE      0.099500
     62 H26         4.8230    3.4260    4.2380 hc        1 NVE      0.099500
     63 H27         2.5550    3.2970    5.3500 hc        1 NVE      0.102000
     64 H28         1.9630    4.6300    4.2760 hc        1 NVE      0.102000
     65 H29         4.6010    9.1350   13.1160 ho        1 NVE      0.300000
     66 H30         5.8050    7.6310   14.2140 ha        1 NVE      0.115250
     67 H31         5.2240    7.1070   15.8920 ha        1 NVE      0.115250
     68 H32         2.9240    6.6900   14.9730 ha        1 NVE      0.115250
     69 H33         3.4980    7.2110   13.2950 ha        1 NVE      0.115250
     70 O25         5.5500    7.9780    8.6780 os        1 NVE     -0.023000
@<TRIPOS>BOND
     1    1    2 1   
     2    1   37 1   
     3    1   38 1   
     4    1   39 1   
     5    2    3 1   
     6    2   40 1   
     7    2   41 1   
     8    3    4 1   
     9    3   15 1   
    10    4    5 1   
    11    4   19 1   
    12    5    6 1   
    13    5   16 1   
    14    5   47 1   
    15    6    7 1   
    16    6    8 1   
    17    6   42 1   
    18    7   43 1   
    19    7   44 1   
    20    8    9 1   
    21    8   10 1   
    22   10   11 1   
    23   10   15 1   
    24   11   12 1   
    25   11   45 1   
    26   12   32 1   
    27   12   46 1   
    28   13   14 1   
    29   14   15 1   
    30   16   17 1   
    31   16   48 1   
    32   17   18 1   
    33   17   49 1   
    34   18   19 1   
    35   20   50 1   
    36   20   51 1   
    37   20   52 1   
    38   20   53 1   
    39   21   22 1   
    40   21   54 1   
    41   22   23 1   
    42   23   33 1   
    43   23   36 1   
    44   23   55 1   
    45   24   56 1   
    46   24   70 1   
    47   25   26 1   
    48   25   30 1   
    49   25   70 1   
    50   26   27 1   
    51   26   57 1   
    52   27   28 1   
    53   27   58 1   
    54   28   31 1   
    55   28   59 1   
    56   29   30 1   
    57   29   60 1   
    58   31   32 1   
    59   31   61 1   
    60   31   62 1   
    61   32   63 1   
    62   32   64 1   
    63   33   65 1   
    64   34   35 1   
    65   34   66 1   
    66   34   67 1   
    67   35   68 1   
    68   35   69 1   
@<TRIPOS>SUBSTRUCTURE
     1 NVE         1 TEMP              0 ****  ****    0 ROOT
