@<TRIPOS>MOLECULE
NVG
   52    47     1     0     0
SMALL
bcc


@<TRIPOS>ATOM
      1 OAC         1.0020    1.3120    3.5870 o         1 NVG     -0.366000
      2 CAV         0.2070    1.3480    4.5670 c1        1 NVG      0.361000
      3 NAO         0.6390    1.9540    5.8370 n1        1 NVG     -0.298000
      4 CAT        -0.1590    1.7850    7.0290 c1        1 NVG      0.233000
      5 NAA         0.2670    2.3460    8.2530 n2        1 NVG     -0.359000
      6 CAF        -1.4020    1.0410    6.9690 c2        1 NVG     -0.339000
      7 CAG        -1.8320    0.4560    5.7150 c1        1 NVG      0.073000
      8 NBD        -1.0120    0.6270    4.5040 n2        1 NVG     -0.288000
      9 CBC        -1.5000    0.1850    3.2600 c3        1 NVG      0.153000
     10 OAS        -0.3320   -0.5890    2.4460 os        1 NVG     -0.275000
     11 CBA        -1.8510    1.2230    2.5200 c3        1 NVG     -0.019000
     12 OAE        -3.2800    1.4850    2.6730 oh        1 NVG     -0.333000
     13 CAZ        -1.5350    0.8000    1.0620 c3        1 NVG     -0.016000
     14 OAD        -2.6400    0.5610    0.4040 oh        1 NVG     -0.326000
     15 CBB        -0.6630   -0.5230    1.1880 c3        1 NVG     -0.031000
     16 CAN        -1.4840   -1.7270    0.8010 c3        1 NVG     -0.036000
     17 NAQ        -0.8250   -2.4440   -0.3170 n         1 NVG     -0.366000
     18 CAU        -1.4170   -2.4460   -1.5830 c2        1 NVG      0.310000
     19 OAB        -2.5160   -3.0130   -1.7540 o         1 NVG     -0.377000
     20 CAL        -0.7590   -1.6100   -2.7760 c3        1 NVG     -0.183000
     21 CAM         0.2350   -2.4560   -3.4860 c3        1 NVG     -0.096000
     22 CAW         1.1250   -1.5490   -4.4090 c2        1 NVG      0.008000
     23 NAR         1.3930   -1.5010   -5.7260 n2        1 NVG     -0.240000
     24 CAY         2.2590   -0.4550   -5.9440 c1        1 NVG     -0.025000
     25 CAK         2.9600   -0.0540   -7.0900 c1        1 NVG     -0.117250
     26 CAI         3.9330    0.9570   -7.0010 c1        1 NVG     -0.117250
     27 CAH         4.1970    1.5560   -5.7820 c1        1 NVG     -0.117250
     28 CAJ         3.4880    1.1510   -4.6320 c1        1 NVG     -0.117250
     29 CAX         2.5220    0.1450   -4.7250 c1        1 NVG     -0.075000
     30 NAP         1.8350   -0.5150   -3.7840 n1        1 NVG     -0.136000
     31 HAA1       -0.2630    2.3100    8.9610 hn        1 NVG      0.235500
     32 HAA2        1.0120    2.8050    8.2890 hn        1 NVG      0.235500
     33 HAF        -1.9820    0.9190    7.8320 ha        1 NVG      0.156000
     34 HAG        -2.6550   -0.0330    5.6730 ha        1 NVG      0.159000
     35 HBC        -2.2640   -0.4070    3.3910 h2        1 NVG      0.142000
     36 HBA        -1.3100    2.0460    2.7800 h1        1 NVG      0.124000
     37 HBB         0.1530   -0.4620    0.6190 h1        1 NVG      0.123000
     38 HAE        -3.4380    2.3510    2.5440 ho        1 NVG      0.228000
     39 HAZ        -1.0010    1.5280    0.5960 h1        1 NVG      0.150000
     40 HAD        -2.7920    1.2620   -0.2360 ho        1 NVG      0.229000
     41 HAN1       -2.4200   -1.4190    0.5000 h1        1 NVG      0.115500
     42 HAN2       -1.5750   -2.3700    1.6230 h1        1 NVG      0.115500
     43 HAQ        -0.0470   -2.9150   -0.1700 hn        1 NVG      0.226000
     44 HAL1       -0.2700   -0.7400   -2.3810 hc        1 NVG      0.119500
     45 HAL2       -1.4710   -1.3290   -3.4150 hc        1 NVG      0.119500
     46 HAM1       -0.2790   -3.1870   -4.0850 hc        1 NVG      0.116000
     47 HAM2        0.8270   -2.9310   -2.8060 hc        1 NVG      0.116000
     48 HAR         1.1040   -2.1540   -6.3920 DU        1 NVG      0.258000
     49 HAK         2.7790   -0.4680   -7.9250 ha        1 NVG      0.137250
     50 HAI         4.4410    1.2470   -7.8280 ha        1 NVG      0.137250
     51 HAH         4.8950    2.2780   -5.7150 ha        1 NVG      0.137250
     52 HAJ         3.6990    1.6240   -3.6600 ha        1 NVG      0.137250
@<TRIPOS>BOND
     1    1    2 1   
     2    2    8 1   
     3    3    4 1   
     4    4    6 1   
     5    5   31 1   
     6    5   32 1   
     7    6    7 1   
     8    6   33 1   
     9    7   34 1   
    10    8    9 1   
    11    9   10 1   
    12    9   11 1   
    13    9   35 1   
    14   10   15 1   
    15   11   12 1   
    16   11   13 1   
    17   11   36 1   
    18   12   38 1   
    19   13   14 1   
    20   13   15 1   
    21   13   39 1   
    22   14   40 1   
    23   15   16 1   
    24   15   37 1   
    25   16   17 1   
    26   16   41 1   
    27   16   42 1   
    28   17   18 1   
    29   17   43 1   
    30   18   19 1   
    31   18   20 1   
    32   20   21 1   
    33   20   44 1   
    34   20   45 1   
    35   21   22 1   
    36   21   46 1   
    37   21   47 1   
    38   22   23 1   
    39   22   30 1   
    40   23   24 1   
    41   24   29 1   
    42   25   26 1   
    43   25   49 1   
    44   26   50 1   
    45   27   28 1   
    46   27   51 1   
    47   28   52 1   
@<TRIPOS>SUBSTRUCTURE
     1 NVG         1 TEMP              0 ****  ****    0 ROOT
