@<TRIPOS>MOLECULE
NVG
   54    57     1     0     0
SMALL
bcc


@<TRIPOS>ATOM
      1 OAC         0.5620    0.7480    0.1930 o         1 NVG     -0.544500
      2 CAV         1.4680   -0.0940    0.1280 c         1 NVG      0.835900
      3 NAO         2.1840   -0.5000    1.2910 nc        1 NVG     -0.605100
      4 CAT         3.1380   -1.4000    1.1510 cd        1 NVG      0.616500
      5 NAA         3.8680   -1.8250    2.3740 nz        1 NVG     -0.802600
      6 CAF         3.5240   -2.0020   -0.0970 cd        1 NVG     -0.416600
      7 CAG         2.8190   -1.5980   -1.2180 cc        1 NVG      0.126600
      8 NBD         1.8010   -0.6850   -1.1450 n         1 NVG     -0.367000
      9 CBC         1.0630   -0.3100   -2.3580 c3        1 NVG      0.300500
     10 OAS         1.1460    1.1010   -2.5820 os        1 NVG     -0.429600
     11 CBA        -0.4510   -0.7000   -2.3190 c3        1 NVG      0.088100
     12 OAE        -0.6320   -1.5750   -3.4100 oh        1 NVG     -0.591800
     13 CAZ        -1.2250    0.6210   -2.5340 c3        1 NVG      0.105100
     14 OAD        -1.9360    0.6560   -3.7430 oh        1 NVG     -0.575800
     15 CBB        -0.1440    1.7230   -2.4490 c3        1 NVG      0.075100
     16 CAN        -0.2940    2.7360   -3.5870 c3        1 NVG      0.105800
     17 NAQ         0.6850    3.8540   -3.4960 ny        1 NVG     -0.689800
     18 CAU         0.5480    4.8010   -4.6940 c         1 NVG      0.554100
     19 OAB         1.2980    4.5490   -5.6200 o         1 NVG     -0.395100
     20 CAL        -0.4690    5.8830   -4.5240 c3        1 NVG     -0.142400
     21 CAM        -0.5690    6.7360   -5.7790 c3        1 NVG     -0.080700
     22 CAW        -1.5910    7.8080   -5.5860 cc        1 NVG      0.364800
     23 NAR        -1.8370    8.7830   -6.5750 na        1 NVG     -0.261300
     24 CAY        -2.8430    9.6110   -6.0700 ca        1 NVG     -0.061200
     25 CAK        -3.4940   10.7380   -6.5930 ca        1 NVG     -0.129000
     26 CAI        -4.4660   11.3290   -5.8030 ca        1 NVG     -0.090000
     27 CAH        -4.7950   10.8290   -4.5270 ca        1 NVG     -0.135000
     28 CAJ        -4.1660    9.7200   -3.9900 ca        1 NVG     -0.069000
     29 CAX        -3.1730    9.0860   -4.7560 ca        1 NVG      0.061400
     30 NAP        -2.3720    7.9630   -4.4920 nd        1 NVG     -0.589100
     31 HAA1        4.8690   -1.6270    2.2470 hn        1 NVG      0.488133
     32 HAA2        3.5260   -1.3270    3.2120 hn        1 NVG      0.488133
     33 HAF         4.3290   -2.7440   -0.1800 ha        1 NVG      0.199000
     34 HAG         3.0630   -2.0230   -2.2170 h4        1 NVG      0.209000
     35 HBC         1.5760   -0.7910   -3.2490 h2        1 NVG      0.132700
     36 HBA        -0.7520   -1.1790   -1.3510 h1        1 NVG      0.095700
     37 HBB        -0.1760    2.2160   -1.4360 h1        1 NVG      0.110700
     38 HAE        -1.5040   -1.9880   -3.3160 ho        1 NVG      0.455000
     39 HAZ        -2.0010    0.7810   -1.7320 h1        1 NVG      0.130700
     40 HAD        -1.4490    0.1520   -4.4160 ho        1 NVG      0.433000
     41 HAN1       -0.1370    2.2220   -4.5800 hx        1 NVG      0.129200
     42 HAN2       -1.3440    3.1530   -3.5570 hx        1 NVG      0.129200
     43 HAQ         1.6330    3.4540   -3.4800 hn        1 NVG      0.461300
     44 HAL1       -0.1830    6.5320   -3.6480 hc        1 NVG      0.125200
     45 HAL2       -1.4730    5.4230   -4.2950 hc        1 NVG      0.125200
     46 HAM1       -0.8570    6.0960   -6.6580 hc        1 NVG      0.082700
     47 HAM2        0.4300    7.2000   -6.0070 hc        1 NVG      0.082700
     48 HAR        -1.3900    8.8650   -7.4490 hn        1 NVG      0.315700
     49 HAK        -3.2430   11.1330   -7.5870 ha        1 NVG      0.150000
     50 HAI        -5.0000   12.2170   -6.1790 ha        1 NVG      0.151000
     51 HAH        -5.5770   11.3430   -3.9450 ha        1 NVG      0.150000
     52 HAJ        -4.4300    9.3370   -2.9940 ha        1 NVG      0.150000
     53 HAA3        3.7310   -2.8360    2.5030 hn        1 NVG      0.488133
     54 HAQ2        0.5340    4.3770   -2.6280 hn        1 NVG      0.461300
@<TRIPOS>BOND
     1    1    2 2   
     2    2    3 1   
     3    2    8 1   
     4    3    4 2   
     5    4    5 1   
     6    4    6 1   
     7    5   31 1   
     8    5   32 1   
     9    5   53 1   
    10    6    7 2   
    11    6   33 1   
    12    7    8 1   
    13    7   34 1   
    14    8    9 1   
    15    9   10 1   
    16    9   11 1   
    17    9   35 1   
    18   10   15 1   
    19   11   12 1   
    20   11   13 1   
    21   11   36 1   
    22   12   38 1   
    23   13   14 1   
    24   13   15 1   
    25   13   39 1   
    26   14   40 1   
    27   15   16 1   
    28   15   37 1   
    29   16   17 1   
    30   16   41 1   
    31   16   42 1   
    32   17   18 1   
    33   17   43 1   
    34   17   54 1   
    35   18   19 2   
    36   18   20 1   
    37   20   21 1   
    38   20   44 1   
    39   20   45 1   
    40   21   22 1   
    41   21   46 1   
    42   21   47 1   
    43   22   23 1   
    44   22   30 2   
    45   23   24 1   
    46   23   48 1   
    47   24   25 ar  
    48   24   29 ar  
    49   25   26 ar  
    50   25   49 1   
    51   26   27 ar  
    52   26   50 1   
    53   27   28 ar  
    54   27   51 1   
    55   28   29 ar  
    56   28   52 1   
    57   29   30 1   
@<TRIPOS>SUBSTRUCTURE
     1 NVG         1 TEMP              0 ****  ****    0 ROOT
