@<TRIPOS>MOLECULE
NVG
   54    57     1     0     0
SMALL
bcc


@<TRIPOS>ATOM
      1 OAC         0.4880    0.6690    0.1510 o         1 NVG     -0.544500
      2 CAV         1.4060   -0.1610    0.0960 c         1 NVG      0.835900
      3 NAO         2.0880   -0.5880    1.2710 nc        1 NVG     -0.605100
      4 CAT         3.0570   -1.4740    1.1390 cd        1 NVG      0.616500
      5 NAA         3.7500   -1.9220    2.3750 n4        1 NVG     -0.802600
      6 CAF         3.4910   -2.0390   -0.1100 cd        1 NVG     -0.416600
      7 CAG         2.8180   -1.6140   -1.2430 cc        1 NVG      0.126600
      8 NBD         1.7880   -0.7140   -1.1810 n         1 NVG     -0.367000
      9 CBC         1.0860   -0.3160   -2.4080 c3        1 NVG      0.300500
     10 OAS         1.1590    1.1010   -2.5920 os        1 NVG     -0.429600
     11 CBA        -0.4240   -0.7240   -2.4290 c3        1 NVG      0.088100
     12 OAE        -0.5580   -1.5730   -3.5480 oh        1 NVG     -0.591800
     13 CAZ        -1.2060    0.5930   -2.6360 c3        1 NVG      0.105100
     14 OAD        -1.8770    0.6510   -3.8680 oh        1 NVG     -0.575800
     15 CBB        -0.1430    1.7050   -2.4870 c3        1 NVG      0.075100
     16 CAN        -0.2670    2.7450   -3.6030 c3        1 NVG      0.105800
     17 NAQ         0.6950    3.8720   -3.4500 n4        1 NVG     -0.689800
     18 CAU         0.5880    4.8470   -4.6280 c         1 NVG      0.554100
     19 OAB         1.3730    4.6300   -5.5330 o         1 NVG     -0.395100
     20 CAL        -0.4510    5.9110   -4.4680 c3        1 NVG     -0.142400
     21 CAM        -0.5170    6.7950   -5.7040 c3        1 NVG     -0.080700
     22 CAW        -1.5620    7.8470   -5.5220 cc        1 NVG      0.364800
     23 NAR        -1.7860    8.8430   -6.4940 na        1 NVG     -0.261300
     24 CAY        -2.8220    9.6440   -6.0050 ca        1 NVG     -0.061200
     25 CAK        -3.4710   10.7740   -6.5240 ca        1 NVG     -0.129000
     26 CAI        -4.4790   11.3320   -5.7550 ca        1 NVG     -0.090000
     27 CAH        -4.8470   10.7950   -4.5040 ca        1 NVG     -0.135000
     28 CAJ        -4.2210    9.6810   -3.9730 ca        1 NVG     -0.069000
     29 CAX        -3.1920    9.0810   -4.7180 ca        1 NVG      0.061400
     30 NAP        -2.3840    7.9630   -4.4530 nd        1 NVG     -0.589100
     31 HAA1        3.3760   -1.4500    3.2140 hn        1 NVG      0.488133
     32 HAA2        4.7530   -1.7110    2.2860 hn        1 NVG      0.488133
     33 HAF         4.3070   -2.7690   -0.1850 ha        1 NVG      0.199000
     34 HAG         3.1000   -2.0100   -2.2440 h4        1 NVG      0.209000
     35 HBC         1.6330   -0.7680   -3.2930 h2        1 NVG      0.132700
     36 HBA        -0.7510   -1.2310   -1.4840 h1        1 NVG      0.095700
     37 HBB        -0.2140    2.1710   -1.4630 h1        1 NVG      0.110700
     38 HAE        -1.4280   -1.9970   -3.4940 ho        1 NVG      0.455000
     39 HAZ        -2.0100    0.7240   -1.8570 h1        1 NVG      0.130700
     40 HAD        -1.3610    0.1710   -4.5360 ho        1 NVG      0.433000
     41 HAN1       -0.0700    2.2590   -4.6030 hx        1 NVG      0.129200
     42 HAN2       -1.3220    3.1490   -3.5980 hx        1 NVG      0.129200
     43 HAQ         1.6470    3.4830   -3.4120 hn        1 NVG      0.461300
     44 HAL1       -1.4560    5.4320   -4.2870 hc        1 NVG      0.125200
     45 HAL2       -0.2060    6.5410   -3.5660 hc        1 NVG      0.125200
     46 HAM1        0.4810    7.2790   -5.8830 hc        1 NVG      0.082700
     47 HAM2       -0.7640    6.1740   -6.6080 hc        1 NVG      0.082700
     48 HAR        -1.3100    8.9540   -7.3490 hn        1 NVG      0.315700
     49 HAK        -3.1900   11.1980   -7.4970 ha        1 NVG      0.150000
     50 HAI        -5.0130   12.2220   -6.1280 ha        1 NVG      0.151000
     51 HAH        -5.6570   11.2830   -3.9390 ha        1 NVG      0.150000
     52 HAJ        -4.5150    9.2700   -2.9970 ha        1 NVG      0.150000
     53 HAA3        3.6210   -2.9380    2.4740 hn        1 NVG      0.488133
     54 HAQ2        0.5080    4.3700   -2.5750 hn        1 NVG      0.461300
@<TRIPOS>BOND
     1    1    2 2   
     2    2    3 1   
     3    2    8 1   
     4    3    4 2   
     5    4    5 1   
     6    4    6 1   
     7    5   31 1   
     8    5   32 1   
     9    5   53 1   
    10    6    7 2   
    11    6   33 1   
    12    7    8 1   
    13    7   34 1   
    14    8    9 1   
    15    9   10 1   
    16    9   11 1   
    17    9   35 1   
    18   10   15 1   
    19   11   12 1   
    20   11   13 1   
    21   11   36 1   
    22   12   38 1   
    23   13   14 1   
    24   13   15 1   
    25   13   39 1   
    26   14   40 1   
    27   15   16 1   
    28   15   37 1   
    29   16   17 1   
    30   16   41 1   
    31   16   42 1   
    32   17   18 1   
    33   17   43 1   
    34   17   54 1   
    35   18   19 2   
    36   18   20 1   
    37   20   21 1   
    38   20   44 1   
    39   20   45 1   
    40   21   22 1   
    41   21   46 1   
    42   21   47 1   
    43   22   23 1   
    44   22   30 2   
    45   23   24 1   
    46   23   48 1   
    47   24   25 ar  
    48   24   29 ar  
    49   25   26 ar  
    50   25   49 1   
    51   26   27 ar  
    52   26   50 1   
    53   27   28 ar  
    54   27   51 1   
    55   28   29 ar  
    56   28   52 1   
    57   29   30 1   
@<TRIPOS>SUBSTRUCTURE
     1 NVG         1 TEMP              0 ****  ****    0 ROOT
