@<TRIPOS>MOLECULE
NVG
   52    55     1     0     0
SMALL
bcc


@<TRIPOS>ATOM
      1 OAC        -4.3750    0.2240   -1.7340 o         1 NVG     -0.643500
      2 CAV        -4.4130    1.0770   -0.8230 c         1 NVG      0.841900
      3 NAO        -4.7490    2.4120   -1.0750 nc        1 NVG     -0.725100
      4 CAT        -4.7630    3.2860   -0.0510 cd        1 NVG      0.759500
      5 NAA        -5.1460    4.5890   -0.2700 nh        1 NVG     -0.919800
      6 CAF        -4.4100    2.8840    1.3110 cd        1 NVG     -0.424600
      7 CAG        -4.0830    1.5720    1.5290 cc        1 NVG      0.075600
      8 NBD        -4.1090    0.6350    0.5220 n         1 NVG     -0.396000
      9 CBC        -3.6870   -0.7290    0.8130 c3        1 NVG      0.299500
     10 OAS        -2.3510   -0.9640    0.3500 os        1 NVG     -0.416600
     11 CBA        -4.5920   -1.8290    0.1770 c3        1 NVG      0.088100
     12 OAE        -4.9880   -2.6670    1.2460 oh        1 NVG     -0.604800
     13 CAZ        -3.6810   -2.5780   -0.8250 c3        1 NVG      0.096100
     14 OAD        -3.5320   -3.9290   -0.4530 oh        1 NVG     -0.592800
     15 CBB        -2.3680   -1.7710   -0.8400 c3        1 NVG      0.075100
     16 CAN        -1.1170   -2.6600   -0.8290 c3        1 NVG      0.086000
     17 NAQ         0.1110   -1.9550   -1.0600 n         1 NVG     -0.552900
     18 CAU         1.1280   -1.9260   -0.1190 c         1 NVG      0.654100
     19 OAB         1.1180   -2.6830    0.8720 o         1 NVG     -0.615100
     20 CAL         2.2790   -0.9730   -0.3920 c3        1 NVG     -0.144400
     21 CAM         3.3650   -1.1620    0.6450 c3        1 NVG     -0.087700
     22 CAW         4.5230   -0.2440    0.4250 cc        1 NVG      0.419800
     23 NAR         5.6760   -0.3340    1.2440 na        1 NVG     -0.286300
     24 CAY         6.5630    0.6470    0.7960 ca        1 NVG     -0.071200
     25 CAK         7.8440    1.0310    1.2080 ca        1 NVG     -0.136000
     26 CAI         8.4490    2.0730    0.5210 ca        1 NVG     -0.113000
     27 CAH         7.8090    2.7250   -0.5480 ca        1 NVG     -0.154000
     28 CAJ         6.5400    2.3620   -0.9740 ca        1 NVG     -0.071000
     29 CAX         5.8910    1.3130   -0.3080 ca        1 NVG      0.067400
     30 NAP         4.6250    0.7290   -0.5050 nd        1 NVG     -0.576100
     31 HAA1       -5.3030    4.9140   -1.1930 hn        1 NVG      0.440300
     32 HAA2       -4.9820    5.2510    0.4460 hn        1 NVG      0.440300
     33 HAF        -4.4070    3.6090    2.1310 ha        1 NVG      0.156000
     34 HAG        -3.7970    1.2170    2.5390 h4        1 NVG      0.160000
     35 HBC        -3.6370   -0.8650    1.9360 h2        1 NVG      0.103700
     36 HBA        -5.4940   -1.4070   -0.3390 h1        1 NVG      0.089700
     37 HBB        -2.3810   -1.0710   -1.7230 h1        1 NVG      0.086700
     38 HAE        -5.3930   -3.4520    0.8490 ho        1 NVG      0.426000
     39 HAZ        -4.1390   -2.6070   -1.8500 h1        1 NVG      0.112700
     40 HAD        -3.1260   -3.9490    0.4250 ho        1 NVG      0.416000
     41 HAN1       -1.0510   -3.1990    0.1610 h1        1 NVG      0.077200
     42 HAN2       -1.2530   -3.4270   -1.6460 h1        1 NVG      0.077200
     43 HAQ         0.0870   -1.2330   -1.7420 hn        1 NVG      0.308500
     44 HAL1        2.6910   -1.1590   -1.4190 hc        1 NVG      0.083700
     45 HAL2        1.8950    0.0810   -0.3640 hc        1 NVG      0.083700
     46 HAM1        2.9390   -0.9790    1.6700 hc        1 NVG      0.076200
     47 HAM2        3.7230   -2.2280    0.6210 hc        1 NVG      0.076200
     48 HAR         5.8250   -0.9710    1.9780 hn        1 NVG      0.306700
     49 HAK         8.3500    0.5270    2.0420 ha        1 NVG      0.135000
     50 HAI         9.4560    2.4010    0.8180 ha        1 NVG      0.131000
     51 HAH         8.3350    3.5460   -1.0590 ha        1 NVG      0.132000
     52 HAJ         6.0480    2.8770   -1.8110 ha        1 NVG      0.146000
@<TRIPOS>BOND
     1    1    2 2   
     2    2    3 1   
     3    2    8 1   
     4    3    4 2   
     5    4    5 1   
     6    4    6 1   
     7    5   31 1   
     8    5   32 1   
     9    6    7 2   
    10    6   33 1   
    11    7    8 1   
    12    7   34 1   
    13    8    9 1   
    14    9   10 1   
    15    9   11 1   
    16    9   35 1   
    17   10   15 1   
    18   11   12 1   
    19   11   13 1   
    20   11   36 1   
    21   12   38 1   
    22   13   14 1   
    23   13   15 1   
    24   13   39 1   
    25   14   40 1   
    26   15   16 1   
    27   15   37 1   
    28   16   17 1   
    29   16   41 1   
    30   16   42 1   
    31   17   18 1   
    32   17   43 1   
    33   18   19 2   
    34   18   20 1   
    35   20   21 1   
    36   20   44 1   
    37   20   45 1   
    38   21   22 1   
    39   21   46 1   
    40   21   47 1   
    41   22   23 1   
    42   22   30 2   
    43   23   24 1   
    44   23   48 1   
    45   24   25 ar  
    46   24   29 ar  
    47   25   26 ar  
    48   25   49 1   
    49   26   27 ar  
    50   26   50 1   
    51   27   28 ar  
    52   27   51 1   
    53   28   29 ar  
    54   28   52 1   
    55   29   30 1   
@<TRIPOS>SUBSTRUCTURE
     1 NVG         1 TEMP              0 ****  ****    0 ROOT
