@<TRIPOS>MOLECULE
NVG
   54    57     1     0     0
SMALL
bcc


@<TRIPOS>ATOM
      1 OAC         0.5450    0.7190    0.1710 o         1 NVG     -0.544500
      2 CAV         1.4560   -0.1180    0.1070 c         1 NVG      0.835900
      3 NAO         2.1660   -0.5270    1.2730 nc        1 NVG     -0.605100
      4 CAT         3.1260   -1.4220    1.1330 cd        1 NVG      0.616500
      5 NAA         3.8490   -1.8510    2.3590 n4        1 NVG     -0.802600
      6 CAF         3.5230   -2.0140   -0.1160 cd        1 NVG     -0.416600
      7 CAG         2.8230   -1.6060   -1.2390 cc        1 NVG      0.126600
      8 NBD         1.8000   -0.6990   -1.1670 n         1 NVG     -0.367000
      9 CBC         1.0690   -0.3200   -2.3830 c3        1 NVG      0.300500
     10 OAS         1.1470    1.0930   -2.5980 os        1 NVG     -0.429600
     11 CBA        -0.4440   -0.7170   -2.3560 c3        1 NVG      0.088100
     12 OAE        -0.6130   -1.5860   -3.4540 oh        1 NVG     -0.591800
     13 CAZ        -1.2220    0.6020   -2.5680 c3        1 NVG      0.105100
     14 OAD        -1.9250    0.6410   -3.7810 oh        1 NVG     -0.575800
     15 CBB        -0.1470    1.7080   -2.4690 c3        1 NVG      0.075100
     16 CAN        -0.2940    2.7280   -3.6020 c3        1 NVG      0.105800
     17 NAQ         0.6790    3.8490   -3.4990 n4        1 NVG     -0.689800
     18 CAU         0.5440    4.8040   -4.6910 c         1 NVG      0.554100
     19 OAB         1.2950    4.5590   -5.6170 o         1 NVG     -0.395100
     20 CAL        -0.4750    5.8830   -4.5150 c3        1 NVG     -0.142400
     21 CAM        -0.5750    6.7430   -5.7660 c3        1 NVG     -0.080700
     22 CAW        -1.5980    7.8130   -5.5670 cc        1 NVG      0.364800
     23 NAR        -1.8460    8.7920   -6.5510 na        1 NVG     -0.261300
     24 CAY        -2.8520    9.6180   -6.0410 ca        1 NVG     -0.061200
     25 CAK        -3.5050   10.7460   -6.5580 ca        1 NVG     -0.129000
     26 CAI        -4.4750   11.3340   -5.7650 ca        1 NVG     -0.090000
     27 CAH        -4.8020   10.8290   -4.4890 ca        1 NVG     -0.135000
     28 CAJ        -4.1720    9.7170   -3.9580 ca        1 NVG     -0.069000
     29 CAX        -3.1790    9.0880   -4.7290 ca        1 NVG      0.061400
     30 NAP        -2.3770    7.9640   -4.4700 nd        1 NVG     -0.589100
     31 HAA1        3.4980   -1.3610    3.1970 hn        1 NVG      0.488133
     32 HAA2        3.7180   -2.8640    2.4790 hn        1 NVG      0.488133
     33 HAF         4.3330   -2.7510   -0.1980 ha        1 NVG      0.199000
     34 HAG         3.0760   -2.0240   -2.2390 h4        1 NVG      0.209000
     35 HBC         1.5900   -0.7930   -3.2740 h2        1 NVG      0.132700
     36 HBA        -0.7490   -1.2040   -1.3930 h1        1 NVG      0.095700
     37 HBB        -0.1870    2.1950   -1.4530 h1        1 NVG      0.110700
     38 HAE        -1.4840   -2.0030   -3.3690 ho        1 NVG      0.455000
     39 HAZ        -2.0030    0.7540   -1.7700 h1        1 NVG      0.130700
     40 HAD        -1.4320    0.1440   -4.4540 ho        1 NVG      0.433000
     41 HAN1       -0.1290    2.2200   -4.5970 hx        1 NVG      0.129200
     42 HAN2       -1.3460    3.1400   -3.5750 hx        1 NVG      0.129200
     43 HAQ         1.6290    3.4540   -3.4810 hn        1 NVG      0.461300
     44 HAL1       -1.4780    5.4210   -4.2880 hc        1 NVG      0.125200
     45 HAL2       -0.1890    6.5290   -3.6350 hc        1 NVG      0.125200
     46 HAM1       -0.8640    6.1080   -6.6470 hc        1 NVG      0.082700
     47 HAM2        0.4220    7.2090   -5.9910 hc        1 NVG      0.082700
     48 HAR        -1.4010    8.8780   -7.4250 hn        1 NVG      0.315700
     49 HAK        -3.2550   11.1460   -7.5510 ha        1 NVG      0.150000
     50 HAI        -5.0110   12.2230   -6.1360 ha        1 NVG      0.151000
     51 HAH        -5.5830   11.3400   -3.9050 ha        1 NVG      0.150000
     52 HAJ        -4.4330    9.3310   -2.9630 ha        1 NVG      0.150000
     53 HAA3        4.8490   -1.6460    2.2400 hn        1 NVG      0.488133
     54 HAQ2        0.5220    4.3650   -2.6270 hn        1 NVG      0.461300
@<TRIPOS>BOND
     1    1    2 2   
     2    2    3 1   
     3    2    8 1   
     4    3    4 2   
     5    4    5 1   
     6    4    6 1   
     7    5   31 1   
     8    5   32 1   
     9    5   53 1   
    10    6    7 2   
    11    6   33 1   
    12    7    8 1   
    13    7   34 1   
    14    8    9 1   
    15    9   10 1   
    16    9   11 1   
    17    9   35 1   
    18   10   15 1   
    19   11   12 1   
    20   11   13 1   
    21   11   36 1   
    22   12   38 1   
    23   13   14 1   
    24   13   15 1   
    25   13   39 1   
    26   14   40 1   
    27   15   16 1   
    28   15   37 1   
    29   16   17 1   
    30   16   41 1   
    31   16   42 1   
    32   17   18 1   
    33   17   43 1   
    34   17   54 1   
    35   18   19 2   
    36   18   20 1   
    37   20   21 1   
    38   20   44 1   
    39   20   45 1   
    40   21   22 1   
    41   21   46 1   
    42   21   47 1   
    43   22   23 1   
    44   22   30 2   
    45   23   24 1   
    46   23   48 1   
    47   24   25 ar  
    48   24   29 ar  
    49   25   26 ar  
    50   25   49 1   
    51   26   27 ar  
    52   26   50 1   
    53   27   28 ar  
    54   27   51 1   
    55   28   29 ar  
    56   28   52 1   
    57   29   30 1   
@<TRIPOS>SUBSTRUCTURE
     1 NVG         1 TEMP              0 ****  ****    0 ROOT
