@<TRIPOS>MOLECULE
NVI
   14     8     1     0     0
SMALL
bcc


@<TRIPOS>ATOM
      1 N1         -0.1090   -0.2450   -0.1180 ne        1 NVI     -0.356900
      2 C2          1.2460   -0.2660   -0.1340 c1        1 NVI      0.461800
      3 N3          1.6820   -0.2230    1.1490 nf        1 NVI     -0.356900
      4 C4          0.6120   -0.1770    1.9470 ch        1 NVI     -0.033000
      5 C5         -0.5060   -0.1900    1.1570 cg        1 NVI     -0.033000
      6 C6         -0.9570   -0.2920   -1.2540 c1        1 NVI     -0.065000
      7 C7         -1.3290    0.8510   -1.8640 c1        1 NVI     -0.065000
      8 H2          1.8100   -0.3050   -0.9300 DU        1 NVI      0.237800
      9 HN3         2.5530   -0.2260    1.4200 DU        1 NVI      0.237800
     10 H4          0.6240   -0.1390    2.9220 DU        1 NVI      0.237800
     11 H5         -1.4300   -0.1650    1.4690 DU        1 NVI      0.237800
     12 H6         -1.2710   -1.1510   -1.5940 ha        1 NVI      0.129000
     13 H71        -1.0140    1.7120   -1.5240 DU        1 NVI      0.237800
     14 H72        -1.9130    0.8190   -2.6470 ha        1 NVI      0.129000
@<TRIPOS>BOND
     1    1    2 2   
     2    1    5 1   
     3    2    3 2   
     4    3    4 1   
     5    4    5 3   
     6    6    7 3   
     7    6   12 1   
     8    7   14 1   
@<TRIPOS>SUBSTRUCTURE
     1 NVI         1 TEMP              0 ****  ****    0 ROOT
