@<TRIPOS>MOLECULE
NVI
   14    14     1     0     0
SMALL
bcc


@<TRIPOS>ATOM
      1 N1          0.2880   -0.1800   -0.0000 na        1 NVI      0.041700
      2 C2         -0.7390   -1.1000    0.0010 cc        1 NVI     -0.021600
      3 N3         -1.9330   -0.4200    0.0010 na        1 NVI     -0.134100
      4 C4         -1.6690    0.9560   -0.0000 cc        1 NVI     -0.106300
      5 C5         -0.2760    1.1100   -0.0010 cd        1 NVI     -0.120300
      6 C6          1.6620   -0.5190   -0.0000 c2        1 NVI     -0.135100
      7 C7          2.6700    0.3620   -0.0010 c2        1 NVI     -0.132000
      8 H2         -0.6200   -2.1980    0.0010 h5        1 NVI      0.263000
      9 HN3        -2.8360   -0.8420    0.0010 hn        1 NVI      0.363700
     10 H4         -2.4640    1.7100   -0.0000 h4        1 NVI      0.239000
     11 H5          0.3310    2.0210   -0.0010 h4        1 NVI      0.235000
     12 H6          1.8280   -1.6160    0.0000 h4        1 NVI      0.184000
     13 H71         3.7110   -0.0010   -0.0010 ha        1 NVI      0.162500
     14 H72         2.5540    1.4550   -0.0010 ha        1 NVI      0.162500
@<TRIPOS>BOND
     1    1    2 2   
     2    1    5 1   
     3    1    6 1   
     4    2    3 1   
     5    2    8 1   
     6    3    4 1   
     7    3    9 1   
     8    4    5 2   
     9    4   10 1   
    10    5   11 1   
    11    6    7 2   
    12    6   12 1   
    13    7   13 1   
    14    7   14 1   
@<TRIPOS>SUBSTRUCTURE
     1 NVI         1 TEMP              0 ****  ****    0 ROOT
