@<TRIPOS>MOLECULE
NVP
   34    37     1     0     0
SMALL
bcc


@<TRIPOS>ATOM
      1 N1         -0.1650    0.2720    0.3440 na        1 NVP     -0.694000
      2 CA         -0.8160    1.1170   -0.6140 cx        1 NVP      0.152500
      3 CB         -1.4380    0.7320   -1.9390 cx        1 NVP     -0.129900
      4 CC         -2.3130    1.1960   -0.8120 cx        1 NVP     -0.129900
      5 N3          1.7880    0.1220   -1.0990 nb        1 NVP     -0.660000
      6 C4          3.1200    0.0490   -1.2260 ca        1 NVP      0.392200
      7 C5          4.0030   -0.0560   -0.1410 ca        1 NVP     -0.232300
      8 C6          3.4850   -0.0900    1.1540 ca        1 NVP     -0.070300
      9 CD          4.4010   -0.1960    2.3140 c3        1 NVP     -0.061800
     10 C2          1.2590    0.1150    0.1550 ca        1 NVP      0.576200
     11 C7          2.0780   -0.0110    1.3350 ca        1 NVP     -0.037700
     12 N8          1.5460   -0.0190    2.6270 n         1 NVP     -0.460100
     13 C9          0.3480   -0.5810    3.0460 c         1 NVP      0.737100
     14 OE          0.0490   -0.4500    4.2510 o         1 NVP     -0.633500
     15 C10        -0.4980   -1.3650    2.1180 ca        1 NVP     -0.250900
     16 C15        -0.7590   -0.9630    0.7750 ca        1 NVP      0.647200
     17 C11        -1.1060   -2.5280    2.6110 ca        1 NVP     -0.034000
     18 C12        -1.9270   -3.2760    1.7730 ca        1 NVP     -0.269300
     19 C13        -2.1170   -2.8200    0.4560 ca        1 NVP      0.434200
     20 N14        -1.5600   -1.7080   -0.0450 nb        1 NVP     -0.693000
     21 HCA        -0.2700    2.0930   -0.5990 h1        1 NVP      0.094700
     22 HCB1       -1.2630    1.4050   -2.7970 hc        1 NVP      0.078200
     23 HCB2       -1.4750   -0.3250   -2.2530 hc        1 NVP      0.078200
     24 HCC1       -2.7600    2.2070   -0.8550 hc        1 NVP      0.078200
     25 HCC2       -2.9890    0.4780   -0.3170 hc        1 NVP      0.078200
     26 HC4         3.4970    0.0730   -2.2650 h4        1 NVP      0.028100
     27 HC5         5.0860   -0.1140   -0.3120 ha        1 NVP      0.148000
     28 HCD1        4.3460    0.7290    2.9430 hc        1 NVP      0.052700
     29 HCD2        5.4590   -0.3240    1.9780 hc        1 NVP      0.052700
     30 HCD3        4.1300   -1.0740    2.9540 hc        1 NVP      0.052700
     31 HN8         2.0870    0.4420    3.3290 hn        1 NVP      0.331500
     32 H11        -0.9330   -2.8250    3.6580 ha        1 NVP      0.162000
     33 H12        -2.4170   -4.1930    2.1240 ha        1 NVP      0.152000
     34 H13        -2.7550   -3.3820   -0.2520 h4        1 NVP      0.028100
@<TRIPOS>BOND
     1    1    2 1   
     2    1   10 1   
     3    1   16 1   
     4    2    3 1   
     5    2    4 1   
     6    2   21 1   
     7    3    4 1   
     8    3   22 1   
     9    3   23 1   
    10    4   24 1   
    11    4   25 1   
    12    5    6 ar  
    13    5   10 ar  
    14    6    7 ar  
    15    6   26 1   
    16    7    8 ar  
    17    7   27 1   
    18    8    9 1   
    19    8   11 ar  
    20    9   28 1   
    21    9   29 1   
    22    9   30 1   
    23   10   11 ar  
    24   11   12 1   
    25   12   13 1   
    26   12   31 1   
    27   13   14 2   
    28   13   15 1   
    29   15   16 ar  
    30   15   17 ar  
    31   16   20 ar  
    32   17   18 ar  
    33   17   32 1   
    34   18   19 ar  
    35   18   33 1   
    36   19   20 ar  
    37   19   34 1   
@<TRIPOS>SUBSTRUCTURE
     1 NVP         1 TEMP              0 ****  ****    0 ROOT
