@<TRIPOS>MOLECULE
NVP
   34    37     1     0     0
SMALL
bcc


@<TRIPOS>ATOM
      1 N1         -0.1640    0.2710    0.3400 na        1 NVP     -0.694000
      2 CA         -0.8130    1.1120   -0.6240 cx        1 NVP      0.151500
      3 CB         -1.4330    0.7200   -1.9480 cx        1 NVP     -0.129900
      4 CC         -2.3100    1.1900   -0.8250 cx        1 NVP     -0.129900
      5 N3          1.7920    0.1130   -1.1000 nb        1 NVP     -0.660000
      6 C4          3.1230    0.0380   -1.2240 ca        1 NVP      0.392200
      7 C5          4.0040   -0.0620   -0.1370 ca        1 NVP     -0.232300
      8 C6          3.4850   -0.0890    1.1570 ca        1 NVP     -0.070300
      9 CD          4.3980   -0.1910    2.3200 c3        1 NVP     -0.061800
     10 C2          1.2600    0.1120    0.1530 ca        1 NVP      0.576200
     11 C7          2.0770   -0.0080    1.3350 ca        1 NVP     -0.037700
     12 N8          1.5430   -0.0100    2.6260 n         1 NVP     -0.460100
     13 C9          0.3450   -0.5700    3.0470 c         1 NVP      0.737100
     14 OE          0.0430   -0.4340    4.2500 o         1 NVP     -0.633500
     15 C10        -0.5010   -1.3580    2.1210 ca        1 NVP     -0.250900
     16 C15        -0.7600   -0.9620    0.7750 ca        1 NVP      0.647200
     17 C11        -1.1100   -2.5180    2.6180 ca        1 NVP     -0.034000
     18 C12        -1.9300   -3.2690    1.7820 ca        1 NVP     -0.269300
     19 C13        -2.1180   -2.8190    0.4630 ca        1 NVP      0.434200
     20 N14        -1.5600   -1.7100   -0.0420 nb        1 NVP     -0.693000
     21 HCA        -0.2660    2.0880   -0.6120 h1        1 NVP      0.094700
     22 HCB1       -1.4690   -0.3380   -2.2570 hc        1 NVP      0.078200
     23 HCB2       -1.2550    1.3890   -2.8090 hc        1 NVP      0.078200
     24 HCC1       -2.9870    0.4750   -0.3280 hc        1 NVP      0.078200
     25 HCC2       -2.7560    2.2010   -0.8730 hc        1 NVP      0.078200
     26 HC4         3.5020    0.0570   -2.2630 h4        1 NVP      0.028100
     27 HC5         5.0880   -0.1210   -0.3060 ha        1 NVP      0.148000
     28 HCD1        5.4570   -0.3200    1.9860 hc        1 NVP      0.052700
     29 HCD2        4.3430    0.7370    2.9440 hc        1 NVP      0.052700
     30 HCD3        4.1260   -1.0660    2.9620 hc        1 NVP      0.052700
     31 HN8         2.0830    0.4530    3.3280 hn        1 NVP      0.331500
     32 H11        -0.9400   -2.8100    3.6670 ha        1 NVP      0.162000
     33 H12        -2.4220   -4.1840    2.1370 ha        1 NVP      0.152000
     34 H13        -2.7550   -3.3850   -0.2430 h4        1 NVP      0.028100
@<TRIPOS>BOND
     1    1    2 1   
     2    1   10 1   
     3    1   16 1   
     4    2    3 1   
     5    2    4 1   
     6    2   21 1   
     7    3    4 1   
     8    3   22 1   
     9    3   23 1   
    10    4   24 1   
    11    4   25 1   
    12    5    6 ar  
    13    5   10 ar  
    14    6    7 ar  
    15    6   26 1   
    16    7    8 ar  
    17    7   27 1   
    18    8    9 1   
    19    8   11 ar  
    20    9   28 1   
    21    9   29 1   
    22    9   30 1   
    23   10   11 ar  
    24   11   12 1   
    25   12   13 1   
    26   12   31 1   
    27   13   14 2   
    28   13   15 1   
    29   15   16 ar  
    30   15   17 ar  
    31   16   20 ar  
    32   17   18 ar  
    33   17   32 1   
    34   18   19 ar  
    35   18   33 1   
    36   19   20 ar  
    37   19   34 1   
@<TRIPOS>SUBSTRUCTURE
     1 NVP         1 TEMP              0 ****  ****    0 ROOT
