@<TRIPOS>MOLECULE
NVP
   34    37     1     0     0
SMALL
bcc


@<TRIPOS>ATOM
      1 N1         -0.1650    0.2700    0.3420 na        1 NVP     -0.694000
      2 CA         -0.8160    1.1130   -0.6200 cx        1 NVP      0.152500
      3 CB         -1.4370    0.7230   -1.9440 cx        1 NVP     -0.129900
      4 CC         -2.3130    1.1910   -0.8180 cx        1 NVP     -0.129900
      5 N3          1.7890    0.1170   -1.1010 nb        1 NVP     -0.660000
      6 C4          3.1210    0.0440   -1.2270 ca        1 NVP      0.392200
      7 C5          4.0030   -0.0580   -0.1400 ca        1 NVP     -0.232300
      8 C6          3.4850   -0.0880    1.1550 ca        1 NVP     -0.070300
      9 CD          4.4000   -0.1900    2.3160 c3        1 NVP     -0.061800
     10 C2          1.2590    0.1140    0.1530 ca        1 NVP      0.576200
     11 C7          2.0770   -0.0080    1.3340 ca        1 NVP     -0.037700
     12 N8          1.5440   -0.0120    2.6260 ns        1 NVP     -0.460100
     13 C9          0.3470   -0.5740    3.0470 c         1 NVP      0.737100
     14 OE          0.0470   -0.4400    4.2510 o         1 NVP     -0.633500
     15 C10        -0.4980   -1.3610    2.1210 ca        1 NVP     -0.250900
     16 C15        -0.7590   -0.9630    0.7750 ca        1 NVP      0.647200
     17 C11        -1.1060   -2.5220    2.6160 ca        1 NVP     -0.034000
     18 C12        -1.9260   -3.2740    1.7800 ca        1 NVP     -0.269300
     19 C13        -2.1160   -2.8210    0.4620 ca        1 NVP      0.434200
     20 N14        -1.5590   -1.7110   -0.0420 nb        1 NVP     -0.693000
     21 HCA        -0.2700    2.0890   -0.6070 h1        1 NVP      0.094700
     22 HCB1       -1.4730   -0.3350   -2.2550 hc        1 NVP      0.078200
     23 HCB2       -1.2620    1.3930   -2.8040 hc        1 NVP      0.078200
     24 HCC1       -2.9890    0.4740   -0.3220 hc        1 NVP      0.078200
     25 HCC2       -2.7600    2.2000   -0.8650 hc        1 NVP      0.078200
     26 HC4         3.4980    0.0650   -2.2660 h4        1 NVP      0.028100
     27 HC5         5.0870   -0.1160   -0.3100 ha        1 NVP      0.148000
     28 HCD1        4.1290   -1.0660    2.9570 hc        1 NVP      0.052700
     29 HCD2        5.4590   -0.3180    1.9800 hc        1 NVP      0.052700
     30 HCD3        4.3450    0.7370    2.9420 hc        1 NVP      0.052700
     31 HN8         2.0860    0.4510    3.3270 hn        1 NVP      0.331500
     32 H11        -0.9340   -2.8160    3.6650 ha        1 NVP      0.162000
     33 H12        -2.4170   -4.1890    2.1340 ha        1 NVP      0.152000
     34 H13        -2.7540   -3.3860   -0.2440 h4        1 NVP      0.028100
@<TRIPOS>BOND
     1    1    2 1   
     2    1   10 1   
     3    1   16 1   
     4    2    3 1   
     5    2    4 1   
     6    2   21 1   
     7    3    4 1   
     8    3   22 1   
     9    3   23 1   
    10    4   24 1   
    11    4   25 1   
    12    5    6 ar  
    13    5   10 ar  
    14    6    7 ar  
    15    6   26 1   
    16    7    8 ar  
    17    7   27 1   
    18    8    9 1   
    19    8   11 ar  
    20    9   28 1   
    21    9   29 1   
    22    9   30 1   
    23   10   11 ar  
    24   11   12 1   
    25   12   13 1   
    26   12   31 1   
    27   13   14 2   
    28   13   15 1   
    29   15   16 ar  
    30   15   17 ar  
    31   16   20 ar  
    32   17   18 ar  
    33   17   32 1   
    34   18   19 ar  
    35   18   33 1   
    36   19   20 ar  
    37   19   34 1   
@<TRIPOS>SUBSTRUCTURE
     1 NVP         1 TEMP              0 ****  ****    0 ROOT
