@<TRIPOS>MOLECULE
NVP
   34    33     1     0     0
SMALL
bcc


@<TRIPOS>ATOM
      1 N1         -0.2970   -0.3310   -1.1380 na        1 NVP     -0.150000
      2 CA         -1.0120    0.8390   -0.6980 cx        1 NVP     -0.046000
      3 CB         -1.1870    1.9350   -1.7370 cx        1 NVP     -0.208000
      4 CC         -2.3700    1.0650   -1.3440 cx        1 NVP     -0.208000
      5 N3          2.1360   -0.3400   -1.5770 n1        1 NVP     -0.145000
      6 C4          3.2850    0.3720   -1.3520 c1        1 NVP     -0.118500
      7 C5          3.3970    1.1810   -0.2170 c1        1 NVP     -0.118500
      8 C6          2.3550    1.2630    0.6740 c1        1 NVP     -0.062000
      9 CD          2.9720    2.0310    1.8440 c3        1 NVP     -0.187000
     10 C2          1.0820   -0.2590   -0.6800 c2        1 NVP      0.062000
     11 C7          1.1900    0.5410    0.4460 c2        1 NVP      0.034000
     12 N8          0.3900    0.0210    1.5300 n         1 NVP     -0.313000
     13 C9         -0.9870    0.0410    1.1980 c2        1 NVP      0.373000
     14 OE         -1.7380    0.9700    1.4350 o         1 NVP     -0.360000
     15 C10        -1.4380   -1.3170    0.6540 c2        1 NVP     -0.166000
     16 C15        -0.9540   -1.5230   -0.6310 c2        1 NVP      0.123000
     17 C11        -2.2690   -2.2570    1.2380 c1        1 NVP     -0.034000
     18 C12        -2.6140   -3.3900    0.5460 c1        1 NVP     -0.118500
     19 C13        -2.1250   -3.5950   -0.7480 c1        1 NVP     -0.118500
     20 N14        -1.3030   -2.6650   -1.3260 n1        1 NVP     -0.158000
     21 HCA        -0.9270    1.1410    0.2270 h1        1 NVP      0.134000
     22 HCB1       -0.7970    1.7520   -2.6200 hc        1 NVP      0.117250
     23 HCB2       -1.2000    2.8550   -1.3890 hc        1 NVP      0.117250
     24 HCC1       -3.0470    1.4960   -0.7760 hc        1 NVP      0.117250
     25 HCC2       -2.6440    0.3940   -2.0070 hc        1 NVP      0.117250
     26 HC4         4.0290    0.3140   -1.9870 ha        1 NVP      0.157500
     27 HC5         4.2200    1.6900   -0.0570 ha        1 NVP      0.157500
     28 HCD1        3.8980    1.7300    1.9820 hc        1 NVP      0.092333
     29 HCD2        2.4480    1.8630    2.6580 hc        1 NVP      0.092333
     30 HCD3        2.9670    2.9930    1.6430 hc        1 NVP      0.092333
     31 HN8         0.7240   -0.2350    2.3450 hn        1 NVP      0.245000
     32 H11        -2.6120   -2.1120    2.1460 ha        1 NVP      0.162000
     33 H12        -3.2020   -4.0560    0.9600 ha        1 NVP      0.157500
     34 H13        -2.3720   -4.4060   -1.2420 ha        1 NVP      0.157500
@<TRIPOS>BOND
     1    1    2 1   
     2    1   10 1   
     3    1   16 1   
     4    2    3 1   
     5    2    4 1   
     6    2   21 1   
     7    3    4 1   
     8    3   22 1   
     9    3   23 1   
    10    4   24 1   
    11    4   25 1   
    12    5   10 1   
    13    6    7 1   
    14    6   26 1   
    15    7   27 1   
    16    8    9 1   
    17    8   11 1   
    18    9   28 1   
    19    9   29 1   
    20    9   30 1   
    21   10   11 1   
    22   11   12 1   
    23   12   13 1   
    24   12   31 1   
    25   13   14 1   
    26   13   15 1   
    27   15   16 1   
    28   15   17 1   
    29   16   20 1   
    30   17   32 1   
    31   18   19 1   
    32   18   33 1   
    33   19   34 1   
@<TRIPOS>SUBSTRUCTURE
     1 NVP         1 TEMP              0 ****  ****    0 ROOT
