@<TRIPOS>MOLECULE
NVP
   34    37     1     0     0
SMALL
bcc


@<TRIPOS>ATOM
      1 N1         -0.7750   -0.6940   -0.4510 na        1 NVP     -0.694000
      2 CA         -2.0300   -1.2350   -0.8870 cx        1 NVP      0.152500
      3 CB         -3.1500   -0.5350   -1.6270 cx        1 NVP     -0.129900
      4 CC         -2.3540   -1.6040   -2.3170 cx        1 NVP     -0.129900
      5 N3         -1.9020    0.4890    1.3530 nb        1 NVP     -0.660000
      6 C4         -1.8910    0.9380    2.6150 ca        1 NVP      0.392200
      7 C5         -0.7850    0.8310    3.4710 ca        1 NVP     -0.232300
      8 C6          0.3830    0.2290    3.0020 ca        1 NVP     -0.070300
      9 CD          1.5600    0.1020    3.8920 c3        1 NVP     -0.061800
     10 C2         -0.7830   -0.1240    0.8770 ca        1 NVP      0.576200
     11 C7          0.4130   -0.2650    1.6690 ca        1 NVP     -0.037700
     12 N8          1.5660   -0.8930    1.1910 n         1 NVP     -0.460100
     13 C9          2.0780   -0.8580   -0.0980 c         1 NVP      0.737100
     14 OE          3.1150   -1.5160   -0.3170 o         1 NVP     -0.633500
     15 C10         1.4590   -0.0140   -1.1460 ca        1 NVP     -0.250900
     16 C15         0.0480    0.0850   -1.3330 ca        1 NVP      0.647200
     17 C11         2.3110    0.6730   -2.0210 ca        1 NVP     -0.034000
     18 C12         1.7640    1.4560   -3.0330 ca        1 NVP     -0.269300
     19 C13         0.3620    1.5150   -3.1360 ca        1 NVP      0.434200
     20 N14        -0.4820    0.8630   -2.3240 nb        1 NVP     -0.693000
     21 HCA        -2.3480   -1.9690   -0.1050 h1        1 NVP      0.094700
     22 HCB1       -4.1840   -0.7550   -1.3080 hc        1 NVP      0.078200
     23 HCB2       -3.0380    0.5150   -1.9470 hc        1 NVP      0.078200
     24 HCC1       -1.6750   -1.3290   -3.1420 hc        1 NVP      0.078200
     25 HCC2       -2.8130   -2.5950   -2.4870 hc        1 NVP      0.078200
     26 HC4        -2.8290    1.4150    2.9540 h4        1 NVP      0.028100
     27 HC5        -0.8390    1.2210    4.4970 ha        1 NVP      0.148000
     28 HCD1        1.7820   -0.9750    4.0980 hc        1 NVP      0.052700
     29 HCD2        2.4640    0.5650    3.4210 hc        1 NVP      0.052700
     30 HCD3        1.3780    0.6120    4.8700 hc        1 NVP      0.052700
     31 HN8         2.0780   -1.4380    1.8550 hn        1 NVP      0.331500
     32 H11         3.4020    0.5730   -1.9010 ha        1 NVP      0.162000
     33 H12         2.4010    2.0090   -3.7340 ha        1 NVP      0.152000
     34 H13        -0.1230    2.1280   -3.9190 h4        1 NVP      0.028100
@<TRIPOS>BOND
     1    1    2 1   
     2    1   10 1   
     3    1   16 1   
     4    2    3 1   
     5    2    4 1   
     6    2   21 1   
     7    3    4 1   
     8    3   22 1   
     9    3   23 1   
    10    4   24 1   
    11    4   25 1   
    12    5    6 ar  
    13    5   10 ar  
    14    6    7 ar  
    15    6   26 1   
    16    7    8 ar  
    17    7   27 1   
    18    8    9 1   
    19    8   11 ar  
    20    9   28 1   
    21    9   29 1   
    22    9   30 1   
    23   10   11 ar  
    24   11   12 1   
    25   12   13 1   
    26   12   31 1   
    27   13   14 2   
    28   13   15 1   
    29   15   16 ar  
    30   15   17 ar  
    31   16   20 ar  
    32   17   18 ar  
    33   17   32 1   
    34   18   19 ar  
    35   18   33 1   
    36   19   20 ar  
    37   19   34 1   
@<TRIPOS>SUBSTRUCTURE
     1 NVP         1 TEMP              0 ****  ****    0 ROOT
