@<TRIPOS>MOLECULE
NVU
   19    16     1     0     0
SMALL
bcc


@<TRIPOS>ATOM
      1 CA          1.0840   -1.8560   -1.2500 c3        1 NVU     -0.242700
      2 C           0.5930   -3.2550   -0.9500 c         1 NVU      0.920600
      3 O          -0.5910   -3.5800   -1.2290 o         1 NVU     -0.832300
      4 OXT         1.3730   -4.1000   -0.4370 o         1 NVU     -0.832300
      5 CB          0.5650   -0.9030   -0.1960 ce        1 NVU      0.271900
      6 CG         -0.0000    0.3570    0.0210 cg        1 NVU     -0.156200
      7 CD1        -0.4270    1.3630   -0.8630 c1        1 NVU     -0.063500
      8 CE1        -0.9630    2.5420   -0.3650 c1        1 NVU     -0.063500
      9 CZ         -1.0770    2.7280    1.0040 c1        1 NVU     -0.063500
     10 CE2        -0.6560    1.7360    1.8760 c1        1 NVU     -0.063500
     11 CD2        -0.1130    0.5410    1.3720 c1        1 NVU     -0.003000
     12 OH          0.3720   -0.5830    1.9940 o         1 NVU     -0.045700
     13 NAL         0.7910   -1.4740    1.0090 n2        1 NVU     -0.289700
     14 HA1C        2.0620   -1.8460   -1.2450 hc        1 NVU      0.055700
     15 HA2C        0.7590   -1.5780   -2.1300 hc        1 NVU      0.055700
     16 HD1        -0.3360    1.2370   -1.8260 ha        1 NVU      0.088250
     17 HE1        -1.2570    3.2410   -0.9790 ha        1 NVU      0.088250
     18 HZ         -1.4540    3.5570    1.3540 ha        1 NVU      0.088250
     19 HE2        -0.7250    1.8730    2.8400 ha        1 NVU      0.088250
@<TRIPOS>BOND
     1    1    2 1   
     2    1    5 1   
     3    1   14 1   
     4    1   15 1   
     5    2    3 1   
     6    2    4 1   
     7    5    6 1   
     8    5   13 2   
     9    6   11 3   
    10    7    8 3   
    11    7   16 1   
    12    8   17 1   
    13    9   10 3   
    14    9   18 1   
    15   10   19 1   
    16   12   13 2   
@<TRIPOS>SUBSTRUCTURE
     1 NVU         1 TEMP              0 ****  ****    0 ROOT
