@<TRIPOS>MOLECULE
NVU
   19    20     1     0     0
SMALL
bcc


@<TRIPOS>ATOM
      1 CA          0.0400   -0.3160    0.1550 c3        1 NVU     -0.242700
      2 C           1.3710    0.4640   -0.0040 c         1 NVU      0.920600
      3 O           2.4450   -0.1600    0.1990 o         1 NVU     -0.832300
      4 OXT         1.3010    1.6710   -0.3790 o         1 NVU     -0.832300
      5 CB         -0.5760   -0.1550    1.4870 cc        1 NVU      0.450900
      6 CG         -0.7310    1.1250    2.2080 ca        1 NVU     -0.209900
      7 CD1        -0.3760    2.4500    2.0000 ca        1 NVU     -0.032000
      8 CE1        -0.7350    3.3770    2.9840 ca        1 NVU     -0.184000
      9 CZ         -1.4190    2.9960    4.1440 ca        1 NVU     -0.111000
     10 CE2        -1.7770    1.6670    4.3850 ca        1 NVU     -0.157000
     11 CD2        -1.4200    0.7540    3.4030 ca        1 NVU      0.042100
     12 OH         -1.6350   -0.6350    3.3690 os        1 NVU     -0.046600
     13 NAL        -1.1290   -1.1270    2.2310 nd        1 NVU     -0.459200
     14 HA1C       -0.6820    0.0800   -0.6070 hc        1 NVU      0.055700
     15 HA2C        0.2400   -1.3960   -0.0640 hc        1 NVU      0.055700
     16 HD1         0.1910    2.7320    1.0890 ha        1 NVU      0.214000
     17 HE1        -0.4640    4.4340    2.8450 ha        1 NVU      0.123000
     18 HZ         -1.6780    3.7600    4.8920 ha        1 NVU      0.113000
     19 HE2        -2.3040    1.3610    5.2950 ha        1 NVU      0.133000
@<TRIPOS>BOND
     1    1    2 1   
     2    1    5 1   
     3    1   14 1   
     4    1   15 1   
     5    2    3 1   
     6    2    4 1   
     7    5    6 1   
     8    5   13 2   
     9    6    7 ar  
    10    6   11 ar  
    11    7    8 ar  
    12    7   16 1   
    13    8    9 ar  
    14    8   17 1   
    15    9   10 ar  
    16    9   18 1   
    17   10   11 ar  
    18   10   19 1   
    19   11   12 1   
    20   12   13 1   
@<TRIPOS>SUBSTRUCTURE
     1 NVU         1 TEMP              0 ****  ****    0 ROOT
