@<TRIPOS>MOLECULE
NVU
   19    20     1     0     0
SMALL
bcc


@<TRIPOS>ATOM
      1 CA          0.3200   -0.3950    0.3250 c3        1 NVU     -0.242700
      2 C           0.4510    0.8230   -0.6270 c         1 NVU      0.920600
      3 O           1.3330    1.6870   -0.3520 o         1 NVU     -0.832300
      4 OXT        -0.2910    0.8560   -1.6430 o         1 NVU     -0.832300
      5 CB         -0.5760   -0.1480    1.4710 cc        1 NVU      0.450900
      6 CG         -0.5720    1.0660    2.3130 ca        1 NVU     -0.209900
      7 CD1         0.1070    2.2760    2.3370 ca        1 NVU     -0.032000
      8 CE1        -0.2170    3.1790    3.3540 ca        1 NVU     -0.184000
      9 CZ         -1.1930    2.8900    4.3150 ca        1 NVU     -0.111000
     10 CE2        -1.9010    1.6850    4.3080 ca        1 NVU     -0.157000
     11 CD2        -1.5720    0.7940    3.2960 ca        1 NVU      0.042100
     12 OH         -2.1110   -0.4780    3.0300 os        1 NVU     -0.046600
     13 NAL        -1.4990   -0.9940    1.9570 nd        1 NVU     -0.459200
     14 HA1C       -0.0340   -1.2710   -0.2770 hc        1 NVU      0.055700
     15 HA2C        1.3410   -0.6240    0.7300 hc        1 NVU      0.055700
     16 HD1         0.8580    2.5010    1.5510 ha        1 NVU      0.214000
     17 HE1         0.3050    4.1460    3.3950 ha        1 NVU      0.123000
     18 HZ         -1.4160    3.6320    5.0960 ha        1 NVU      0.113000
     19 HE2        -2.6720    1.4580    5.0510 ha        1 NVU      0.133000
@<TRIPOS>BOND
     1    1    2 1   
     2    1    5 1   
     3    1   14 1   
     4    1   15 1   
     5    2    3 1   
     6    2    4 1   
     7    5    6 1   
     8    5   13 2   
     9    6    7 ar  
    10    6   11 ar  
    11    7    8 ar  
    12    7   16 1   
    13    8    9 ar  
    14    8   17 1   
    15    9   10 ar  
    16    9   18 1   
    17   10   11 ar  
    18   10   19 1   
    19   11   12 1   
    20   12   13 1   
@<TRIPOS>SUBSTRUCTURE
     1 NVU         1 TEMP              0 ****  ****    0 ROOT
