@<TRIPOS>MOLECULE
NVU
   19    20     1     0     0
SMALL
bcc


@<TRIPOS>ATOM
      1 CA         -1.9330    0.5130   -0.4830 c3        1 NVU     -0.242700
      2 C          -2.3080   -0.9510   -0.8310 c         1 NVU      0.920600
      3 O          -2.2320   -1.8100    0.0950 o         1 NVU     -0.832300
      4 OXT        -2.7140   -1.1910   -1.9970 o         1 NVU     -0.832300
      5 CB         -0.4910    0.7960   -0.6210 cc        1 NVU      0.450900
      6 CG          0.6000   -0.0640   -0.1210 ca        1 NVU     -0.209900
      7 CD1         0.7070   -1.2940    0.5130 ca        1 NVU     -0.032000
      8 CE1         1.9910   -1.7550    0.8170 ca        1 NVU     -0.184000
      9 CZ          3.1370   -1.0200    0.4910 ca        1 NVU     -0.111000
     10 CE2         3.0590    0.2150   -0.1590 ca        1 NVU     -0.157000
     11 CD2         1.7820    0.6660   -0.4550 ca        1 NVU      0.042100
     12 OH          1.3920    1.8530   -1.1030 os        1 NVU     -0.046600
     13 NAL         0.0560    1.8900   -1.1770 nd        1 NVU     -0.459200
     14 HA1C       -2.5380    1.1930   -1.1370 hc        1 NVU      0.055700
     15 HA2C       -2.2180    0.6950    0.5880 hc        1 NVU      0.055700
     16 HD1        -0.2090   -1.8780    0.7390 ha        1 NVU      0.214000
     17 HE1         2.1040   -2.7270    1.3180 ha        1 NVU      0.123000
     18 HZ          4.1270   -1.4240    0.7470 ha        1 NVU      0.113000
     19 HE2         3.9530    0.7900   -0.4250 ha        1 NVU      0.133000
@<TRIPOS>BOND
     1    1    2 1   
     2    1    5 1   
     3    1   14 1   
     4    1   15 1   
     5    2    3 1   
     6    2    4 1   
     7    5    6 1   
     8    5   13 2   
     9    6    7 ar  
    10    6   11 ar  
    11    7    8 ar  
    12    7   16 1   
    13    8    9 ar  
    14    8   17 1   
    15    9   10 ar  
    16    9   18 1   
    17   10   11 ar  
    18   10   19 1   
    19   11   12 1   
    20   12   13 1   
@<TRIPOS>SUBSTRUCTURE
     1 NVU         1 TEMP              0 ****  ****    0 ROOT
