@<TRIPOS>MOLECULE
NVW
   61    64     1     0     0
SMALL
bcc


@<TRIPOS>ATOM
      1 N1         -2.7680    2.0410    0.1000 nb        1 NVW     -0.761000
      2 C1         -1.7610   -0.5560    0.1680 ca        1 NVW      0.815200
      3 N2         -0.9000    0.5120    0.3240 nb        1 NVW     -0.777000
      4 C2         -1.4300    1.7550    0.2610 cp        1 NVW      0.807500
      5 C3         -0.4960    2.9060    0.3920 cp        1 NVW     -0.160500
      6 N3         -1.2360   -1.8260    0.2390 nh        1 NVW     -0.750300
      7 C4          0.8010    2.8200   -0.1320 ca        1 NVW     -0.079500
      8 C5          1.6740    3.8980   -0.0030 ca        1 NVW     -0.146500
      9 C6          1.2630    5.0630    0.6440 ca        1 NVW     -0.104000
     10 C7         -0.0280    5.1500    1.1650 ca        1 NVW     -0.146500
     11 C8         -0.9100    4.0770    1.0410 ca        1 NVW     -0.079500
     12 C9         -3.6050    1.0020   -0.0630 ca        1 NVW      0.592600
     13 C10        -3.1730   -0.3580   -0.0940 ca        1 NVW     -0.704100
     14 S1         -4.1500   -1.6320   -0.5140 sy        1 NVW      1.406300
     15 C11        -5.7140   -1.0300   -0.2230 c3        1 NVW     -0.315600
     16 C12        -5.9150    0.3220   -0.8560 c3        1 NVW     -0.057400
     17 C13        -5.0660    1.3640   -0.1680 c3        1 NVW     -0.161700
     18 O1         -4.0150   -1.9290   -1.8770 o         1 NVW     -0.666800
     19 O2         -3.9250   -2.7240    0.3510 o         1 NVW     -0.666800
     20 C14         0.1430   -2.1070    0.4040 ca        1 NVW      0.132600
     21 C15         0.8860   -1.5850    1.4800 ca        1 NVW     -0.117500
     22 C16         2.1340   -3.2510   -0.3840 ca        1 NVW     -0.122000
     23 C17         0.7810   -2.9600   -0.5220 ca        1 NVW     -0.117500
     24 C18         2.8810   -2.7030    0.6650 ca        1 NVW     -0.090300
     25 C19         2.2400   -1.8810    1.5990 ca        1 NVW     -0.122000
     26 C20         4.3330   -2.9900    0.7850 c3        1 NVW     -0.116100
     27 C21         5.2120   -2.0050    0.0200 c         1 NVW      0.663100
     28 N4          4.8920   -0.6680    0.1140 n         1 NVW     -0.560900
     29 O3          6.2090   -2.4230   -0.6040 o         1 NVW     -0.613100
     30 C22         5.5660    0.3850   -0.6440 c3        1 NVW      0.123400
     31 C23         5.4830    0.1500   -2.1620 c3        1 NVW     -0.108767
     32 C24         4.9100    1.7450   -0.3430 c3        1 NVW     -0.108767
     33 C25         7.0530    0.4870   -0.2630 c3        1 NVW     -0.108767
     34 H1         -1.8480   -2.6190    0.2470 hn        1 NVW      0.485800
     35 H2          1.1380    1.9070   -0.6470 ha        1 NVW      0.151000
     36 H3          2.6930    3.8250   -0.4140 ha        1 NVW      0.136500
     37 H4          1.9550    5.9120    0.7430 ha        1 NVW      0.135000
     38 H5         -0.3550    6.0680    1.6760 ha        1 NVW      0.136500
     39 H6         -1.9270    4.1580    1.4550 ha        1 NVW      0.151000
     40 H7         -6.4760   -1.7420   -0.6440 h1        1 NVW      0.122200
     41 H8         -5.9440   -0.9700    0.8730 h1        1 NVW      0.122200
     42 H9         -5.6600    0.2680   -1.9500 hc        1 NVW      0.068700
     43 H10        -6.9920    0.6280   -0.7830 hc        1 NVW      0.068700
     44 H11        -5.4400    1.5230    0.8820 hc        1 NVW      0.083700
     45 H12        -5.1820    2.3420   -0.7130 hc        1 NVW      0.083700
     46 H13         0.4090   -0.9310    2.2270 ha        1 NVW      0.150500
     47 H14         2.6230   -3.9130   -1.1160 ha        1 NVW      0.142500
     48 H15         0.2160   -3.3960   -1.3620 ha        1 NVW      0.150500
     49 H16         2.8110   -1.4650    2.4440 ha        1 NVW      0.142500
     50 H17         4.6510   -2.9650    1.8620 hc        1 NVW      0.083700
     51 H18         4.5620   -4.0160    0.3860 hc        1 NVW      0.083700
     52 H19         4.0110   -0.4260    0.5040 hn        1 NVW      0.312500
     53 H20         4.4200    0.1330   -2.5020 hc        1 NVW      0.045589
     54 H21         6.0150    0.9750   -2.6910 hc        1 NVW      0.045589
     55 H22         5.9670   -0.8210   -2.4290 hc        1 NVW      0.045589
     56 H23         4.9910    1.9950    0.7420 hc        1 NVW      0.045589
     57 H24         5.4360    2.5350   -0.9300 hc        1 NVW      0.045589
     58 H25         3.8320    1.7460   -0.6360 hc        1 NVW      0.045589
     59 H26         7.5770   -0.4730   -0.4910 hc        1 NVW      0.045589
     60 H27         7.5240    1.3070   -0.8540 hc        1 NVW      0.045589
     61 H28         7.1680    0.7140    0.8230 hc        1 NVW      0.045589
@<TRIPOS>BOND
     1    1    4 ar  
     2    1   12 ar  
     3    2    3 ar  
     4    2    6 1   
     5    2   13 ar  
     6    3    4 ar  
     7    4    5 1   
     8    5    7 ar  
     9    5   11 ar  
    10    6   20 1   
    11    6   34 1   
    12    7    8 ar  
    13    7   35 1   
    14    8    9 ar  
    15    8   36 1   
    16    9   10 ar  
    17    9   37 1   
    18   10   11 ar  
    19   10   38 1   
    20   11   39 1   
    21   12   13 ar  
    22   12   17 1   
    23   13   14 1   
    24   14   15 1   
    25   14   18 2   
    26   14   19 2   
    27   15   16 1   
    28   15   40 1   
    29   15   41 1   
    30   16   17 1   
    31   16   42 1   
    32   16   43 1   
    33   17   44 1   
    34   17   45 1   
    35   20   21 ar  
    36   20   23 ar  
    37   21   25 ar  
    38   21   46 1   
    39   22   23 ar  
    40   22   24 ar  
    41   22   47 1   
    42   23   48 1   
    43   24   25 ar  
    44   24   26 1   
    45   25   49 1   
    46   26   27 1   
    47   26   50 1   
    48   26   51 1   
    49   27   28 1   
    50   27   29 2   
    51   28   30 1   
    52   28   52 1   
    53   30   31 1   
    54   30   32 1   
    55   30   33 1   
    56   31   53 1   
    57   31   54 1   
    58   31   55 1   
    59   32   56 1   
    60   32   57 1   
    61   32   58 1   
    62   33   59 1   
    63   33   60 1   
    64   33   61 1   
@<TRIPOS>SUBSTRUCTURE
     1 NVW         1 TEMP              0 ****  ****    0 ROOT
