@<TRIPOS>MOLECULE
NVW
   63    66     1     0     0
SMALL
bcc


@<TRIPOS>ATOM
      1 N1         -0.3540    0.0710   -0.0720 nb        1 NVW     -0.682000
      2 C1          1.2520    0.0920    2.1490 ca        1 NVW      0.639200
      3 N2          1.8520    0.1350    0.9540 nb        1 NVW     -0.709000
      4 C2          1.0090    0.1230   -0.1530 cp        1 NVW      0.836500
      5 C3          1.6360    0.1700   -1.4890 cp        1 NVW     -0.203500
      6 N3          2.0990    0.1110    3.3830 n4        1 NVW     -0.667100
      7 C4          2.9030   -0.3980   -1.7020 ca        1 NVW     -0.064000
      8 C5          3.4700   -0.3680   -2.9730 ca        1 NVW     -0.139500
      9 C6          2.7880    0.2300   -4.0360 ca        1 NVW     -0.066000
     10 C7          1.5320    0.7990   -3.8250 ca        1 NVW     -0.139500
     11 C8          0.9490    0.7680   -2.5590 ca        1 NVW     -0.064000
     12 C9         -0.9270    0.0270    1.1510 ca        1 NVW      0.600600
     13 C10        -0.1600    0.0390    2.3500 ca        1 NVW     -0.604100
     14 S1         -0.7890    0.0040    3.9260 sy        1 NVW      1.369300
     15 C11        -2.4440   -0.0270    3.7360 c3        1 NVW     -0.335600
     16 C12        -2.9290   -0.7080    2.4760 c3        1 NVW     -0.054400
     17 C13        -2.4270   -0.0170    1.2280 c3        1 NVW     -0.175700
     18 O1         -0.2260   -1.1490    4.5100 o         1 NVW     -0.663300
     19 O2         -0.2950    1.1800    4.5280 o         1 NVW     -0.663300
     20 C14         3.5500    0.1280    3.1810 ca        1 NVW      0.011600
     21 C15         4.1860    1.3060    2.7540 ca        1 NVW     -0.078000
     22 C16         5.6870   -0.9840    3.3510 ca        1 NVW     -0.088500
     23 C17         4.2990   -1.0290    3.4610 ca        1 NVW     -0.078000
     24 C18         6.3330    0.1930    2.9540 ca        1 NVW     -0.075300
     25 C19         5.5760    1.3290    2.6470 ca        1 NVW     -0.088500
     26 C20         7.8220    0.2560    2.9210 c3        1 NVW     -0.107100
     27 C21         8.3960   -0.2880    1.6370 c         1 NVW      0.544100
     28 N4          9.8980   -0.2090    1.5120 n4        1 NVW     -0.691800
     29 O3          7.7990   -0.7600    0.6820 o         1 NVW     -0.399100
     30 C22        10.6180   -1.5500    1.7520 c3        1 NVW      0.163200
     31 C23        10.3670   -2.4860    0.5700 c3        1 NVW     -0.134100
     32 C24        12.1190   -1.2670    1.8690 c3        1 NVW     -0.134100
     33 C25        10.1180   -2.1900    3.0450 c3        1 NVW     -0.134100
     34 H1          1.8400   -0.7320    3.9400 hn        1 NVW      0.503800
     35 H2          3.4480   -0.8840   -0.8800 ha        1 NVW      0.149500
     36 H3          4.4560   -0.8260   -3.1430 ha        1 NVW      0.154500
     37 H4          3.2400    0.2480   -5.0410 ha        1 NVW      0.158000
     38 H5          0.9910    1.2690   -4.6630 ha        1 NVW      0.154500
     39 H6         -0.0470    1.2170   -2.4140 ha        1 NVW      0.149500
     40 H7         -2.9320   -0.5570    4.6100 h1        1 NVW      0.162200
     41 H8         -2.8860    1.0130    3.7690 h1        1 NVW      0.162200
     42 H9         -4.0540   -0.6980    2.4580 hc        1 NVW      0.091200
     43 H10        -2.6150   -1.7870    2.4790 hc        1 NVW      0.091200
     44 H11        -2.8030    1.0450    1.1860 hc        1 NVW      0.114200
     45 H12        -2.8490   -0.5450    0.3260 hc        1 NVW      0.114200
     46 H13         3.6080    2.2120    2.5030 ha        1 NVW      0.177500
     47 H14         6.2700   -1.8890    3.5890 ha        1 NVW      0.164000
     48 H15         3.8140   -1.9700    3.7760 ha        1 NVW      0.177500
     49 H16         6.0680    2.2620    2.3250 ha        1 NVW      0.164000
     50 H17         8.2460   -0.3400    3.7820 hc        1 NVW      0.114700
     51 H18         8.1580    1.3250    3.0480 hc        1 NVW      0.114700
     52 H19        10.2680    0.4730    2.1810 hn        1 NVW      0.460300
     53 H20        10.8710   -3.4630    0.7830 hc        1 NVW      0.081589
     54 H21         9.2770   -2.6790    0.4220 hc        1 NVW      0.081589
     55 H22        10.7990   -2.0720   -0.3740 hc        1 NVW      0.081589
     56 H23        12.6480   -2.2440    2.0110 hc        1 NVW      0.081589
     57 H24        12.3490   -0.6200    2.7500 hc        1 NVW      0.081589
     58 H25        12.5210   -0.7920    0.9410 hc        1 NVW      0.081589
     59 H26        10.6910   -3.1390    3.2090 hc        1 NVW      0.081589
     60 H27         9.0340   -2.4500    2.9770 hc        1 NVW      0.081589
     61 H28        10.2940   -1.5280    3.9280 hc        1 NVW      0.081589
     62 H32         1.8240    0.9590    3.9240 hn        1 NVW      0.503800
     63 H42        10.1390    0.0920    0.5590 hn        1 NVW      0.460300
@<TRIPOS>BOND
     1    1    4 ar  
     2    1   12 ar  
     3    2    3 ar  
     4    2    6 1   
     5    2   13 ar  
     6    3    4 ar  
     7    4    5 1   
     8    5    7 ar  
     9    5   11 ar  
    10    6   20 1   
    11    6   34 1   
    12    6   62 1   
    13    7    8 ar  
    14    7   35 1   
    15    8    9 ar  
    16    8   36 1   
    17    9   10 ar  
    18    9   37 1   
    19   10   11 ar  
    20   10   38 1   
    21   11   39 1   
    22   12   13 ar  
    23   12   17 1   
    24   13   14 1   
    25   14   15 1   
    26   14   18 2   
    27   14   19 2   
    28   15   16 1   
    29   15   40 1   
    30   15   41 1   
    31   16   17 1   
    32   16   42 1   
    33   16   43 1   
    34   17   44 1   
    35   17   45 1   
    36   20   21 ar  
    37   20   23 ar  
    38   21   25 ar  
    39   21   46 1   
    40   22   23 ar  
    41   22   24 ar  
    42   22   47 1   
    43   23   48 1   
    44   24   25 ar  
    45   24   26 1   
    46   25   49 1   
    47   26   27 1   
    48   26   50 1   
    49   26   51 1   
    50   27   28 1   
    51   27   29 2   
    52   28   30 1   
    53   28   52 1   
    54   28   63 1   
    55   30   31 1   
    56   30   32 1   
    57   30   33 1   
    58   31   53 1   
    59   31   54 1   
    60   31   55 1   
    61   32   56 1   
    62   32   57 1   
    63   32   58 1   
    64   33   59 1   
    65   33   60 1   
    66   33   61 1   
@<TRIPOS>SUBSTRUCTURE
     1 NVW         1 TEMP              0 ****  ****    0 ROOT
