@<TRIPOS>MOLECULE
NVW
   61    52     1     0     0
SMALL
bcc


@<TRIPOS>ATOM
      1 N1         -4.1820   -0.0820   -2.5570 n1        1 NVW     -0.230000
      2 C1         -2.7980   -0.3980   -0.1630 c1        1 NVW      0.278000
      3 N2         -2.9570   -1.4630   -0.9990 n1        1 NVW     -0.242000
      4 C2         -3.6540   -1.3130   -2.2100 c1        1 NVW      0.173000
      5 C3         -3.9240   -2.5290   -3.0880 c1        1 NVW     -0.055000
      6 N3         -2.0290   -0.5400    1.0470 n2        1 NVW     -0.260000
      7 C4         -3.6630   -1.9890   -4.3420 c1        1 NVW     -0.118250
      8 C5         -4.6900   -1.3970   -5.0720 c1        1 NVW     -0.118250
      9 C6         -5.9760   -1.3450   -4.5460 c1        1 NVW     -0.118250
     10 C7         -6.2370   -1.8850   -3.2910 c1        1 NVW     -0.118250
     11 C8         -5.2120   -2.4770   -2.5620 c1        1 NVW     -0.079000
     12 C9         -4.0290    0.9710   -1.7380 c1        1 NVW      0.166000
     13 C10        -3.3180    0.8190   -0.5030 c2        1 NVW     -1.001000
     14 S1         -3.3710    2.1330    0.6910 s4        1 NVW      2.088800
     15 C11        -4.3890    3.3660    0.2490 c2        1 NVW     -0.857000
     16 C12        -4.4120    3.5960   -1.1930 c3        1 NVW     -0.135000
     17 C13        -4.7170    2.4180   -2.0950 c3        1 NVW     -0.146000
     18 O1         -3.8440    1.5990    1.9440 o         1 NVW     -0.551900
     19 O2         -2.0360    2.6390    0.8700 o         1 NVW     -0.551900
     20 C14        -0.6040   -0.7410    0.9750 c1        1 NVW      0.055000
     21 C15         0.2450    0.3480    0.7820 c1        1 NVW     -0.108000
     22 C16         1.3100   -2.1950    1.1640 c1        1 NVW     -0.104000
     23 C17        -0.0720   -2.0100    1.1660 c1        1 NVW     -0.151000
     24 C18         2.1570   -1.1070    0.9710 c1        1 NVW     -0.091000
     25 C19         1.6240    0.1650    0.7800 c2        1 NVW     -0.126000
     26 C20         3.6750   -1.3310    0.8380 c2        1 NVW     -0.151000
     27 C21         4.4030   -0.5740    1.9580 c1        1 NVW      0.306000
     28 N4          5.5570    0.2360    1.6500 n2        1 NVW     -0.370000
     29 O3          3.9890   -0.6320    3.1010 o         1 NVW     -0.376000
     30 C22         6.7670    0.1000    2.4330 c3        1 NVW      0.086000
     31 C23         6.5030    0.5750    3.8700 c3        1 NVW     -0.226333
     32 C24         7.8810    0.9550    1.8070 c3        1 NVW     -0.226333
     33 C25         7.2010   -1.3720    2.4520 c3        1 NVW     -0.226333
     34 H1         -2.4520   -0.5400    1.8630 hn        1 NVW      0.273000
     35 H2         -2.7560   -2.0260   -4.7120 ha        1 NVW      0.140000
     36 H3         -4.5060   -1.0150   -5.9570 ha        1 NVW      0.140000
     37 H4         -6.7020   -0.9260   -5.0620 ha        1 NVW      0.140000
     38 H5         -7.1470   -1.8490   -2.9190 ha        1 NVW      0.140000
     39 H6         -5.3970   -2.8590   -1.6750 ha        1 NVW      0.152000
     40 H7         -4.2120    4.1050    0.8730 ha        1 NVW      0.161500
     41 H8         -5.3270    3.1720    0.4730 ha        1 NVW      0.161500
     42 H9         -5.0980    4.2770   -1.3660 hc        1 NVW      0.108000
     43 H10        -3.5250    3.9310   -1.4470 hc        1 NVW      0.108000
     44 H11        -4.4410    2.6620   -3.0040 hc        1 NVW      0.124000
     45 H12        -5.6920    2.2910   -2.1000 hc        1 NVW      0.124000
     46 H13        -0.1310    1.2450    0.6480 ha        1 NVW      0.154000
     47 H14         1.6850   -3.0920    1.2980 ha        1 NVW      0.145000
     48 H15        -0.6700   -2.7780    1.3020 ha        1 NVW      0.145000
     49 H16         2.2200    0.9300    0.6440 ha        1 NVW      0.138000
     50 H17         3.9810   -0.9980   -0.0360 ha        1 NVW      0.121500
     51 H18         3.8730   -2.2930    0.9100 ha        1 NVW      0.121500
     52 H19         5.5190    0.8450    0.9660 hn        1 NVW      0.226000
     53 H20         7.3580    0.6520    4.3510 hc        1 NVW      0.084778
     54 H21         6.0570    1.4520    3.8490 hc        1 NVW      0.084778
     55 H22         5.9260   -0.0750    4.3290 hc        1 NVW      0.084778
     56 H23         8.6980    0.8750    2.3470 hc        1 NVW      0.084778
     57 H24         7.5970    1.8940    1.7810 hc        1 NVW      0.084778
     58 H25         8.0620    0.6400    0.8890 hc        1 NVW      0.084778
     59 H26         8.1340   -1.4360    2.7610 hc        1 NVW      0.084778
     60 H27         6.6190   -1.8770    3.0610 hc        1 NVW      0.084778
     61 H28         7.1300   -1.7460    1.5470 hc        1 NVW      0.084778
@<TRIPOS>BOND
     1    1    4 1   
     2    2    3 1   
     3    2   13 1   
     4    5   11 1   
     5    6   20 1   
     6    6   34 1   
     7    7    8 1   
     8    7   35 1   
     9    8   36 1   
    10    9   10 1   
    11    9   37 1   
    12   10   38 1   
    13   11   39 1   
    14   12   13 1   
    15   12   17 1   
    16   13   14 1   
    17   14   18 1   
    18   14   19 1   
    19   15   16 1   
    20   15   40 1   
    21   15   41 1   
    22   16   17 1   
    23   16   42 1   
    24   16   43 1   
    25   17   44 1   
    26   17   45 1   
    27   20   23 1   
    28   21   25 1   
    29   21   46 1   
    30   22   24 1   
    31   22   47 1   
    32   23   48 1   
    33   24   25 1   
    34   25   49 1   
    35   26   27 1   
    36   26   50 1   
    37   26   51 1   
    38   27   29 1   
    39   28   30 1   
    40   28   52 1   
    41   30   31 1   
    42   30   32 1   
    43   30   33 1   
    44   31   53 1   
    45   31   54 1   
    46   31   55 1   
    47   32   56 1   
    48   32   57 1   
    49   32   58 1   
    50   33   59 1   
    51   33   60 1   
    52   33   61 1   
@<TRIPOS>SUBSTRUCTURE
     1 NVW         1 TEMP              0 ****  ****    0 ROOT
