@<TRIPOS>MOLECULE
NVW
   62    65     1     0     0
SMALL
bcc


@<TRIPOS>ATOM
      1 N1          0.4480    0.6890   -0.1100 nb        1 NVW     -0.724000
      2 C1          1.6750   -0.2870    2.1870 ca        1 NVW      0.789200
      3 N2          2.4080   -0.1760    1.0360 nb        1 NVW     -0.782000
      4 C2          1.7660    0.3150   -0.0620 cp        1 NVW      0.801500
      5 C3          2.5530    0.4380   -1.3180 cp        1 NVW     -0.162500
      6 N3          2.2920   -0.7790    3.3420 nu        1 NVW     -0.759300
      7 C4          3.3920   -0.6070   -1.7240 ca        1 NVW     -0.085000
      8 C5          4.1080   -0.4940   -2.9140 ca        1 NVW     -0.142000
      9 C6          3.9960    0.6560   -3.6960 ca        1 NVW     -0.103000
     10 C7          3.1620    1.6970   -3.2880 ca        1 NVW     -0.142000
     11 C8          2.4340    1.5910   -2.1040 ca        1 NVW     -0.085000
     12 C9         -0.2660    0.5700    1.0280 ca        1 NVW      0.583600
     13 C10         0.2880    0.1010    2.2510 ca        1 NVW     -0.641100
     14 S1         -0.5460    0.0870    3.7110 sy        1 NVW      1.389300
     15 C11        -2.1930    0.1800    3.2910 c3        1 NVW     -0.326600
     16 C12        -2.5540    0.0370    1.8360 c3        1 NVW     -0.039400
     17 C13        -1.7180    0.9590    0.9770 c3        1 NVW     -0.172700
     18 O1         -0.3070   -1.1510    4.3460 o         1 NVW     -0.656800
     19 O2         -0.2050    1.2260    4.4490 o         1 NVW     -0.656800
     20 C14         3.6750   -0.9020    3.5120 ca        1 NVW      0.211600
     21 C15         4.5790    0.0940    3.0670 ca        1 NVW     -0.147000
     22 C16         5.5520   -2.1150    4.4810 ca        1 NVW     -0.098500
     23 C17         4.1900   -2.0070    4.2350 ca        1 NVW     -0.147000
     24 C18         6.4420   -1.1430    4.0110 ca        1 NVW     -0.206300
     25 C19         5.9370   -0.0340    3.3190 ca        1 NVW     -0.098500
     26 C20         7.8930   -1.2500    4.3010 c3        1 NVW     -0.087100
     27 C21         8.6450   -2.0480    3.2670 c         1 NVW      0.550100
     28 N4          8.2360   -1.8400    1.8280 ny        1 NVW     -0.687800
     29 O3          9.5400   -2.8560    3.4660 o         1 NVW     -0.422100
     30 C22         9.2390   -1.0140    1.0190 c3        1 NVW      0.158200
     31 C23        10.4660   -1.8660    0.6850 c3        1 NVW     -0.129433
     32 C24         8.5630   -0.5700   -0.2830 c3        1 NVW     -0.129433
     33 C25         9.6680    0.2200    1.8120 c3        1 NVW     -0.129433
     34 H1          1.7200   -1.3410    3.9530 hn        1 NVW      0.493800
     35 H2          3.4730   -1.5210   -1.1180 ha        1 NVW      0.146500
     36 H3          4.7510   -1.3230   -3.2460 ha        1 NVW      0.140500
     37 H4          4.5580    0.7380   -4.6380 ha        1 NVW      0.142000
     38 H5          3.0680    2.6020   -3.9080 ha        1 NVW      0.140500
     39 H6          1.7650    2.4100   -1.7960 ha        1 NVW      0.146500
     40 H7         -2.7640   -0.6090    3.8620 h1        1 NVW      0.135200
     41 H8         -2.6120    1.1610    3.6590 h1        1 NVW      0.135200
     42 H9         -2.4170   -1.0270    1.5050 hc        1 NVW      0.069200
     43 H10        -3.6390    0.2880    1.6900 hc        1 NVW      0.069200
     44 H11        -1.8100    2.0230    1.3300 hc        1 NVW      0.094700
     45 H12        -2.1010    0.9290   -0.0810 hc        1 NVW      0.094700
     46 H13         4.2120    0.9890    2.5390 ha        1 NVW      0.167000
     47 H14         5.9270   -2.9740    5.0610 ha        1 NVW      0.139500
     48 H15         3.5100   -2.7840    4.6240 ha        1 NVW      0.167000
     49 H16         6.6170    0.7720    3.0000 ha        1 NVW      0.139500
     50 H17         8.3700   -0.2300    4.3510 hc        1 NVW      0.119200
     51 H18         8.0640   -1.7570    5.2940 hc        1 NVW      0.119200
     52 H19         8.1450   -2.7520    1.3680 hn        1 NVW      0.462300
     53 H20        11.2000   -1.2260    0.1350 hc        1 NVW      0.076922
     54 H21        10.9590   -2.2510    1.6120 hc        1 NVW      0.076922
     55 H22        10.1920   -2.7280    0.0300 hc        1 NVW      0.076922
     56 H23         7.6890    0.0960   -0.0830 hc        1 NVW      0.076922
     57 H24         8.2300   -1.4470   -0.8890 hc        1 NVW      0.076922
     58 H25         9.3090    0.0050   -0.8870 hc        1 NVW      0.076922
     59 H26        10.2320   -0.0690    2.7330 hc        1 NVW      0.076922
     60 H27        10.3450    0.8360    1.1690 hc        1 NVW      0.076922
     61 H28         8.7890    0.8500    2.0960 hc        1 NVW      0.076922
     62 H42         7.3260   -1.3610    1.8050 hn        1 NVW      0.462300
@<TRIPOS>BOND
     1    1    4 ar  
     2    1   12 ar  
     3    2    3 ar  
     4    2    6 1   
     5    2   13 ar  
     6    3    4 ar  
     7    4    5 1   
     8    5    7 ar  
     9    5   11 ar  
    10    6   20 1   
    11    6   34 1   
    12    7    8 ar  
    13    7   35 1   
    14    8    9 ar  
    15    8   36 1   
    16    9   10 ar  
    17    9   37 1   
    18   10   11 ar  
    19   10   38 1   
    20   11   39 1   
    21   12   13 ar  
    22   12   17 1   
    23   13   14 1   
    24   14   15 1   
    25   14   18 2   
    26   14   19 2   
    27   15   16 1   
    28   15   40 1   
    29   15   41 1   
    30   16   17 1   
    31   16   42 1   
    32   16   43 1   
    33   17   44 1   
    34   17   45 1   
    35   20   21 ar  
    36   20   23 ar  
    37   21   25 ar  
    38   21   46 1   
    39   22   23 ar  
    40   22   24 ar  
    41   22   47 1   
    42   23   48 1   
    43   24   25 ar  
    44   24   26 1   
    45   25   49 1   
    46   26   27 1   
    47   26   50 1   
    48   26   51 1   
    49   27   28 1   
    50   27   29 2   
    51   28   30 1   
    52   28   52 1   
    53   28   62 1   
    54   30   31 1   
    55   30   32 1   
    56   30   33 1   
    57   31   53 1   
    58   31   54 1   
    59   31   55 1   
    60   32   56 1   
    61   32   57 1   
    62   32   58 1   
    63   33   59 1   
    64   33   60 1   
    65   33   61 1   
@<TRIPOS>SUBSTRUCTURE
     1 NVW         1 TEMP              0 ****  ****    0 ROOT
