@<TRIPOS>MOLECULE
NVW
   62    65     1     0     0
SMALL
bcc


@<TRIPOS>ATOM
      1 N1          0.4250    0.5910   -0.1170 nb        1 NVW     -0.724000
      2 C1          1.6740   -0.3310    2.1890 ca        1 NVW      0.789200
      3 N2          2.4040   -0.2190    1.0360 nb        1 NVW     -0.782000
      4 C2          1.7500    0.2450   -0.0670 cp        1 NVW      0.801500
      5 C3          2.5330    0.3680   -1.3250 cp        1 NVW     -0.162500
      6 N3          2.3030   -0.7960    3.3500 nh        1 NVW     -0.759300
      7 C4          3.3930   -0.6640   -1.7190 ca        1 NVW     -0.085000
      8 C5          4.1060   -0.5520   -2.9120 ca        1 NVW     -0.142000
      9 C6          3.9690    0.5860   -3.7080 ca        1 NVW     -0.103000
     10 C7          3.1140    1.6150   -3.3120 ca        1 NVW     -0.142000
     11 C8          2.3890    1.5080   -2.1250 ca        1 NVW     -0.085000
     12 C9         -0.2850    0.4710    1.0230 ca        1 NVW      0.583600
     13 C10         0.2800    0.0290    2.2510 ca        1 NVW     -0.641100
     14 S1         -0.5520    0.0160    3.7120 sy        1 NVW      1.389300
     15 C11        -2.2010    0.0700    3.2930 c3        1 NVW     -0.326600
     16 C12        -2.5610   -0.0980    1.8410 c3        1 NVW     -0.039400
     17 C13        -1.7450    0.8300    0.9680 c3        1 NVW     -0.172700
     18 O1         -0.2870   -1.2080    4.3620 o         1 NVW     -0.656800
     19 O2         -0.2340    1.1720    4.4350 o         1 NVW     -0.656800
     20 C14         3.6880   -0.8880    3.5190 ca        1 NVW      0.211600
     21 C15         4.5710    0.1200    3.0610 ca        1 NVW     -0.147000
     22 C16         5.5910   -2.0510    4.5000 ca        1 NVW     -0.098500
     23 C17         4.2260   -1.9740    4.2550 ca        1 NVW     -0.147000
     24 C18         6.4600   -1.0670    4.0170 ca        1 NVW     -0.206300
     25 C19         5.9320    0.0230    3.3120 ca        1 NVW     -0.098500
     26 C20         7.9130   -1.1410    4.3060 c3        1 NVW     -0.087100
     27 C21         8.6800   -1.9360    3.2800 c         1 NVW      0.550100
     28 N4          8.2650   -1.7540    1.8400 n4        1 NVW     -0.687800
     29 O3          9.5920   -2.7220    3.4880 o         1 NVW     -0.422100
     30 C22         9.2500   -0.9170    1.0190 c3        1 NVW      0.158200
     31 C23        10.4930   -1.7480    0.6940 c3        1 NVW     -0.129433
     32 C24         8.5640   -0.5020   -0.2860 c3        1 NVW     -0.129433
     33 C25         9.6550    0.3350    1.7980 c3        1 NVW     -0.129433
     34 H1          1.7440   -1.3620    3.9680 hn        1 NVW      0.493800
     35 H2          3.4940   -1.5690   -1.1020 ha        1 NVW      0.146500
     36 H3          4.7650   -1.3710   -3.2340 ha        1 NVW      0.140500
     37 H4          4.5280    0.6680   -4.6520 ha        1 NVW      0.142000
     38 H5          3.0000    2.5100   -3.9430 ha        1 NVW      0.140500
     39 H6          1.7040    2.3170   -1.8270 ha        1 NVW      0.146500
     40 H7         -2.6390    1.0480    3.6490 h1        1 NVW      0.135200
     41 H8         -2.7550   -0.7220    3.8760 h1        1 NVW      0.135200
     42 H9         -3.6510    0.1280    1.6930 hc        1 NVW      0.069200
     43 H10        -2.4020   -1.1630    1.5240 hc        1 NVW      0.069200
     44 H11        -1.8580    1.8960    1.3080 hc        1 NVW      0.094700
     45 H12        -2.1280    0.7780   -0.0880 hc        1 NVW      0.094700
     46 H13         4.1850    1.0010    2.5220 ha        1 NVW      0.167000
     47 H14         5.9840   -2.8950    5.0900 ha        1 NVW      0.140000
     48 H15         3.5630   -2.7600    4.6540 ha        1 NVW      0.167000
     49 H16         6.5950    0.8390    2.9820 ha        1 NVW      0.140000
     50 H17         8.3700   -0.1110    4.3440 hc        1 NVW      0.119200
     51 H18         8.0960   -1.6320    5.3050 hc        1 NVW      0.119200
     52 H19         8.1930   -2.6730    1.3910 hn        1 NVW      0.462300
     53 H20        11.2140   -1.1000    0.1350 hc        1 NVW      0.076922
     54 H21        10.2360   -2.6230    0.0490 hc        1 NVW      0.076922
     55 H22        10.9960   -2.1120    1.6240 hc        1 NVW      0.076922
     56 H23         7.6770    0.1490   -0.0920 hc        1 NVW      0.076922
     57 H24         8.2470   -1.3930   -0.8810 hc        1 NVW      0.076922
     58 H25         9.2970    0.0810   -0.8980 hc        1 NVW      0.076922
     59 H26        10.3190    0.9570    1.1460 hc        1 NVW      0.076922
     60 H27         8.7650    0.9500    2.0760 hc        1 NVW      0.076922
     61 H28        10.2270    0.0680    2.7210 hc        1 NVW      0.076922
     62 H42         7.3450   -1.2930    1.8120 hn        1 NVW      0.462300
@<TRIPOS>BOND
     1    1    4 ar  
     2    1   12 ar  
     3    2    3 ar  
     4    2    6 1   
     5    2   13 ar  
     6    3    4 ar  
     7    4    5 1   
     8    5    7 ar  
     9    5   11 ar  
    10    6   20 1   
    11    6   34 1   
    12    7    8 ar  
    13    7   35 1   
    14    8    9 ar  
    15    8   36 1   
    16    9   10 ar  
    17    9   37 1   
    18   10   11 ar  
    19   10   38 1   
    20   11   39 1   
    21   12   13 ar  
    22   12   17 1   
    23   13   14 1   
    24   14   15 1   
    25   14   18 2   
    26   14   19 2   
    27   15   16 1   
    28   15   40 1   
    29   15   41 1   
    30   16   17 1   
    31   16   42 1   
    32   16   43 1   
    33   17   44 1   
    34   17   45 1   
    35   20   21 ar  
    36   20   23 ar  
    37   21   25 ar  
    38   21   46 1   
    39   22   23 ar  
    40   22   24 ar  
    41   22   47 1   
    42   23   48 1   
    43   24   25 ar  
    44   24   26 1   
    45   25   49 1   
    46   26   27 1   
    47   26   50 1   
    48   26   51 1   
    49   27   28 1   
    50   27   29 2   
    51   28   30 1   
    52   28   52 1   
    53   28   62 1   
    54   30   31 1   
    55   30   32 1   
    56   30   33 1   
    57   31   53 1   
    58   31   54 1   
    59   31   55 1   
    60   32   56 1   
    61   32   57 1   
    62   32   58 1   
    63   33   59 1   
    64   33   60 1   
    65   33   61 1   
@<TRIPOS>SUBSTRUCTURE
     1 NVW         1 TEMP              0 ****  ****    0 ROOT
