@<TRIPOS>MOLECULE
NVX
   41    44     1     0     0
SMALL
bcc


@<TRIPOS>ATOM
      1 CAK        -0.1540    0.0090   -0.0130 ca        1 NVX     -0.114000
      2 CAV         1.2560   -0.0720    0.0820 ca        1 NVX      0.179400
      3 NAO         1.8780   -0.1100    1.3410 nc        1 NVX     -0.615100
      4 CAI         3.1870   -0.1860    1.3670 cd        1 NVX      0.491800
      5 NAP         4.0300   -0.2330    0.2620 n         1 NVX     -0.499400
      6 CAU         3.4890   -0.2000   -1.0370 c         1 NVX      0.705100
      7 OAB         4.2580   -0.2440   -2.0140 o         1 NVX     -0.619500
      8 CAW         2.0180   -0.1130   -1.1170 ca        1 NVX     -0.189600
      9 CAH         1.3820   -0.0720   -2.3640 ca        1 NVX     -0.058000
     10 CAG         0.0010    0.0080   -2.4330 ca        1 NVX     -0.155000
     11 CAT        -0.7730    0.0480   -1.2580 ca        1 NVX     -0.042300
     12 CAY        -2.2600    0.1350   -1.3400 c3        1 NVX     -0.050400
     13 CAM        -2.7300    1.3480   -2.1870 c3        1 NVX      0.146800
     14 NAN        -3.4590    0.8720   -3.3580 n3        1 NVX     -0.784200
     15 CAL        -3.8230   -0.5180   -3.1110 c3        1 NVX      0.153800
     16 CAX        -2.8790   -1.1010   -2.0260 c3        1 NVX     -0.189700
     17 CAQ        -3.6420   -1.9780   -1.0670 c         1 NVX      0.588700
     18 OAA        -4.2360   -1.5160   -0.0860 o         1 NVX     -0.519100
     19 CAS        -3.6330   -3.4340   -1.3400 ca        1 NVX     -0.161600
     20 CAJ        -3.7950   -4.3150   -0.2630 ca        1 NVX     -0.072000
     21 CAR        -3.7810   -5.6940   -0.4890 ca        1 NVX      0.005400
     22 CL         -3.9650   -6.7620    0.8200 cl        1 NVX     -0.083400
     23 CAE        -3.6230   -6.2020   -1.7820 ca        1 NVX     -0.099000
     24 CAD        -3.4770   -5.3190   -2.8510 ca        1 NVX     -0.133000
     25 CAF        -3.4790   -3.9420   -2.6350 ca        1 NVX     -0.095000
     26 HAK        -0.7570    0.0420    0.9100 ha        1 NVX      0.160000
     27 HAI         3.6840   -0.2160    2.3610 h5        1 NVX      0.054800
     28 HAP         5.0160   -0.2900    0.3770 hn        1 NVX      0.339500
     29 HAH         1.9980   -0.1040   -3.2780 ha        1 NVX      0.160000
     30 HAG        -0.5010    0.0440   -3.4120 ha        1 NVX      0.135000
     31 HAY        -2.6890    0.2390   -0.3040 hc        1 NVX      0.094700
     32 HAM1       -3.4420    1.9670   -1.5760 h1        1 NVX      0.061700
     33 HAM2       -1.8630    1.9970   -2.4800 h1        1 NVX      0.061700
     34 HAX        -2.0680   -1.7060   -2.5130 hc        1 NVX      0.076700
     35 HAN        -2.8800    0.9360   -4.1760 hn        1 NVX      0.346800
     36 HAL1       -4.8830   -0.5270   -2.7340 h1        1 NVX      0.059700
     37 HAL2       -3.7750   -1.1290   -4.0490 h1        1 NVX      0.059700
     38 HAJ        -3.9360   -3.9090    0.7530 ha        1 NVX      0.168000
     39 HAF        -3.3700   -3.2570   -3.4900 ha        1 NVX      0.137000
     40 HAE        -3.6150   -7.2890   -1.9560 ha        1 NVX      0.151000
     41 HAD        -3.3590   -5.7140   -3.8710 ha        1 NVX      0.142000
@<TRIPOS>BOND
     1    1    2 ar  
     2    1   11 ar  
     3    1   26 1   
     4    2    3 1   
     5    2    8 ar  
     6    3    4 2   
     7    4    5 1   
     8    4   27 1   
     9    5    6 1   
    10    5   28 1   
    11    6    7 2   
    12    6    8 1   
    13    8    9 ar  
    14    9   10 ar  
    15    9   29 1   
    16   10   11 ar  
    17   10   30 1   
    18   11   12 1   
    19   12   13 1   
    20   12   16 1   
    21   12   31 1   
    22   13   14 1   
    23   13   32 1   
    24   13   33 1   
    25   14   15 1   
    26   14   35 1   
    27   15   16 1   
    28   15   36 1   
    29   15   37 1   
    30   16   17 1   
    31   16   34 1   
    32   17   18 2   
    33   17   19 1   
    34   19   20 ar  
    35   19   25 ar  
    36   20   21 ar  
    37   20   38 1   
    38   21   22 1   
    39   21   23 ar  
    40   23   24 ar  
    41   23   40 1   
    42   24   25 ar  
    43   24   41 1   
    44   25   39 1   
@<TRIPOS>SUBSTRUCTURE
     1 NVX         1 TEMP              0 ****  ****    0 ROOT
