@<TRIPOS>MOLECULE
NVX
   41    44     1     0     0
SMALL
bcc


@<TRIPOS>ATOM
      1 CAK        -0.1570    0.0190   -0.0200 ca        1 NVX     -0.114000
      2 CAV         1.2520   -0.0660    0.0830 ca        1 NVX      0.179400
      3 NAO         1.8670   -0.0930    1.3460 nc        1 NVX     -0.615100
      4 CAI         3.1760   -0.1730    1.3810 cd        1 NVX      0.491800
      5 NAP         4.0250   -0.2350    0.2820 ns        1 NVX     -0.499400
      6 CAU         3.4920   -0.2130   -1.0210 c         1 NVX      0.705100
      7 OAB         4.2660   -0.2700   -1.9920 o         1 NVX     -0.619500
      8 CAW         2.0210   -0.1220   -1.1100 ca        1 NVX     -0.189600
      9 CAH         1.3930   -0.0920   -2.3610 ca        1 NVX     -0.058000
     10 CAG         0.0120   -0.0080   -2.4390 ca        1 NVX     -0.155000
     11 CAT        -0.7680    0.0470   -1.2690 ca        1 NVX     -0.042300
     12 CAY        -2.2540    0.1390   -1.3610 c3        1 NVX     -0.050400
     13 CAM        -2.7150    1.3450   -2.2230 c3        1 NVX      0.146800
     14 NAN        -3.4390    0.8600   -3.3930 n7        1 NVX     -0.784200
     15 CAL        -3.8090   -0.5260   -3.1340 c3        1 NVX      0.153800
     16 CAX        -2.8740   -1.1010   -2.0380 c3        1 NVX     -0.189700
     17 CAQ        -3.6460   -1.9660   -1.0750 c         1 NVX      0.588700
     18 OAA        -4.2430   -1.4920   -0.1020 o         1 NVX     -0.520100
     19 CAS        -3.6410   -3.4250   -1.3340 ca        1 NVX     -0.161600
     20 CAJ        -3.8130   -4.2950   -0.2490 ca        1 NVX     -0.072000
     21 CAR        -3.8040   -5.6760   -0.4610 ca        1 NVX      0.005400
     22 Cl         -4.0010   -6.7300    0.8560 cl        1 NVX     -0.083400
     23 CAE        -3.6390   -6.1980   -1.7480 ca        1 NVX     -0.099000
     24 CAD        -3.4830   -5.3250   -2.8250 ca        1 NVX     -0.133000
     25 CAF        -3.4810   -3.9470   -2.6220 ca        1 NVX     -0.095000
     26 HAK        -0.7650    0.0630    0.8980 ha        1 NVX      0.160000
     27 HAI         3.6660   -0.1950    2.3780 h5        1 NVX      0.054800
     28 HAP         5.0100   -0.2940    0.4030 hn        1 NVX      0.339500
     29 HAH         2.0140   -0.1350   -3.2720 ha        1 NVX      0.160000
     30 HAG        -0.4840    0.0200   -3.4210 ha        1 NVX      0.135000
     31 HAY        -2.6890    0.2550   -0.3280 hc        1 NVX      0.094700
     32 HAM1       -3.4290    1.9730   -1.6220 h1        1 NVX      0.061700
     33 HAM2       -1.8440    1.9880   -2.5170 h1        1 NVX      0.061700
     34 HAX        -2.0630   -1.7150   -2.5140 hc        1 NVX      0.076700
     35 HAN        -2.8550    0.9140   -4.2080 hn        1 NVX      0.346800
     36 HAL1       -4.8720   -0.5280   -2.7640 h1        1 NVX      0.059700
     37 HAL2       -3.7570   -1.1470   -4.0670 h1        1 NVX      0.059700
     38 HAJ        -3.9600   -3.8780    0.7620 ha        1 NVX      0.168000
     39 HAF        -3.3640   -3.2700   -3.4830 ha        1 NVX      0.137000
     40 HAE        -3.6350   -7.2860   -1.9120 ha        1 NVX      0.151000
     41 HAD        -3.3610   -5.7310   -3.8410 ha        1 NVX      0.142000
@<TRIPOS>BOND
     1    1    2 ar  
     2    1   11 ar  
     3    1   26 1   
     4    2    3 1   
     5    2    8 ar  
     6    3    4 2   
     7    4    5 1   
     8    4   27 1   
     9    5    6 1   
    10    5   28 1   
    11    6    7 2   
    12    6    8 1   
    13    8    9 ar  
    14    9   10 ar  
    15    9   29 1   
    16   10   11 ar  
    17   10   30 1   
    18   11   12 1   
    19   12   13 1   
    20   12   16 1   
    21   12   31 1   
    22   13   14 1   
    23   13   32 1   
    24   13   33 1   
    25   14   15 1   
    26   14   35 1   
    27   15   16 1   
    28   15   36 1   
    29   15   37 1   
    30   16   17 1   
    31   16   34 1   
    32   17   18 2   
    33   17   19 1   
    34   19   20 ar  
    35   19   25 ar  
    36   20   21 ar  
    37   20   38 1   
    38   21   22 1   
    39   21   23 ar  
    40   23   24 ar  
    41   23   40 1   
    42   24   25 ar  
    43   24   41 1   
    44   25   39 1   
@<TRIPOS>SUBSTRUCTURE
     1 NVX         1 TEMP              0 ****  ****    0 ROOT
