@<TRIPOS>MOLECULE
NVZ
   36    37     1     0     0
SMALL
bcc


@<TRIPOS>ATOM
      1 N1         -1.3250    1.3390   -2.6790 n         1 NVZ     -0.523400
      2 S1         -1.3020   -0.9440   -0.3730 ss        1 NVZ     -0.267200
      3 C2         -0.4740    0.2830    0.4310 c3        1 NVZ     -0.004600
      4 N2          0.6730    1.3390   -1.2620 n         1 NVZ     -0.497900
      5 C3          0.2180    1.3390   -2.6790 c         1 NVZ      0.783500
      6 O3          0.9320    1.4240   -3.6570 o         1 NVZ     -0.572500
      7 C4         -0.4320    1.3930   -0.4800 c3        1 NVZ      0.057700
      8 C5         -1.7230    1.2260   -1.4340 c3        1 NVZ      0.084700
      9 C6         -2.3210   -0.2720   -1.1490 c3        1 NVZ     -0.045300
     10 C7          1.0080   -0.1940    0.7810 c3        1 NVZ     -0.075400
     11 C8          0.9930   -0.9870    2.0860 c3        1 NVZ     -0.080400
     12 C9          2.4090   -1.4430    2.4210 c3        1 NVZ     -0.068400
     13 C10         2.4300   -2.0520    3.8150 c3        1 NVZ     -0.196400
     14 C11         3.8220   -2.5720    4.1190 c         1 NVZ      0.908600
     15 O11         4.6620   -1.8270    4.6890 o         1 NVZ     -0.849800
     16 O12         4.1150   -3.7700    3.8670 o         1 NVZ     -0.849800
     17 C17        -2.1640    1.5750   -3.8100 c         1 NVZ      0.680100
     18 C18        -3.6690    1.6380   -3.6370 c3        1 NVZ     -0.176100
     19 O19        -1.6690    1.8010   -4.8960 o         1 NVZ     -0.544100
     20 H2         -0.9490    0.5340    1.2460 h1        1 NVZ      0.083700
     21 HN2         1.5380    1.3390   -0.9730 hn        1 NVZ      0.324500
     22 H4         -0.4710    2.2390    0.0050 h1        1 NVZ      0.084700
     23 H5         -2.3910    1.9060   -1.2260 h1        1 NVZ      0.066700
     24 H6         -3.1520   -0.2140   -0.6400 h1        1 NVZ      0.076200
     25 H6A        -2.4700   -0.7430   -1.9910 h1        1 NVZ      0.076200
     26 H7          1.3460   -0.7600    0.0610 hc        1 NVZ      0.056700
     27 H7A         1.5860    0.5850    0.8800 hc        1 NVZ      0.056700
     28 H8          0.4150   -1.7670    1.9870 hc        1 NVZ      0.035700
     29 H8A         0.6540   -0.4220    2.8060 hc        1 NVZ      0.035700
     30 H9          3.0130   -0.6770    2.3910 hc        1 NVZ      0.048200
     31 H9A         2.6980   -2.1100    1.7700 hc        1 NVZ      0.048200
     32 H10         1.7910   -2.7890    3.8580 hc        1 NVZ      0.021200
     33 H10A        2.1870   -1.3710    4.4710 hc        1 NVZ      0.021200
     34 H18        -3.8920    2.3240   -2.9800 hc        1 NVZ      0.067033
     35 H18A       -3.9980    0.7730   -3.3280 hc        1 NVZ      0.067033
     36 H18B       -4.0860    1.8590   -4.4920 hc        1 NVZ      0.067033
@<TRIPOS>BOND
     1    1    5 1   
     2    1    8 1   
     3    1   17 1   
     4    2    3 1   
     5    2    9 1   
     6    3    7 1   
     7    3   10 1   
     8    3   20 1   
     9    4    5 1   
    10    4    7 1   
    11    4   21 1   
    12    5    6 2   
    13    7    8 1   
    14    7   22 1   
    15    8    9 1   
    16    8   23 1   
    17    9   24 1   
    18    9   25 1   
    19   10   11 1   
    20   10   26 1   
    21   10   27 1   
    22   11   12 1   
    23   11   28 1   
    24   11   29 1   
    25   12   13 1   
    26   12   30 1   
    27   12   31 1   
    28   13   14 1   
    29   13   32 1   
    30   13   33 1   
    31   14   15 1   
    32   14   16 1   
    33   17   18 1   
    34   17   19 2   
    35   18   34 1   
    36   18   35 1   
    37   18   36 1   
@<TRIPOS>SUBSTRUCTURE
     1 NVZ         1 TEMP              0 ****  ****    0 ROOT
