@<TRIPOS>MOLECULE
NVZ
   36    37     1     0     0
SMALL
bcc


@<TRIPOS>ATOM
      1 N1          3.4330   -0.4010    0.1060 n         1 NVZ     -0.523400
      2 S1          0.5270    1.4840   -1.0280 ss        1 NVZ     -0.267200
      3 C2          0.0600    0.7690    0.5380 c3        1 NVZ     -0.004600
      4 N2          1.4360   -1.3700    0.8540 n         1 NVZ     -0.497900
      5 C3          2.6780   -1.6180    0.1960 c         1 NVZ      0.783500
      6 O3          3.0640   -2.7300   -0.1860 o         1 NVZ     -0.572500
      7 C4          1.2880    0.0610    1.1030 c3        1 NVZ      0.057700
      8 C5          2.6040    0.7300    0.5130 c3        1 NVZ      0.084700
      9 C6          2.2290    1.6870   -0.6190 c3        1 NVZ     -0.045300
     10 C7         -1.1720   -0.0930    0.3820 c3        1 NVZ     -0.075400
     11 C8         -2.4220    0.7490    0.2140 c3        1 NVZ     -0.080400
     12 C9         -3.6610   -0.1210    0.1670 c3        1 NVZ     -0.068400
     13 C10        -4.9180    0.7020    0.0310 c3        1 NVZ     -0.196400
     14 C11        -6.1740   -0.1400    0.3260 c         1 NVZ      0.908600
     15 O11        -6.1390   -0.9540    1.2930 o         1 NVZ     -0.849800
     16 O12        -7.1880    0.0450   -0.4060 o         1 NVZ     -0.849800
     17 C17         4.8060   -0.3060   -0.1330 c         1 NVZ      0.680100
     18 C18         5.4410    1.0610   -0.0270 c3        1 NVZ     -0.176100
     19 O19         5.4810   -1.3060   -0.4160 o         1 NVZ     -0.544100
     20 H2         -0.1860    1.6140    1.2380 h1        1 NVZ      0.083700
     21 HN2         0.6470   -1.8450    0.4670 hn        1 NVZ      0.324500
     22 H4          1.2880    0.1860    2.2250 h1        1 NVZ      0.084700
     23 H5          3.1270    1.3030    1.3290 h1        1 NVZ      0.066700
     24 H6          2.8240    1.5090   -1.5490 h1        1 NVZ      0.076200
     25 H6A         2.4230    2.7360   -0.2900 h1        1 NVZ      0.076200
     26 H7         -1.0650   -0.7730   -0.5040 hc        1 NVZ      0.056700
     27 H7A        -1.2890   -0.7370    1.2960 hc        1 NVZ      0.056700
     28 H8         -2.5080    1.4710    1.0680 hc        1 NVZ      0.035700
     29 H8A        -2.3430    1.3540   -0.7280 hc        1 NVZ      0.035700
     30 H9         -3.5860   -0.8370   -0.6920 hc        1 NVZ      0.048200
     31 H9A        -3.7380   -0.7350    1.1050 hc        1 NVZ      0.048200
     32 H10        -4.9040    1.5510    0.7610 hc        1 NVZ      0.021200
     33 H10A       -4.9940    1.1350   -0.9980 hc        1 NVZ      0.021200
     34 H18         5.4770    1.3760    1.0440 hc        1 NVZ      0.067033
     35 H18A        6.4830    0.9980   -0.4230 hc        1 NVZ      0.067033
     36 H18B        4.8710    1.8220   -0.6120 hc        1 NVZ      0.067033
@<TRIPOS>BOND
     1    1    5 1   
     2    1    8 1   
     3    1   17 1   
     4    2    3 1   
     5    2    9 1   
     6    3    7 1   
     7    3   10 1   
     8    3   20 1   
     9    4    5 1   
    10    4    7 1   
    11    4   21 1   
    12    5    6 2   
    13    7    8 1   
    14    7   22 1   
    15    8    9 1   
    16    8   23 1   
    17    9   24 1   
    18    9   25 1   
    19   10   11 1   
    20   10   26 1   
    21   10   27 1   
    22   11   12 1   
    23   11   28 1   
    24   11   29 1   
    25   12   13 1   
    26   12   30 1   
    27   12   31 1   
    28   13   14 1   
    29   13   32 1   
    30   13   33 1   
    31   14   15 1   
    32   14   16 1   
    33   17   18 1   
    34   17   19 2   
    35   18   34 1   
    36   18   35 1   
    37   18   36 1   
@<TRIPOS>SUBSTRUCTURE
     1 NVZ         1 TEMP              0 ****  ****    0 ROOT
