@<TRIPOS>MOLECULE
NVZ
   36    37     1     0     0
SMALL
bcc


@<TRIPOS>ATOM
      1 N1         -0.1420    0.1150   -0.1720 n         1 NVZ     -0.523400
      2 S1          0.0370   -2.8440    1.9470 ss        1 NVZ     -0.267200
      3 C2          1.0560   -1.6160    2.7440 c3        1 NVZ     -0.004600
      4 N2          1.9230   -0.0310    0.9250 ns        1 NVZ     -0.497900
      5 C3          1.2830    0.1510   -0.3380 c         1 NVZ      0.783500
      6 O3          1.8750    0.3640   -1.4040 o         1 NVZ     -0.572500
      7 C4          0.9200   -0.3210    1.9470 c3        1 NVZ      0.057700
      8 C5         -0.4740   -0.3120    1.1840 c3        1 NVZ      0.084700
      9 C6         -1.1190   -1.6950    1.2770 c3        1 NVZ     -0.045300
     10 C7          2.4680   -2.1270    2.9160 c3        1 NVZ     -0.075400
     11 C8          2.5560   -3.1510    4.0310 c3        1 NVZ     -0.080400
     12 C9          3.9910   -3.5760    4.2670 c3        1 NVZ     -0.068400
     13 C10         4.1010   -4.5740    5.3940 c3        1 NVZ     -0.196400
     14 C11         5.5620   -4.7400    5.8540 c         1 NVZ      0.908600
     15 O11         6.2850   -3.7050    5.9470 o         1 NVZ     -0.849800
     16 O12         5.9570   -5.9060    6.1380 o         1 NVZ     -0.849800
     17 C17        -1.0830    0.6040   -1.0810 c         1 NVZ      0.680100
     18 C18        -2.5300    0.6200   -0.6470 c3        1 NVZ     -0.176100
     19 O19        -0.7450    1.0130   -2.2010 o         1 NVZ     -0.544100
     20 H2          0.6230   -1.4230    3.7630 h1        1 NVZ      0.083700
     21 HN2         2.7350   -0.6120    0.9110 hn        1 NVZ      0.324500
     22 H4          0.9470    0.5470    2.6670 h1        1 NVZ      0.084700
     23 H5         -1.1530    0.4500    1.6610 h1        1 NVZ      0.066700
     24 H6         -1.4470   -2.0870    0.2830 h1        1 NVZ      0.076200
     25 H6A        -2.0230   -1.6340    1.9300 h1        1 NVZ      0.076200
     26 H7          3.1450   -1.2640    3.1630 hc        1 NVZ      0.056700
     27 H7A         2.8360   -2.5890    1.9620 hc        1 NVZ      0.056700
     28 H8          1.9300   -4.0450    3.7690 hc        1 NVZ      0.035700
     29 H8A         2.1380   -2.7160    4.9770 hc        1 NVZ      0.035700
     30 H9          4.4100   -4.0230    3.3270 hc        1 NVZ      0.048200
     31 H9A         4.6220   -2.6820    4.5200 hc        1 NVZ      0.048200
     32 H10         3.5080   -4.2230    6.2770 hc        1 NVZ      0.021200
     33 H10A        3.6950   -5.5670    5.0800 hc        1 NVZ      0.021200
     34 H18        -2.8420   -0.3660   -0.2270 hc        1 NVZ      0.067033
     35 H18A       -3.1640    0.8570   -1.5370 hc        1 NVZ      0.067033
     36 H18B       -2.6810    1.4110    0.1270 hc        1 NVZ      0.067033
@<TRIPOS>BOND
     1    1    5 1   
     2    1    8 1   
     3    1   17 1   
     4    2    3 1   
     5    2    9 1   
     6    3    7 1   
     7    3   10 1   
     8    3   20 1   
     9    4    5 1   
    10    4    7 1   
    11    4   21 1   
    12    5    6 2   
    13    7    8 1   
    14    7   22 1   
    15    8    9 1   
    16    8   23 1   
    17    9   24 1   
    18    9   25 1   
    19   10   11 1   
    20   10   26 1   
    21   10   27 1   
    22   11   12 1   
    23   11   28 1   
    24   11   29 1   
    25   12   13 1   
    26   12   30 1   
    27   12   31 1   
    28   13   14 1   
    29   13   32 1   
    30   13   33 1   
    31   14   15 1   
    32   14   16 1   
    33   17   18 1   
    34   17   19 2   
    35   18   34 1   
    36   18   35 1   
    37   18   36 1   
@<TRIPOS>SUBSTRUCTURE
     1 NVZ         1 TEMP              0 ****  ****    0 ROOT
