@<TRIPOS>MOLECULE
NVZ
   36    37     1     0     0
SMALL
bcc


@<TRIPOS>ATOM
      1 N1         -0.1460    0.1170   -0.1680 n         1 NVZ     -0.523400
      2 S1          0.0090   -2.8200    1.9850 ss        1 NVZ     -0.267200
      3 C2          1.0670   -1.6030    2.7480 c3        1 NVZ     -0.004600
      4 N2          1.9340   -0.0600    0.8950 n         1 NVZ     -0.497900
      5 C3          1.2760    0.1210   -0.3590 c         1 NVZ      0.783500
      6 O3          1.8530    0.3090   -1.4380 o         1 NVZ     -0.572500
      7 C4          0.9440   -0.3160    1.9370 c3        1 NVZ      0.057700
      8 C5         -0.4630   -0.2860    1.1990 c3        1 NVZ      0.084700
      9 C6         -1.1350   -1.6550    1.3200 c3        1 NVZ     -0.045300
     10 C7          2.4700   -2.1420    2.9020 c3        1 NVZ     -0.075400
     11 C8          2.5570   -3.1540    4.0280 c3        1 NVZ     -0.080400
     12 C9          3.9860   -3.6070    4.2440 c3        1 NVZ     -0.068400
     13 C10         4.0960   -4.5920    5.3820 c3        1 NVZ     -0.196400
     14 C11         5.5610   -4.7850    5.8170 c         1 NVZ      0.908600
     15 O11         6.3080   -3.7660    5.8820 o         1 NVZ     -0.849800
     16 O12         5.9360   -5.9560    6.1080 o         1 NVZ     -0.849800
     17 C17        -1.0930    0.6140   -1.0660 c         1 NVZ      0.680100
     18 C18        -2.5310    0.6660   -0.6080 c3        1 NVZ     -0.176100
     19 O19        -0.7660    1.0030   -2.1970 o         1 NVZ     -0.544100
     20 H2          0.6550   -1.3890    3.7720 h1        1 NVZ      0.083700
     21 HN2         2.7330   -0.6580    0.8740 hn        1 NVZ      0.324500
     22 H4          1.0010    0.5610    2.6470 h1        1 NVZ      0.084700
     23 H5         -1.1170    0.4950    1.6780 h1        1 NVZ      0.066700
     24 H6         -1.4880   -2.0510    0.3370 h1        1 NVZ      0.076200
     25 H6A        -2.0260   -1.5670    1.9880 h1        1 NVZ      0.076200
     26 H7          3.1700   -1.2910    3.1260 hc        1 NVZ      0.056700
     27 H7A         2.8120   -2.6240    1.9480 hc        1 NVZ      0.056700
     28 H8          1.9070   -4.0370    3.7890 hc        1 NVZ      0.035700
     29 H8A         2.1650   -2.6980    4.9760 hc        1 NVZ      0.035700
     30 H9          4.6410   -2.7230    4.4730 hc        1 NVZ      0.048200
     31 H9A         4.3780   -4.0750    3.3030 hc        1 NVZ      0.048200
     32 H10         3.6620   -5.5800    5.0890 hc        1 NVZ      0.021200
     33 H10A        3.5280   -4.2170    6.2710 hc        1 NVZ      0.021200
     34 H18        -2.8560   -0.3080   -0.1700 hc        1 NVZ      0.067033
     35 H18A       -3.1750    0.9050   -1.4890 hc        1 NVZ      0.067033
     36 H18B       -2.6520    1.4700    0.1590 hc        1 NVZ      0.067033
@<TRIPOS>BOND
     1    1    5 1   
     2    1    8 1   
     3    1   17 1   
     4    2    3 1   
     5    2    9 1   
     6    3    7 1   
     7    3   10 1   
     8    3   20 1   
     9    4    5 1   
    10    4    7 1   
    11    4   21 1   
    12    5    6 2   
    13    7    8 1   
    14    7   22 1   
    15    8    9 1   
    16    8   23 1   
    17    9   24 1   
    18    9   25 1   
    19   10   11 1   
    20   10   26 1   
    21   10   27 1   
    22   11   12 1   
    23   11   28 1   
    24   11   29 1   
    25   12   13 1   
    26   12   30 1   
    27   12   31 1   
    28   13   14 1   
    29   13   32 1   
    30   13   33 1   
    31   14   15 1   
    32   14   16 1   
    33   17   18 1   
    34   17   19 2   
    35   18   34 1   
    36   18   35 1   
    37   18   36 1   
@<TRIPOS>SUBSTRUCTURE
     1 NVZ         1 TEMP              0 ****  ****    0 ROOT
