@<TRIPOS>MOLECULE
NVZ
   36    37     1     0     0
SMALL
bcc


@<TRIPOS>ATOM
      1 N1         -0.1440    0.1250   -0.1640 n         1 NVZ     -0.523400
      2 S1          0.0160   -2.8250    1.9710 ss        1 NVZ     -0.267200
      3 C2          1.0640   -1.6080    2.7470 c3        1 NVZ     -0.004600
      4 N2          1.9320   -0.0480    0.9080 n         1 NVZ     -0.497900
      5 C3          1.2790    0.1370   -0.3480 c         1 NVZ      0.783500
      6 O3          1.8600    0.3350   -1.4220 o         1 NVZ     -0.572500
      7 C4          0.9390   -0.3160    1.9440 c3        1 NVZ      0.057700
      8 C5         -0.4660   -0.2890    1.1990 c3        1 NVZ      0.084700
      9 C6         -1.1310   -1.6610    1.3080 c3        1 NVZ     -0.045300
     10 C7          2.4690   -2.1400    2.9040 c3        1 NVZ     -0.075400
     11 C8          2.5560   -3.1600    4.0240 c3        1 NVZ     -0.080400
     12 C9          3.9860   -3.6070    4.2440 c3        1 NVZ     -0.068400
     13 C10         4.0950   -4.5990    5.3750 c3        1 NVZ     -0.196400
     14 C11         5.5590   -4.7860    5.8180 c         1 NVZ      0.908600
     15 O11         6.3000   -3.7630    5.8950 o         1 NVZ     -0.849800
     16 O12         5.9390   -5.9570    6.1030 o         1 NVZ     -0.849800
     17 C17        -1.0890    0.6230   -1.0630 c         1 NVZ      0.680100
     18 C18        -2.5300    0.6650   -0.6110 c3        1 NVZ     -0.176100
     19 O19        -0.7590    1.0210   -2.1890 o         1 NVZ     -0.544100
     20 H2          0.6470   -1.4030    3.7710 h1        1 NVZ      0.083700
     21 HN2         2.7350   -0.6420    0.8870 hn        1 NVZ      0.324500
     22 H4          0.9880    0.5560    2.6590 h1        1 NVZ      0.084700
     23 H5         -1.1260    0.4860    1.6810 h1        1 NVZ      0.066700
     24 H6         -1.4780   -2.0530    0.3210 h1        1 NVZ      0.076200
     25 H6A        -2.0250   -1.5820    1.9730 h1        1 NVZ      0.076200
     26 H7          3.1630   -1.2880    3.1370 hc        1 NVZ      0.056700
     27 H7A         2.8180   -2.6140    1.9490 hc        1 NVZ      0.056700
     28 H8          2.1570   -2.7130    4.9730 hc        1 NVZ      0.035700
     29 H8A         1.9120   -4.0450    3.7760 hc        1 NVZ      0.035700
     30 H9          4.3860   -4.0650    3.3020 hc        1 NVZ      0.048200
     31 H9A         4.6350   -2.7200    4.4840 hc        1 NVZ      0.048200
     32 H10         3.6700   -5.5880    5.0730 hc        1 NVZ      0.021200
     33 H10A        3.5200   -4.2340    6.2640 hc        1 NVZ      0.021200
     34 H18        -3.1710    0.9070   -1.4930 hc        1 NVZ      0.067033
     35 H18A       -2.6580    1.4630    0.1610 hc        1 NVZ      0.067033
     36 H18B       -2.8520   -0.3140   -0.1810 hc        1 NVZ      0.067033
@<TRIPOS>BOND
     1    1    5 1   
     2    1    8 1   
     3    1   17 1   
     4    2    3 1   
     5    2    9 1   
     6    3    7 1   
     7    3   10 1   
     8    3   20 1   
     9    4    5 1   
    10    4    7 1   
    11    4   21 1   
    12    5    6 2   
    13    7    8 1   
    14    7   22 1   
    15    8    9 1   
    16    8   23 1   
    17    9   24 1   
    18    9   25 1   
    19   10   11 1   
    20   10   26 1   
    21   10   27 1   
    22   11   12 1   
    23   11   28 1   
    24   11   29 1   
    25   12   13 1   
    26   12   30 1   
    27   12   31 1   
    28   13   14 1   
    29   13   32 1   
    30   13   33 1   
    31   14   15 1   
    32   14   16 1   
    33   17   18 1   
    34   17   19 2   
    35   18   34 1   
    36   18   35 1   
    37   18   36 1   
@<TRIPOS>SUBSTRUCTURE
     1 NVZ         1 TEMP              0 ****  ****    0 ROOT
