@<TRIPOS>MOLECULE
NW1
   35    36     1     0     0
SMALL
bcc


@<TRIPOS>ATOM
      1 N1          1.5910   -0.1110    1.4550 nb        1 NW1     -0.874000
      2 C6          0.2970    0.0720    1.1230 ca        1 NW1      0.760600
      3 O6         -0.0740    0.2160   -0.1840 os        1 NW1     -0.418100
      4 C1          0.9510    0.1300   -1.1960 c3        1 NW1      0.139400
      5 C3          0.2270    0.3320   -2.5240 c3        1 NW1     -0.071700
      6 C11         1.2540    0.5750   -3.6210 c3        1 NW1     -0.074400
      7 C10         0.5780    0.7420   -4.9660 c3        1 NW1     -0.075400
      8 C9         -0.3010   -0.4470   -5.2960 c3        1 NW1     -0.078400
      9 C8         -1.3170   -0.6990   -4.2010 c3        1 NW1     -0.075400
     10 C7         -0.6450   -0.8690   -2.8550 c3        1 NW1     -0.074400
     11 C5         -0.7880    0.1410    2.0650 ca        1 NW1     -0.428200
     12 N7         -2.1610    0.3150    1.7370 ne        1 NW1      0.027900
     13 O8         -2.5030    0.4120    0.6290 o         1 NW1     -0.175300
     14 C4         -0.3970    0.0140    3.4590 ca        1 NW1      0.811200
     15 N9         -1.3290    0.0820    4.4580 nh        1 NW1     -0.952500
     16 N3          0.9110   -0.1730    3.8300 nb        1 NW1     -0.875000
     17 C2          1.8500   -0.2430    2.8190 ca        1 NW1      0.981900
     18 N2          3.1600   -0.4880    3.1880 nh        1 NW1     -0.950500
     19 H12         1.7080    0.9370   -1.0260 h1        1 NW1      0.054700
     20 H11         1.4400   -0.8760   -1.1450 h1        1 NW1      0.054700
     21 H3         -0.4360    1.2380   -2.4330 hc        1 NW1      0.071700
     22 H112        1.8490    1.4940   -3.3830 hc        1 NW1      0.045200
     23 H111        1.9660   -0.2900   -3.6620 hc        1 NW1      0.045200
     24 H102       -0.0450    1.6750   -4.9570 hc        1 NW1      0.041200
     25 H101        1.3580    0.8660   -5.7610 hc        1 NW1      0.041200
     26 H92        -0.8320   -0.2620   -6.2670 hc        1 NW1      0.038200
     27 H91         0.3380   -1.3580   -5.4300 hc        1 NW1      0.038200
     28 H82        -2.0380    0.1590   -4.1530 hc        1 NW1      0.041200
     29 H81        -1.9080   -1.6210   -4.4420 hc        1 NW1      0.041200
     30 H72        -0.0170   -1.7980   -2.8620 hc        1 NW1      0.045200
     31 H71        -1.4200   -0.9870   -2.0520 hc        1 NW1      0.045200
     32 H9N3       -1.0610   -0.0160    5.4070 hn        1 NW1      0.451300
     33 H9N2       -2.2850    0.2070    4.2380 hn        1 NW1      0.451300
     34 H22         3.4040   -0.4850    4.1470 hn        1 NW1      0.448800
     35 H21         3.8730   -0.4400    2.5040 hn        1 NW1      0.448800
@<TRIPOS>BOND
     1    1    2 ar  
     2    1   17 ar  
     3    2    3 1   
     4    2   11 ar  
     5    3    4 1   
     6    4    5 1   
     7    4   19 1   
     8    4   20 1   
     9    5    6 1   
    10    5   10 1   
    11    5   21 1   
    12    6    7 1   
    13    6   22 1   
    14    6   23 1   
    15    7    8 1   
    16    7   24 1   
    17    7   25 1   
    18    8    9 1   
    19    8   26 1   
    20    8   27 1   
    21    9   10 1   
    22    9   28 1   
    23    9   29 1   
    24   10   30 1   
    25   10   31 1   
    26   11   12 1   
    27   11   14 ar  
    28   12   13 2   
    29   14   15 1   
    30   14   16 ar  
    31   15   32 1   
    32   15   33 1   
    33   16   17 ar  
    34   17   18 1   
    35   18   34 1   
    36   18   35 1   
@<TRIPOS>SUBSTRUCTURE
     1 NW1         1 TEMP              0 ****  ****    0 ROOT
