@<TRIPOS>MOLECULE
NW1
   35    33     1     0     0
SMALL
bcc


@<TRIPOS>ATOM
      1 N1         -1.2780    0.8920    2.3770 n1        1 NW1     -0.356000
      2 C6         -0.1310    0.1840    2.1520 c1        1 NW1      0.292000
      3 O6          0.4250    0.2350    1.0020 o         1 NW1     -0.178000
      4 C1         -0.5500    0.2230   -0.1360 c3        1 NW1     -0.011000
      5 C3          0.3500   -0.2140   -1.7400 c3        1 NW1     -0.110000
      6 C11         0.0910   -0.4270   -1.9840 c3        1 NW1     -0.151500
      7 C10         0.7190   -0.6520   -3.3780 c3        1 NW1     -0.153000
      8 C9          1.4510    0.9780   -4.1290 c3        1 NW1     -0.155000
      9 C8          1.4220    1.0110   -4.1270 c3        1 NW1     -0.153000
     10 C7          0.8680    1.2800   -2.5330 c3        1 NW1     -0.151500
     11 C5          0.2840   -0.7860    3.0820 c2        1 NW1     -0.439000
     12 N7          1.4300   -1.6770    2.7640 n2        1 NW1      0.262000
     13 O8          1.2420   -2.8170    2.5210 o         1 NW1     -0.287000
     14 C4         -0.4430   -1.0100    4.1780 c1        1 NW1      0.270000
     15 N9         -0.0270   -2.0520    5.1520 n2        1 NW1     -0.349000
     16 N3         -1.5870   -0.2990    4.3950 n2        1 NW1     -0.352000
     17 C2         -2.0010    0.6640    3.4740 c1        1 NW1      0.270000
     18 N2         -3.2110    1.3650    3.6780 n3        1 NW1     -0.352000
     19 H12        -1.2880   -0.4850    0.0480 h1        1 NW1      0.095500
     20 H11        -0.9350    1.0510   -0.2170 h1        1 NW1      0.095500
     21 H3          1.1260   -0.7640   -1.5410 hc        1 NW1      0.112000
     22 H112       -0.1020   -1.3000   -1.5640 hc        1 NW1      0.082750
     23 H111       -0.7200    0.0600   -2.0820 hc        1 NW1      0.082750
     24 H102        1.4080   -1.2860   -3.3030 hc        1 NW1      0.079500
     25 H101        0.0550   -0.9900   -3.9680 hc        1 NW1      0.079500
     26 H92         1.7170    0.8030   -5.1700 hc        1 NW1      0.079000
     27 H91         2.2950    1.2360   -3.6030 hc        1 NW1      0.079000
     28 H82         0.6310    0.7870   -4.7140 hc        1 NW1      0.079500
     29 H81         1.8750    1.8850   -4.4820 hc        1 NW1      0.079500
     30 H72         0.1060    1.9040   -2.5690 hc        1 NW1      0.082750
     31 H71         1.6470    1.7240   -1.9620 hc        1 NW1      0.082750
     32 H9N3       -0.3930   -2.0770    5.9390 hn        1 NW1      0.251000
     33 H9N2        0.6950   -2.6590    4.9370 hn        1 NW1      0.251000
     34 H22        -3.4680    2.0050    3.0890 hn        1 NW1      0.247000
     35 H21        -3.7020    1.2090    4.4150 hn        1 NW1      0.247000
@<TRIPOS>BOND
     1    1    2 1   
     2    2   11 1   
     3    3    4 1   
     4    4    5 1   
     5    4   19 1   
     6    4   20 1   
     7    5    6 1   
     8    5   10 1   
     9    5   21 1   
    10    6    7 1   
    11    6   22 1   
    12    6   23 1   
    13    7    8 1   
    14    7   24 1   
    15    7   25 1   
    16    8    9 1   
    17    8   26 1   
    18    8   27 1   
    19    9   10 1   
    20    9   28 1   
    21    9   29 1   
    22   10   30 1   
    23   10   31 1   
    24   11   12 1   
    25   11   14 1   
    26   12   13 1   
    27   14   16 1   
    28   15   32 1   
    29   15   33 1   
    30   16   17 1   
    31   17   18 1   
    32   18   34 1   
    33   18   35 1   
@<TRIPOS>SUBSTRUCTURE
     1 NW1         1 TEMP              0 ****  ****    0 ROOT
