@<TRIPOS>MOLECULE
NW1
   35    36     1     0     0
SMALL
bcc


@<TRIPOS>ATOM
      1 N1         -0.3550    0.0730    0.1170 nb        1 NW1     -0.874000
      2 C6          0.9880    0.0160    0.0100 ca        1 NW1      0.760600
      3 O6          1.5910    0.0310   -1.2160 os        1 NW1     -0.418100
      4 C1          0.7510    0.1210   -2.3870 c3        1 NW1      0.139400
      5 C3          1.7090    0.0980   -3.5740 c3        1 NW1     -0.071700
      6 C11         0.9180   -0.1540   -4.8500 c3        1 NW1     -0.073900
      7 C10         1.8280   -0.1450   -6.0610 c3        1 NW1     -0.075400
      8 C9          2.6150    1.1470   -6.1540 c3        1 NW1     -0.078400
      9 C8          3.3940    1.4070   -4.8810 c3        1 NW1     -0.075400
     10 C7          2.4870    1.4010   -3.6680 c3        1 NW1     -0.073900
     11 C5          1.8950   -0.0630    1.1230 ca        1 NW1     -0.428200
     12 N7          3.3130   -0.1220    1.0350 ne        1 NW1      0.027900
     13 O8          3.8490   -0.1020    0.0030 o         1 NW1     -0.175300
     14 C4          1.2590   -0.0780    2.4300 ca        1 NW1      0.811200
     15 N9          2.0080   -0.1430    3.5740 nv        1 NW1     -0.953500
     16 N3         -0.1050   -0.0230    2.5730 nb        1 NW1     -0.875000
     17 C2         -0.8590    0.0400    1.4170 ca        1 NW1      0.982900
     18 N2         -2.2330    0.0490    1.5580 nv        1 NW1     -0.952500
     19 H12         0.1640    1.0730   -2.3510 h1        1 NW1      0.054700
     20 H11         0.0590   -0.7600   -2.4140 h1        1 NW1      0.054700
     21 H3          2.4420   -0.7440   -3.4240 hc        1 NW1      0.072700
     22 H112        0.3950   -1.1430   -4.7800 hc        1 NW1      0.044700
     23 H111        0.1320    0.6380   -4.9630 hc        1 NW1      0.044700
     24 H102        1.2130   -0.2790   -6.9890 hc        1 NW1      0.041200
     25 H101        2.5380   -1.0110   -5.9990 hc        1 NW1      0.041200
     26 H92         3.3200    1.0940   -7.0230 hc        1 NW1      0.038200
     27 H91         1.9110    2.0000   -6.3420 hc        1 NW1      0.038200
     28 H82         3.9130    2.3980   -4.9540 hc        1 NW1      0.041200
     29 H81         4.1860    0.6210   -4.7600 hc        1 NW1      0.041200
     30 H72         1.7710    2.2620   -3.7310 hc        1 NW1      0.044700
     31 H71         3.0950    1.5290   -2.7340 hc        1 NW1      0.044700
     32 H9N3        2.9940   -0.1930    3.5200 hn        1 NW1      0.451300
     33 H9N2        1.5710   -0.1610    4.4630 hn        1 NW1      0.451300
     34 H22        -2.6300    0.1190    2.4620 hn        1 NW1      0.449300
     35 H21        -2.8030    0.1880    0.7610 hn        1 NW1      0.449300
@<TRIPOS>BOND
     1    1    2 ar  
     2    1   17 ar  
     3    2    3 1   
     4    2   11 ar  
     5    3    4 1   
     6    4    5 1   
     7    4   19 1   
     8    4   20 1   
     9    5    6 1   
    10    5   10 1   
    11    5   21 1   
    12    6    7 1   
    13    6   22 1   
    14    6   23 1   
    15    7    8 1   
    16    7   24 1   
    17    7   25 1   
    18    8    9 1   
    19    8   26 1   
    20    8   27 1   
    21    9   10 1   
    22    9   28 1   
    23    9   29 1   
    24   10   30 1   
    25   10   31 1   
    26   11   12 1   
    27   11   14 ar  
    28   12   13 2   
    29   14   15 1   
    30   14   16 ar  
    31   15   32 1   
    32   15   33 1   
    33   16   17 ar  
    34   17   18 1   
    35   18   34 1   
    36   18   35 1   
@<TRIPOS>SUBSTRUCTURE
     1 NW1         1 TEMP              0 ****  ****    0 ROOT
