@<TRIPOS>MOLECULE
NW1
   35    36     1     0     0
SMALL
bcc


@<TRIPOS>ATOM
      1 N1         -0.3590    0.1120    0.1190 nb        1 NW1     -0.874000
      2 C6          0.9820    0.0270    0.0100 ca        1 NW1      0.760600
      3 O6          1.5840    0.0250   -1.2160 os        1 NW1     -0.418100
      4 C1          0.7450    0.1300   -2.3860 c3        1 NW1      0.139400
      5 C3          1.7000    0.0840   -3.5750 c3        1 NW1     -0.071700
      6 C11         0.9010   -0.1460   -4.8490 c3        1 NW1     -0.073900
      7 C10         1.8090   -0.1600   -6.0620 c3        1 NW1     -0.075400
      8 C9          2.6290    1.1110   -6.1550 c3        1 NW1     -0.078400
      9 C8          3.4170    1.3500   -4.8830 c3        1 NW1     -0.075400
     10 C7          2.5120    1.3660   -3.6690 c3        1 NW1     -0.073900
     11 C5          1.8900   -0.0650    1.1230 ca        1 NW1     -0.428200
     12 N7          3.3060   -0.1510    1.0320 ne        1 NW1      0.027900
     13 O8          3.8410   -0.1450   -0.0000 o         1 NW1     -0.175300
     14 C4          1.2560   -0.0630    2.4310 ca        1 NW1      0.811200
     15 N9          2.0050   -0.1390    3.5740 nh        1 NW1     -0.953500
     16 N3         -0.1070    0.0200    2.5750 nb        1 NW1     -0.875000
     17 C2         -0.8610    0.0930    1.4210 ca        1 NW1      0.982900
     18 N2         -2.2340    0.1300    1.5630 nh        1 NW1     -0.952500
     19 H12         0.1780    1.0950   -2.3520 h1        1 NW1      0.054700
     20 H11         0.0340   -0.7350   -2.4100 h1        1 NW1      0.054700
     21 H3          2.4120   -0.7770   -3.4270 hc        1 NW1      0.071700
     22 H112        0.3530   -1.1220   -4.7800 hc        1 NW1      0.044700
     23 H111        0.1360    0.6660   -4.9610 hc        1 NW1      0.044700
     24 H102        2.4970   -1.0440   -6.0020 hc        1 NW1      0.041200
     25 H101        1.1890   -0.2760   -6.9890 hc        1 NW1      0.041200
     26 H92         3.3310    1.0410   -7.0260 hc        1 NW1      0.038200
     27 H91         1.9470    1.9820   -6.3410 hc        1 NW1      0.038200
     28 H82         4.1880    0.5440   -4.7630 hc        1 NW1      0.041200
     29 H81         3.9610    2.3280   -4.9560 hc        1 NW1      0.041200
     30 H72         1.8180    2.2450   -3.7290 hc        1 NW1      0.044700
     31 H71         3.1250    1.4770   -2.7360 hc        1 NW1      0.044700
     32 H9N3        2.9900   -0.2070    3.5190 hn        1 NW1      0.451300
     33 H9N2        1.5690   -0.1450    4.4630 hn        1 NW1      0.451300
     34 H22        -2.6290    0.2110    2.4670 hn        1 NW1      0.449300
     35 H21        -2.8030    0.2770    0.7670 hn        1 NW1      0.449300
@<TRIPOS>BOND
     1    1    2 ar  
     2    1   17 ar  
     3    2    3 1   
     4    2   11 ar  
     5    3    4 1   
     6    4    5 1   
     7    4   19 1   
     8    4   20 1   
     9    5    6 1   
    10    5   10 1   
    11    5   21 1   
    12    6    7 1   
    13    6   22 1   
    14    6   23 1   
    15    7    8 1   
    16    7   24 1   
    17    7   25 1   
    18    8    9 1   
    19    8   26 1   
    20    8   27 1   
    21    9   10 1   
    22    9   28 1   
    23    9   29 1   
    24   10   30 1   
    25   10   31 1   
    26   11   12 1   
    27   11   14 ar  
    28   12   13 2   
    29   14   15 1   
    30   14   16 ar  
    31   15   32 1   
    32   15   33 1   
    33   16   17 ar  
    34   17   18 1   
    35   18   34 1   
    36   18   35 1   
@<TRIPOS>SUBSTRUCTURE
     1 NW1         1 TEMP              0 ****  ****    0 ROOT
