@<TRIPOS>MOLECULE
NW1
   37    38     1     0     0
SMALL
bcc


@<TRIPOS>ATOM
      1 N1         -0.4220    0.1570    0.1520 nb        1 NW1     -0.732000
      2 C6          0.9320    0.0120   -0.0160 ca        1 NW1      0.771600
      3 O6          1.5110    0.0170   -1.2140 os        1 NW1     -0.370100
      4 C1          0.7020    0.1790   -2.4350 c3        1 NW1      0.145400
      5 C3          1.7250    0.1800   -3.5620 c3        1 NW1     -0.080700
      6 C11         1.0410   -0.2860   -4.8430 c3        1 NW1     -0.073400
      7 C10         2.0200   -0.2750   -6.0000 c3        1 NW1     -0.078400
      8 C9          2.6510    1.0900   -6.1820 c3        1 NW1     -0.084400
      9 C8          3.3100    1.5680   -4.9060 c3        1 NW1     -0.078400
     10 C7          2.3330    1.5630   -3.7470 c3        1 NW1     -0.073400
     11 C5          1.8330   -0.1580    1.1180 ca        1 NW1     -0.254200
     12 N7          3.2960   -0.3210    1.0150 ne        1 NW1      0.040900
     13 O8          3.8000   -0.3280   -0.0100 o         1 NW1      0.035700
     14 C4          1.2190   -0.1610    2.3860 ca        1 NW1      0.605200
     15 N9          2.0470   -0.3270    3.6020 n4        1 NW1     -0.825300
     16 N3         -0.1290   -0.0180    2.5820 nb        1 NW1     -0.731000
     17 C2         -0.8660    0.1330    1.4390 ca        1 NW1      0.822900
     18 N2         -2.3420    0.2910    1.6230 n4        1 NW1     -0.823300
     19 H12         0.1450    1.1470   -2.3590 h1        1 NW1      0.080200
     20 H11         0.0040   -0.6940   -2.4940 h1        1 NW1      0.080200
     21 H3          2.5490   -0.5460   -3.3080 hc        1 NW1      0.083700
     22 H112        0.1780    0.3920   -5.0750 hc        1 NW1      0.044700
     23 H111        0.6380   -1.3230   -4.7030 hc        1 NW1      0.044700
     24 H102        1.4800   -0.5680   -6.9390 hc        1 NW1      0.058700
     25 H101        2.8220   -1.0390   -5.8200 hc        1 NW1      0.058700
     26 H92         3.4160    1.0400   -7.0020 hc        1 NW1      0.060200
     27 H91         1.8670    1.8270   -6.5000 hc        1 NW1      0.060200
     28 H82         3.7040    2.6080   -5.0520 hc        1 NW1      0.058700
     29 H81         4.1840    0.9080   -4.6620 hc        1 NW1      0.058700
     30 H72         1.5190    2.3100   -3.9440 hc        1 NW1      0.044700
     31 H71         2.8580    1.8680   -2.8050 hc        1 NW1      0.044700
     32 H9N3        2.7400    0.4380    3.6430 hn        1 NW1      0.499133
     33 H9N2        2.5450   -1.2300    3.5490 hn        1 NW1      0.499133
     34 H22        -2.8290   -0.4700    1.1220 hn        1 NW1      0.502467
     35 H21        -2.6370    1.1980    1.2260 hn        1 NW1      0.502467
     36 H93         1.4730   -0.3080    4.4600 hn        1 NW1      0.499133
     37 H23        -2.5920    0.2580    2.6240 hn        1 NW1      0.502467
@<TRIPOS>BOND
     1    1    2 ar  
     2    1   17 ar  
     3    2    3 1   
     4    2   11 ar  
     5    3    4 1   
     6    4    5 1   
     7    4   19 1   
     8    4   20 1   
     9    5    6 1   
    10    5   10 1   
    11    5   21 1   
    12    6    7 1   
    13    6   22 1   
    14    6   23 1   
    15    7    8 1   
    16    7   24 1   
    17    7   25 1   
    18    8    9 1   
    19    8   26 1   
    20    8   27 1   
    21    9   10 1   
    22    9   28 1   
    23    9   29 1   
    24   10   30 1   
    25   10   31 1   
    26   11   12 1   
    27   11   14 ar  
    28   12   13 2   
    29   14   15 1   
    30   14   16 ar  
    31   15   32 1   
    32   15   33 1   
    33   15   36 1   
    34   16   17 ar  
    35   17   18 1   
    36   18   34 1   
    37   18   35 1   
    38   18   37 1   
@<TRIPOS>SUBSTRUCTURE
     1 NW1         1 TEMP              0 ****  ****    0 ROOT
