@<TRIPOS>MOLECULE
NWA
   31    30     1     0     0
SMALL
bcc


@<TRIPOS>ATOM
      1 N1         -0.0540   -0.0710   -0.0420 n4        1 NWA     -0.603800
      2 C2          1.4420    0.0680    0.0990 c3        1 NWA      0.113800
      3 C3          1.9520    0.1610    1.5310 c3        1 NWA     -0.100400
      4 C5          4.0290    0.0420    2.9510 c3        1 NWA      0.347600
      5 O7          3.4230   -1.0780    3.5710 oh        1 NWA     -0.629800
      6 O8          5.4090   -0.2510    2.9440 oh        1 NWA     -0.629800
      7 C6          3.8440    1.3310    3.7400 c3        1 NWA     -0.115100
      8 C8         -0.7530    1.0190    0.6980 c3        1 NWA      0.088433
      9 C9         -0.4010    0.0220   -1.4940 c3        1 NWA      0.088433
     10 C10        -0.5050   -1.3960    0.4800 c3        1 NWA      0.088433
     11 C4          3.4660    0.1240    1.5220 c3        1 NWA     -0.097400
     12 H2C1        1.9040   -0.8270   -0.4100 hx        1 NWA      0.098200
     13 H2C2        1.7440    0.9980   -0.4640 hx        1 NWA      0.098200
     14 H3C1        1.5760   -0.6940    2.1560 hc        1 NWA      0.076700
     15 H3C2        1.6050    1.1160    2.0090 hc        1 NWA      0.076700
     16 H7          3.7740   -1.1410    4.4700 ho        1 NWA      0.429000
     17 H8          5.5340   -1.1080    2.5160 ho        1 NWA      0.429000
     18 H6C1        4.3880    1.2600    4.7130 hc        1 NWA      0.062033
     19 H6C2        4.2590    2.1920    3.1660 hc        1 NWA      0.062033
     20 H6C3        2.7590    1.4930    3.9380 hc        1 NWA      0.062033
     21 H8C1       -0.5860    0.8900    1.8010 hx        1 NWA      0.102144
     22 H8C2       -0.3450    2.0120    0.3690 hx        1 NWA      0.102144
     23 H8C3       -1.8530    0.9710    0.4800 hx        1 NWA      0.102144
     24 H9C1       -0.1090    1.0320   -1.8840 hx        1 NWA      0.102144
     25 H9C2        0.1500   -0.7760   -2.0600 hx        1 NWA      0.102144
     26 H9C3       -1.5070   -0.1230   -1.6220 hx        1 NWA      0.102144
     27 H101       -1.6130   -1.4940    0.3320 hx        1 NWA      0.102144
     28 H102        0.0240   -2.2150   -0.0760 hx        1 NWA      0.102144
     29 H103       -0.2670   -1.4720    1.5750 hx        1 NWA      0.102144
     30 H4C1        3.8250   -0.7710    0.9490 hc        1 NWA      0.067200
     31 H4C2        3.8870    1.0410    1.0360 hc        1 NWA      0.067200
@<TRIPOS>BOND
     1    1    2 1   
     2    1    8 1   
     3    1    9 1   
     4    1   10 1   
     5    2    3 1   
     6    2   12 1   
     7    2   13 1   
     8    3   11 1   
     9    3   14 1   
    10    3   15 1   
    11    4    5 1   
    12    4    6 1   
    13    4    7 1   
    14    4   11 1   
    15    5   16 1   
    16    6   17 1   
    17    7   18 1   
    18    7   19 1   
    19    7   20 1   
    20    8   21 1   
    21    8   22 1   
    22    8   23 1   
    23    9   24 1   
    24    9   25 1   
    25    9   26 1   
    26   10   27 1   
    27   10   28 1   
    28   10   29 1   
    29   11   30 1   
    30   11   31 1   
@<TRIPOS>SUBSTRUCTURE
     1 NWA         1 TEMP              0 ****  ****    0 ROOT
