@<TRIPOS>MOLECULE
NWA
   31    30     1     0     0
SMALL
bcc


@<TRIPOS>ATOM
      1 N1         -2.6000   -0.0450    0.0350 n4        1 NWA     -0.603800
      2 C2         -1.3060   -0.2360   -0.7210 c3        1 NWA      0.114800
      3 C3         -0.0510    0.1910    0.0260 c3        1 NWA     -0.102400
      4 C5          2.4580    0.0340    0.0050 c3        1 NWA      0.350600
      5 O7          2.3520   -0.5570    1.2890 oh        1 NWA     -0.630800
      6 O8          3.4480   -0.7260   -0.6550 oh        1 NWA     -0.630800
      7 C6          2.8300    1.4980    0.1840 c3        1 NWA     -0.121100
      8 C8         -2.7450    1.3730    0.4750 c3        1 NWA      0.088433
      9 C9         -3.7320   -0.3920   -0.8790 c3        1 NWA      0.088433
     10 C10        -2.6450   -0.9430    1.2260 c3        1 NWA      0.088433
     11 C4          1.1640   -0.1600   -0.8070 c3        1 NWA     -0.100400
     12 H2C1       -1.3900    0.3580   -1.6770 hx        1 NWA      0.098700
     13 H2C2       -1.2380   -1.3310   -0.9820 hx        1 NWA      0.098700
     14 H3C1        0.0310   -0.3290    1.0200 hc        1 NWA      0.075200
     15 H3C2       -0.0640    1.2960    0.2190 hc        1 NWA      0.075200
     16 H7          2.5330   -1.5020    1.1960 ho        1 NWA      0.431500
     17 H8          4.3150   -0.4040   -0.3750 ho        1 NWA      0.431500
     18 H6C1        3.0300    1.9540   -0.8140 hc        1 NWA      0.062033
     19 H6C2        2.0000    2.0450    0.6880 hc        1 NWA      0.062033
     20 H6C3        3.7440    1.5830    0.8200 hc        1 NWA      0.062033
     21 H8C1       -2.6200    2.0510   -0.4100 hx        1 NWA      0.102256
     22 H8C2       -3.7640    1.5200    0.9230 hx        1 NWA      0.102256
     23 H8C3       -1.9620    1.6090    1.2440 hx        1 NWA      0.102256
     24 H9C1       -3.6140   -1.4500   -1.2330 hx        1 NWA      0.102256
     25 H9C2       -4.7030   -0.2890   -0.3240 hx        1 NWA      0.102256
     26 H9C3       -3.7280    0.3040   -1.7590 hx        1 NWA      0.102256
     27 H101       -1.8210   -0.6690    1.9370 hx        1 NWA      0.102256
     28 H102       -3.6350   -0.8260    1.7410 hx        1 NWA      0.102256
     29 H103       -2.5160   -2.0080    0.8940 hx        1 NWA      0.102256
     30 H4C1        1.2200    0.4840   -1.7220 hc        1 NWA      0.071200
     31 H4C2        1.1170   -1.2300   -1.1420 hc        1 NWA      0.071200
@<TRIPOS>BOND
     1    1    2 1   
     2    1    8 1   
     3    1    9 1   
     4    1   10 1   
     5    2    3 1   
     6    2   12 1   
     7    2   13 1   
     8    3   11 1   
     9    3   14 1   
    10    3   15 1   
    11    4    5 1   
    12    4    6 1   
    13    4    7 1   
    14    4   11 1   
    15    5   16 1   
    16    6   17 1   
    17    7   18 1   
    18    7   19 1   
    19    7   20 1   
    20    8   21 1   
    21    8   22 1   
    22    8   23 1   
    23    9   24 1   
    24    9   25 1   
    25    9   26 1   
    26   10   27 1   
    27   10   28 1   
    28   10   29 1   
    29   11   30 1   
    30   11   31 1   
@<TRIPOS>SUBSTRUCTURE
     1 NWA         1 TEMP              0 ****  ****    0 ROOT
