@<TRIPOS>MOLECULE
NWA
   31    30     1     0     0
SMALL
bcc


@<TRIPOS>ATOM
      1 N1         -0.0680   -0.0770   -0.0250 n4        1 NWA     -0.603800
      2 C2          1.4310    0.0630    0.1010 c3        1 NWA      0.113800
      3 C3          1.9530    0.1650    1.5280 c3        1 NWA     -0.100400
      4 C5          4.0430    0.0510    2.9290 c3        1 NWA      0.347600
      5 O7          3.4420   -1.0660    3.5610 oh        1 NWA     -0.629800
      6 O8          5.4230   -0.2430    2.9120 oh        1 NWA     -0.629800
      7 C6          3.8660    1.3450    3.7140 c3        1 NWA     -0.115100
      8 C8         -0.7590    1.0180    0.7150 c3        1 NWA      0.088433
      9 C9         -0.4280    0.0080   -1.4740 c3        1 NWA      0.088433
     10 C10        -0.5130   -1.3980    0.5080 c3        1 NWA      0.088433
     11 C4          3.4670    0.1260    1.5060 c3        1 NWA     -0.097400
     12 H2C1        1.8870   -0.8350   -0.4070 hx        1 NWA      0.098200
     13 H2C2        1.7270    0.9900   -0.4690 hx        1 NWA      0.098200
     14 H3C1        1.5830   -0.6860    2.1610 hc        1 NWA      0.076700
     15 H3C2        1.6120    1.1220    2.0030 hc        1 NWA      0.076700
     16 H7          3.8020   -1.1240    4.4560 ho        1 NWA      0.429000
     17 H8          5.5430   -1.1020    2.4870 ho        1 NWA      0.429000
     18 H6C1        4.4190    1.2780    4.6820 hc        1 NWA      0.062033
     19 H6C2        4.2770    2.2020    3.1310 hc        1 NWA      0.062033
     20 H6C3        2.7830    1.5080    3.9200 hc        1 NWA      0.062033
     21 H8C1       -0.5820    0.8950    1.8170 hx        1 NWA      0.102144
     22 H8C2       -0.3550    2.0090    0.3770 hx        1 NWA      0.102144
     23 H8C3       -1.8610    0.9690    0.5070 hx        1 NWA      0.102144
     24 H9C1       -0.1390    1.0170   -1.8720 hx        1 NWA      0.102144
     25 H9C2        0.1180   -0.7920   -2.0410 hx        1 NWA      0.102144
     26 H9C3       -1.5350   -0.1370   -1.5910 hx        1 NWA      0.102144
     27 H101       -1.6230   -1.4970    0.3710 hx        1 NWA      0.102144
     28 H102        0.0100   -2.2200   -0.0480 hx        1 NWA      0.102144
     29 H103       -0.2650   -1.4680    1.6010 hx        1 NWA      0.102144
     30 H4C1        3.8200   -0.7730    0.9340 hc        1 NWA      0.067200
     31 H4C2        3.8850    1.0400    1.0110 hc        1 NWA      0.067200
@<TRIPOS>BOND
     1    1    2 1   
     2    1    8 1   
     3    1    9 1   
     4    1   10 1   
     5    2    3 1   
     6    2   12 1   
     7    2   13 1   
     8    3   11 1   
     9    3   14 1   
    10    3   15 1   
    11    4    5 1   
    12    4    6 1   
    13    4    7 1   
    14    4   11 1   
    15    5   16 1   
    16    6   17 1   
    17    7   18 1   
    18    7   19 1   
    19    7   20 1   
    20    8   21 1   
    21    8   22 1   
    22    8   23 1   
    23    9   24 1   
    24    9   25 1   
    25    9   26 1   
    26   10   27 1   
    27   10   28 1   
    28   10   29 1   
    29   11   30 1   
    30   11   31 1   
@<TRIPOS>SUBSTRUCTURE
     1 NWA         1 TEMP              0 ****  ****    0 ROOT
