@<TRIPOS>MOLECULE
NWA
   31    30     1     0     0
SMALL
bcc


@<TRIPOS>ATOM
      1 N1         -1.8410    0.0020   -1.2370 n4        1 NWA     -0.602800
      2 C2         -0.3720    0.0020   -1.2370 c3        1 NWA      0.115800
      3 C3          0.1470    0.0020    0.2220 c3        1 NWA     -0.104400
      4 C5          2.2200    0.0510    1.6680 c3        1 NWA      0.342600
      5 O7          1.9150    1.3500    2.1400 oh        1 NWA     -0.626800
      6 O8          1.6080   -0.9130    2.5040 oh        1 NWA     -0.626800
      7 C6          3.7440   -0.1540    1.6810 c3        1 NWA     -0.156100
      8 C8         -2.3250   -1.2070   -0.6030 c3        1 NWA      0.088433
      9 C9         -2.3250    0.0570   -2.6040 c3        1 NWA      0.088433
     10 C10        -2.3250    1.1570   -0.5080 c3        1 NWA      0.088433
     11 C4          1.6900   -0.1100    0.2230 c3        1 NWA     -0.054400
     12 H2C1       -0.0470   -0.7940   -1.6980 hx        1 NWA      0.094700
     13 H2C2       -0.0470    0.7990   -1.6980 hx        1 NWA      0.094700
     14 H3C1       -0.2350   -0.7570    0.7030 hc        1 NWA      0.086200
     15 H3C2       -0.1190    0.8330    0.6620 hc        1 NWA      0.086200
     16 H7          2.1420    1.4150    2.9960 ho        1 NWA      0.420000
     17 H8          1.8500   -0.7710    3.3460 ho        1 NWA      0.420000
     18 H6C1        4.0800   -0.0430    2.5900 hc        1 NWA      0.065033
     19 H6C2        3.9550   -1.0530    1.3640 hc        1 NWA      0.065033
     20 H6C3        4.1660    0.5040    1.0960 hc        1 NWA      0.065033
     21 H8C1       -2.2620   -1.1130    0.3670 hx        1 NWA      0.101811
     22 H8C2       -3.2550   -1.3580   -0.8550 hx        1 NWA      0.101811
     23 H8C3       -1.7820   -1.9650   -0.8920 hx        1 NWA      0.101811
     24 H9C1       -3.3010    0.0560   -2.6040 hx        1 NWA      0.101811
     25 H9C2       -1.9980   -0.7200   -3.0960 hx        1 NWA      0.101811
     26 H9C3       -2.0010    0.8730   -3.0310 hx        1 NWA      0.101811
     27 H101       -2.2760    0.9800    0.4510 hx        1 NWA      0.101811
     28 H102       -1.7730    1.9330   -0.7240 hx        1 NWA      0.101811
     29 H103       -3.2510    1.3370   -0.7590 hx        1 NWA      0.101811
     30 H4C1        1.9520   -0.9840   -0.1240 hc        1 NWA      0.066700
     31 H4C2        2.0670    0.5910   -0.3420 hc        1 NWA      0.066700
@<TRIPOS>BOND
     1    1    2 1   
     2    1    8 1   
     3    1    9 1   
     4    1   10 1   
     5    2    3 1   
     6    2   12 1   
     7    2   13 1   
     8    3   11 1   
     9    3   14 1   
    10    3   15 1   
    11    4    5 1   
    12    4    6 1   
    13    4    7 1   
    14    4   11 1   
    15    5   16 1   
    16    6   17 1   
    17    7   18 1   
    18    7   19 1   
    19    7   20 1   
    20    8   21 1   
    21    8   22 1   
    22    8   23 1   
    23    9   24 1   
    24    9   25 1   
    25    9   26 1   
    26   10   27 1   
    27   10   28 1   
    28   10   29 1   
    29   11   30 1   
    30   11   31 1   
@<TRIPOS>SUBSTRUCTURE
     1 NWA         1 TEMP              0 ****  ****    0 ROOT
