@<TRIPOS>MOLECULE
NWA
   31    30     1     0     0
SMALL
bcc


@<TRIPOS>ATOM
      1 N1         -0.0640   -0.0660   -0.0310 n4        1 NWA     -0.603800
      2 C2          1.4350    0.0600    0.1000 c3        1 NWA      0.113800
      3 C3          1.9530    0.1630    1.5280 c3        1 NWA     -0.100400
      4 C5          4.0360    0.0350    2.9390 c3        1 NWA      0.347600
      5 O7          3.4190   -1.0700    3.5760 oh        1 NWA     -0.629800
      6 O8          5.4120   -0.2760    2.9290 oh        1 NWA     -0.629800
      7 C6          3.8720    1.3360    3.7140 c3        1 NWA     -0.115100
      8 C8         -0.7480    1.0380    0.7040 c3        1 NWA      0.088433
      9 C9         -0.4180    0.0190   -1.4820 c3        1 NWA      0.088433
     10 C10        -0.5240   -1.3810    0.5050 c3        1 NWA      0.088433
     11 C4          3.4670    0.1070    1.5130 c3        1 NWA     -0.097400
     12 H2C1        1.8840   -0.8450   -0.4020 hx        1 NWA      0.098200
     13 H2C2        1.7430    0.9810   -0.4730 hx        1 NWA      0.098200
     14 H3C1        1.5700   -0.6810    2.1650 hc        1 NWA      0.076700
     15 H3C2        1.6200    1.1270    1.9970 hc        1 NWA      0.076700
     16 H7          3.7740   -1.1260    4.4740 ho        1 NWA      0.429000
     17 H8          5.5230   -1.1400    2.5110 ho        1 NWA      0.429000
     18 H6C1        4.4200    1.2680    4.6850 hc        1 NWA      0.062033
     19 H6C2        4.2970    2.1840    3.1270 hc        1 NWA      0.062033
     20 H6C3        2.7900    1.5160    3.9140 hc        1 NWA      0.062033
     21 H8C1       -0.5760    0.9160    1.8070 hx        1 NWA      0.102144
     22 H8C2       -0.3330    2.0230    0.3640 hx        1 NWA      0.102144
     23 H8C3       -1.8500    0.9990    0.4920 hx        1 NWA      0.102144
     24 H9C1       -0.1190    1.0240   -1.8810 hx        1 NWA      0.102144
     25 H9C2        0.1220   -0.7880   -2.0440 hx        1 NWA      0.102144
     26 H9C3       -1.5260   -0.1170   -1.6020 hx        1 NWA      0.102144
     27 H101       -1.6350   -1.4690    0.3640 hx        1 NWA      0.102144
     28 H102       -0.0080   -2.2100   -0.0480 hx        1 NWA      0.102144
     29 H103       -0.2800   -1.4510    1.5980 hx        1 NWA      0.102144
     30 H4C1        3.8120   -0.7990    0.9480 hc        1 NWA      0.067200
     31 H4C2        3.8960    1.0130    1.0140 hc        1 NWA      0.067200
@<TRIPOS>BOND
     1    1    2 1   
     2    1    8 1   
     3    1    9 1   
     4    1   10 1   
     5    2    3 1   
     6    2   12 1   
     7    2   13 1   
     8    3   11 1   
     9    3   14 1   
    10    3   15 1   
    11    4    5 1   
    12    4    6 1   
    13    4    7 1   
    14    4   11 1   
    15    5   16 1   
    16    6   17 1   
    17    7   18 1   
    18    7   19 1   
    19    7   20 1   
    20    8   21 1   
    21    8   22 1   
    22    8   23 1   
    23    9   24 1   
    24    9   25 1   
    25    9   26 1   
    26   10   27 1   
    27   10   28 1   
    28   10   29 1   
    29   11   30 1   
    30   11   31 1   
@<TRIPOS>SUBSTRUCTURE
     1 NWA         1 TEMP              0 ****  ****    0 ROOT
