@<TRIPOS>MOLECULE
NWB
   28    27     1     0     0
SMALL
bcc


@<TRIPOS>ATOM
      1 N1         -0.0320    0.0070    0.0030 n4        1 NWB     -0.603800
      2 C2          1.4720    0.0040    0.1300 c3        1 NWB      0.115800
      3 C3          1.9970   -0.0060    1.5570 c3        1 NWB     -0.100400
      4 C5          4.0610   -0.0080    2.9540 c         1 NWB      0.571100
      5 O7          3.3100   -0.0040    3.9330 o         1 NWB     -0.520100
      6 C6          5.5470   -0.0180    3.0530 c3        1 NWB     -0.202100
      7 C10        -0.6090    1.2240    0.6450 c3        1 NWB      0.087767
      8 C8         -0.3800    0.0120   -1.4520 c3        1 NWB      0.087767
      9 C14         3.5130   -0.0030    1.5460 c3        1 NWB     -0.193400
     10 C9         -0.6130   -1.2120    0.6380 c3        1 NWB      0.087767
     11 H2C1        1.8500    0.9240   -0.4030 hx        1 NWB      0.096700
     12 HA2         1.8480   -0.9090   -0.4150 hx        1 NWB      0.096700
     13 HA1         1.6430   -0.9150    2.1130 hc        1 NWB      0.079700
     14 HB2         1.6400    0.8930    2.1280 hc        1 NWB      0.079700
     15 H6C1        5.9550   -0.9390    2.5680 hc        1 NWB      0.078367
     16 H6C2        5.9720    0.8770    2.5350 hc        1 NWB      0.078367
     17 H63         5.8700   -0.0010    4.1240 hc        1 NWB      0.078367
     18 H101       -0.1260    2.1390    0.2110 hx        1 NWB      0.102922
     19 H102       -1.7150    1.2550    0.4530 hx        1 NWB      0.102922
     20 H103       -0.4260    1.1900    1.7520 hx        1 NWB      0.102922
     21 H8C1        0.0500    0.9290   -1.9350 hx        1 NWB      0.102922
     22 H8C2       -1.4960    0.0150   -1.5680 hx        1 NWB      0.102922
     23 H8C3        0.0450   -0.9060   -1.9400 hx        1 NWB      0.102922
     24 H141        3.9050   -0.9060    1.0070 hc        1 NWB      0.077700
     25 H142        3.9010    0.9060    1.0150 hc        1 NWB      0.077700
     26 H9C1       -1.7180   -1.2400    0.4440 hx        1 NWB      0.102922
     27 H9C2       -0.1300   -2.1260    0.2010 hx        1 NWB      0.102922
     28 H9C3       -0.4320   -1.1830    1.7460 hx        1 NWB      0.102922
@<TRIPOS>BOND
     1    1    2 1   
     2    1    7 1   
     3    1    8 1   
     4    1   10 1   
     5    2    3 1   
     6    2   11 1   
     7    2   12 1   
     8    3    9 1   
     9    3   13 1   
    10    3   14 1   
    11    4    5 2   
    12    4    6 1   
    13    4    9 1   
    14    6   15 1   
    15    6   16 1   
    16    6   17 1   
    17    7   18 1   
    18    7   19 1   
    19    7   20 1   
    20    8   21 1   
    21    8   22 1   
    22    8   23 1   
    23    9   24 1   
    24    9   25 1   
    25   10   26 1   
    26   10   27 1   
    27   10   28 1   
@<TRIPOS>SUBSTRUCTURE
     1 NWB         1 TEMP              0 ****  ****    0 ROOT
