@<TRIPOS>MOLECULE
NWB
   28    26     1     0     0
SMALL
bcc


@<TRIPOS>ATOM
      1 N1         -1.6220    0.0040   -0.9650 n4        1 NWB      0.029000
      2 C2         -0.1610   -0.0280   -0.9790 c3        1 NWB     -0.121000
      3 C3          0.3640   -0.0200    0.4800 c3        1 NWB     -0.179000
      4 C5          2.4420   -0.0200    1.9070 c1        1 NWB      0.232000
      5 O7          1.6670   -0.0100    2.8430 o         1 NWB     -0.281000
      6 C6          3.9460    0.0350    2.1580 c2        1 NWB     -0.270000
      7 C10        -2.1250   -0.0040   -2.3260 c3        1 NWB     -0.188333
      8 C8         -2.0680    1.2000   -0.2970 c3        1 NWB     -0.188333
      9 C14         1.9110   -0.0650    0.4700 c3        1 NWB     -0.222000
     10 C9         -2.1160   -1.1470   -0.2700 c3        1 NWB     -0.188333
     11 H2C1        0.1390   -0.8260   -1.4240 hx        1 NWB      0.136000
     12 HA2         0.1760    0.7490   -1.4490 hx        1 NWB      0.136000
     13 HA1         0.0600    0.8070    0.9390 hc        1 NWB      0.118500
     14 HB2         0.0170   -0.8010    0.9530 hc        1 NWB      0.118500
     15 H6C1        4.1140    0.2390    3.1070 ha        1 NWB      0.117667
     16 H6C2        4.3470    0.7370    1.5940 ha        1 NWB      0.117667
     17 H63         4.3460   -0.8320    1.9340 ha        1 NWB      0.117667
     18 H101       -1.7630    0.7710   -2.8130 hx        1 NWB      0.142222
     19 H102       -3.0880    0.0470   -2.3120 hx        1 NWB      0.142222
     20 H103       -1.8490   -0.8310   -2.7730 hx        1 NWB      0.142222
     21 H8C1       -1.4760    1.9450   -0.5330 hx        1 NWB      0.142222
     22 H8C2       -2.9910    1.4110   -0.5780 hx        1 NWB      0.142222
     23 H8C3       -2.0450    1.0620    0.6670 hx        1 NWB      0.142222
     24 H141        2.2590    0.7160   -0.0330 hc        1 NWB      0.117000
     25 H142        2.2140   -0.9000    0.0340 hc        1 NWB      0.117000
     26 H9C1       -3.0730   -1.2960   -0.5100 hx        1 NWB      0.142222
     27 H9C2       -2.0390   -1.0030    0.7020 hx        1 NWB      0.142222
     28 H9C3       -1.5860   -1.9380   -0.5280 hx        1 NWB      0.142222
@<TRIPOS>BOND
     1    1    2 1   
     2    1    7 1   
     3    1    8 1   
     4    1   10 1   
     5    2    3 1   
     6    2   11 1   
     7    2   12 1   
     8    3    9 1   
     9    3   13 1   
    10    3   14 1   
    11    4    5 1   
    12    4    9 1   
    13    6   15 1   
    14    6   16 1   
    15    6   17 1   
    16    7   18 1   
    17    7   19 1   
    18    7   20 1   
    19    8   21 1   
    20    8   22 1   
    21    8   23 1   
    22    9   24 1   
    23    9   25 1   
    24   10   26 1   
    25   10   27 1   
    26   10   28 1   
@<TRIPOS>SUBSTRUCTURE
     1 NWB         1 TEMP              0 ****  ****    0 ROOT
