@<TRIPOS>MOLECULE
NWB
   28    27     1     0     0
SMALL
bcc


@<TRIPOS>ATOM
      1 N1         -2.2150    0.0260   -0.0010 n4        1 NWB     -0.603800
      2 C2         -0.9130   -0.7400   -0.0000 c3        1 NWB      0.115800
      3 C3          0.3400    0.1210    0.0010 c3        1 NWB     -0.100400
      4 C5          2.8310    0.0670    0.0010 c         1 NWB      0.571100
      5 O7          2.7840    1.3000    0.0010 o         1 NWB     -0.520100
      6 C6          4.1010   -0.7110    0.0020 c3        1 NWB     -0.202100
      7 C10        -2.3170    0.8820   -1.2190 c3        1 NWB      0.087767
      8 C8         -3.3390   -0.9610   -0.0010 c3        1 NWB      0.087767
      9 C14         1.5700   -0.7650    0.0000 c3        1 NWB     -0.193400
     10 C9         -2.3180    0.8810    1.2180 c3        1 NWB      0.087767
     11 H2C1       -0.9170   -1.3980   -0.9170 hx        1 NWB      0.096700
     12 HA2        -0.9180   -1.3980    0.9160 hx        1 NWB      0.096700
     13 HA1         0.3750    0.7850    0.9050 hc        1 NWB      0.079700
     14 HB2         0.3750    0.7860   -0.9030 hc        1 NWB      0.079700
     15 H6C1        4.9840   -0.0230    0.0010 hc        1 NWB      0.078367
     16 H6C2        4.1510   -1.3600    0.9100 hc        1 NWB      0.078367
     17 H63         4.1510   -1.3610   -0.9060 hc        1 NWB      0.078367
     18 H101       -2.1740    0.2470   -2.1330 hx        1 NWB      0.102922
     19 H102       -3.3310    1.3630   -1.2490 hx        1 NWB      0.102922
     20 H103       -1.5290    1.6800   -1.1870 hx        1 NWB      0.102922
     21 H8C1       -3.2720   -1.6030    0.9160 hx        1 NWB      0.102922
     22 H8C2       -4.3170   -0.4100   -0.0010 hx        1 NWB      0.102922
     23 H8C3       -3.2710   -1.6030   -0.9190 hx        1 NWB      0.102922
     24 H141        1.5800   -1.4260   -0.9060 hc        1 NWB      0.077700
     25 H142        1.5790   -1.4270    0.9060 hc        1 NWB      0.077700
     26 H9C1       -1.5290    1.6800    1.1860 hx        1 NWB      0.102922
     27 H9C2       -3.3320    1.3630    1.2470 hx        1 NWB      0.102922
     28 H9C3       -2.1750    0.2460    2.1320 hx        1 NWB      0.102922
@<TRIPOS>BOND
     1    1    2 1   
     2    1    7 1   
     3    1    8 1   
     4    1   10 1   
     5    2    3 1   
     6    2   11 1   
     7    2   12 1   
     8    3    9 1   
     9    3   13 1   
    10    3   14 1   
    11    4    5 2   
    12    4    6 1   
    13    4    9 1   
    14    6   15 1   
    15    6   16 1   
    16    6   17 1   
    17    7   18 1   
    18    7   19 1   
    19    7   20 1   
    20    8   21 1   
    21    8   22 1   
    22    8   23 1   
    23    9   24 1   
    24    9   25 1   
    25   10   26 1   
    26   10   27 1   
    27   10   28 1   
@<TRIPOS>SUBSTRUCTURE
     1 NWB         1 TEMP              0 ****  ****    0 ROOT
