@<TRIPOS>MOLECULE
NWB
   28    27     1     0     0
SMALL
bcc


@<TRIPOS>ATOM
      1 N1         -0.0320   -0.0120    0.0020 n4        1 NWB     -0.603800
      2 C2          1.4730   -0.0060    0.1300 c3        1 NWB      0.115800
      3 C3          1.9960    0.0070    1.5580 c3        1 NWB     -0.100400
      4 C5          4.0600    0.0160    2.9550 c         1 NWB      0.571100
      5 O7          3.3080    0.0130    3.9330 o         1 NWB     -0.520100
      6 C6          5.5460    0.0290    3.0550 c3        1 NWB     -0.202100
      7 C10        -0.6150    1.2070    0.6360 c3        1 NWB      0.087767
      8 C8         -0.3780   -0.0180   -1.4530 c3        1 NWB      0.087767
      9 C14         3.5120    0.0070    1.5470 c3        1 NWB     -0.193400
     10 C9         -0.6070   -1.2300    0.6440 c3        1 NWB      0.087767
     11 H2C1        1.8520   -0.9260   -0.4010 hx        1 NWB      0.096700
     12 HA2         1.8470    0.9060   -0.4170 hx        1 NWB      0.096700
     13 HA1         1.6410    0.9170    2.1110 hc        1 NWB      0.079700
     14 HB2         1.6410   -0.8910    2.1290 hc        1 NWB      0.079700
     15 H6C1        5.9720   -0.8680    2.5420 hc        1 NWB      0.078367
     16 H6C2        5.9530    0.9480    2.5660 hc        1 NWB      0.078367
     17 H63         5.8680    0.0180    4.1260 hc        1 NWB      0.078367
     18 H101       -0.1320    2.1210    0.2000 hx        1 NWB      0.102922
     19 H102       -0.4350    1.1780    1.7440 hx        1 NWB      0.102922
     20 H103       -1.7200    1.2340    0.4400 hx        1 NWB      0.102922
     21 H8C1        0.0540   -0.9350   -1.9350 hx        1 NWB      0.102922
     22 H8C2        0.0440    0.9000   -1.9410 hx        1 NWB      0.102922
     23 H8C3       -1.4950   -0.0240   -1.5690 hx        1 NWB      0.102922
     24 H141        3.9030   -0.9020    1.0190 hc        1 NWB      0.077700
     25 H142        3.9030    0.9100    1.0060 hc        1 NWB      0.077700
     26 H9C1       -1.7130   -1.2620    0.4530 hx        1 NWB      0.102922
     27 H9C2       -0.1220   -2.1440    0.2110 hx        1 NWB      0.102922
     28 H9C3       -0.4230   -1.1950    1.7520 hx        1 NWB      0.102922
@<TRIPOS>BOND
     1    1    2 1   
     2    1    7 1   
     3    1    8 1   
     4    1   10 1   
     5    2    3 1   
     6    2   11 1   
     7    2   12 1   
     8    3    9 1   
     9    3   13 1   
    10    3   14 1   
    11    4    5 2   
    12    4    6 1   
    13    4    9 1   
    14    6   15 1   
    15    6   16 1   
    16    6   17 1   
    17    7   18 1   
    18    7   19 1   
    19    7   20 1   
    20    8   21 1   
    21    8   22 1   
    22    8   23 1   
    23    9   24 1   
    24    9   25 1   
    25   10   26 1   
    26   10   27 1   
    27   10   28 1   
@<TRIPOS>SUBSTRUCTURE
     1 NWB         1 TEMP              0 ****  ****    0 ROOT
