@<TRIPOS>MOLECULE
NWB
   28    27     1     0     0
SMALL
bcc


@<TRIPOS>ATOM
      1 N1         -0.0330    0.0000    0.0040 n4        1 NWB     -0.603800
      2 C2          1.4720    0.0000    0.1310 c3        1 NWB      0.115800
      3 C3          1.9970   -0.0000    1.5570 c3        1 NWB     -0.100400
      4 C5          4.0620    0.0010    2.9520 c         1 NWB      0.571100
      5 O7          3.3120    0.0020    3.9310 o         1 NWB     -0.520100
      6 C6          5.5490   -0.0010    3.0500 c3        1 NWB     -0.202100
      7 C10        -0.6120    1.2180    0.6430 c3        1 NWB      0.087767
      8 C8         -0.3810   -0.0000   -1.4500 c3        1 NWB      0.087767
      9 C14         3.5130    0.0000    1.5440 c3        1 NWB     -0.193400
     10 C9         -0.6120   -1.2180    0.6430 c3        1 NWB      0.087767
     11 H2C1        1.8480    0.9170   -0.4090 hx        1 NWB      0.096700
     12 HA2         1.8480   -0.9160   -0.4090 hx        1 NWB      0.096700
     13 HA1         1.6430   -0.9050    2.1200 hc        1 NWB      0.079700
     14 HB2         1.6420    0.9040    2.1210 hc        1 NWB      0.079700
     15 H6C1        5.9640   -0.9110    2.5510 hc        1 NWB      0.078367
     16 H6C2        5.9660    0.9050    2.5450 hc        1 NWB      0.078367
     17 H63         5.8720    0.0030    4.1210 hc        1 NWB      0.078367
     18 H101       -0.1280    2.1330    0.2070 hx        1 NWB      0.102922
     19 H102       -1.7170    1.2480    0.4510 hx        1 NWB      0.102922
     20 H103       -0.4280    1.1870    1.7510 hx        1 NWB      0.102922
     21 H8C1        0.0450    0.9170   -1.9360 hx        1 NWB      0.102922
     22 H8C2       -1.4980    0.0000   -1.5650 hx        1 NWB      0.102922
     23 H8C3        0.0450   -0.9180   -1.9360 hx        1 NWB      0.102922
     24 H141        3.9030   -0.9060    1.0100 hc        1 NWB      0.077700
     25 H142        3.9030    0.9060    1.0090 hc        1 NWB      0.077700
     26 H9C1       -1.7170   -1.2480    0.4510 hx        1 NWB      0.102922
     27 H9C2       -0.1280   -2.1330    0.2080 hx        1 NWB      0.102922
     28 H9C3       -0.4290   -1.1870    1.7510 hx        1 NWB      0.102922
@<TRIPOS>BOND
     1    1    2 1   
     2    1    7 1   
     3    1    8 1   
     4    1   10 1   
     5    2    3 1   
     6    2   11 1   
     7    2   12 1   
     8    3    9 1   
     9    3   13 1   
    10    3   14 1   
    11    4    5 2   
    12    4    6 1   
    13    4    9 1   
    14    6   15 1   
    15    6   16 1   
    16    6   17 1   
    17    7   18 1   
    18    7   19 1   
    19    7   20 1   
    20    8   21 1   
    21    8   22 1   
    22    8   23 1   
    23    9   24 1   
    24    9   25 1   
    25   10   26 1   
    26   10   27 1   
    27   10   28 1   
@<TRIPOS>SUBSTRUCTURE
     1 NWB         1 TEMP              0 ****  ****    0 ROOT
