@<TRIPOS>MOLECULE
NWD
   24    23     1     0     0
SMALL
bcc


@<TRIPOS>ATOM
      1 N1          0.1680   -0.4400    0.0290 n         1 NWD     -0.312000
      2 O1         -0.8510    0.8650    4.2210 o         1 NWD     -0.292700
      3 C2          1.6410   -0.4070    0.0380 c         1 NWD      0.795500
      4 N2         -0.5260   -0.2100    3.7420 n2        1 NWD      0.067000
      5 O2          2.2460   -0.4200   -0.9960 o         1 NWD     -0.609500
      6 N3          2.3630   -0.3170    1.3000 n         1 NWD     -0.595500
      7 O3         -0.8210   -1.3740    4.4070 os        1 NWD     -0.410000
      8 C4          1.6470   -0.2710    2.5300 c         1 NWD      0.743700
      9 O4          2.2500   -0.3370    3.5870 o         1 NWD     -0.598500
     10 C5          0.1850   -0.2550    2.5230 cc        1 NWD      0.083500
     11 C6         -0.5460   -0.3760    1.2430 cd        1 NWD      0.191600
     12 C7         -0.5370   -0.6770   -1.2060 c3        1 NWD      0.093000
     13 C8         -0.7680    0.6470   -1.9190 c3        1 NWD     -0.015500
     14 N8         -2.1400    0.8230   -2.1460 n3        1 NWD     -0.916800
     15 C9         -0.0190    0.6460   -3.2670 c         1 NWD      0.902600
     16 O91         0.7800    1.5940   -3.5510 o         1 NWD     -0.816300
     17 O92        -0.2520   -0.2640   -4.1210 o         1 NWD     -0.816300
     18 HN3         3.2650   -0.2980    1.3030 hn        1 NWD      0.348500
     19 H6         -1.5190   -0.3980    1.2380 h4        1 NWD      0.218000
     20 H7         -1.4060   -1.1030   -1.0110 h1        1 NWD      0.093700
     21 H7A        -0.0060   -1.2660   -1.7760 h1        1 NWD      0.093700
     22 H8         -0.4370    1.3710   -1.3660 h1        1 NWD      0.053700
     23 HN8        -2.4180    1.5920   -1.7440 hn        1 NWD      0.349800
     24 HN8A       -2.2980    0.8760   -3.0580 hn        1 NWD      0.349800
@<TRIPOS>BOND
     1    1    3 1   
     2    1   11 1   
     3    1   12 1   
     4    2    4 2   
     5    3    5 2   
     6    3    6 1   
     7    4   10 1   
     8    6    8 1   
     9    6   18 1   
    10    8    9 2   
    11    8   10 1   
    12   10   11 2   
    13   11   19 1   
    14   12   13 1   
    15   12   20 1   
    16   12   21 1   
    17   13   14 1   
    18   13   15 1   
    19   13   22 1   
    20   14   23 1   
    21   14   24 1   
    22   15   16 1   
    23   15   17 1   
@<TRIPOS>SUBSTRUCTURE
     1 NWD         1 TEMP              0 ****  ****    0 ROOT
