@<TRIPOS>MOLECULE
NWD
   24    24     1     0     0
SMALL
bcc


@<TRIPOS>ATOM
      1 N1         -0.1280   -0.2490   -0.6650 n         1 NWD     -0.309000
      2 O1          2.6560    2.6520    0.0350 o         1 NWD     -0.226000
      3 C2          0.2390   -1.6300   -0.5510 c         1 NWD      0.809500
      4 N2          3.0480    1.5160    0.1730 no        1 NWD      0.336100
      5 O2         -0.5700   -2.5440   -0.7980 o         1 NWD     -0.608500
      6 N3          1.5630   -1.9340   -0.1990 n         1 NWD     -0.591500
      7 O3          4.1850    1.2820    0.4760 o         1 NWD     -0.226000
      8 C4          2.5450   -0.9670    0.0840 c         1 NWD      0.743700
      9 O4          3.6770   -1.3550    0.4080 o         1 NWD     -0.594500
     10 C5          2.0990    0.4290   -0.0480 cc        1 NWD     -0.423300
     11 C6          0.7750    0.7180   -0.3700 cd        1 NWD      0.165600
     12 C7         -1.5450    0.0820   -0.8400 c3        1 NWD      0.083000
     13 C8         -2.3140    0.2700    0.4760 c3        1 NWD     -0.011500
     14 N8         -2.2500   -0.8980    1.3360 n3        1 NWD     -0.902800
     15 C9         -3.7600    0.7470    0.0750 c         1 NWD      0.900600
     16 O91        -4.7250    0.2740    0.7270 o         1 NWD     -0.821300
     17 O92        -3.8330    1.5870   -0.8620 o         1 NWD     -0.821300
     18 HN3         1.7910   -2.8980   -0.0860 hn        1 NWD      0.350500
     19 H6          0.4130    1.7720   -0.4200 h4        1 NWD      0.208000
     20 H7         -1.6180    1.0430   -1.4260 h1        1 NWD      0.097700
     21 H7A        -2.0120   -0.7480   -1.4430 h1        1 NWD      0.097700
     22 H8         -1.8560    1.1240    1.0540 h1        1 NWD      0.047700
     23 HN8        -2.9730   -0.8000    2.0310 hn        1 NWD      0.348300
     24 HN8A       -2.4720   -1.7170    0.7970 hn        1 NWD      0.348300
@<TRIPOS>BOND
     1    1    3 1   
     2    1   11 1   
     3    1   12 1   
     4    2    4 1   
     5    3    5 2   
     6    3    6 1   
     7    4    7 1   
     8    4   10 1   
     9    6    8 1   
    10    6   18 1   
    11    8    9 2   
    12    8   10 1   
    13   10   11 2   
    14   11   19 1   
    15   12   13 1   
    16   12   20 1   
    17   12   21 1   
    18   13   14 1   
    19   13   15 1   
    20   13   22 1   
    21   14   23 1   
    22   14   24 1   
    23   15   16 1   
    24   15   17 1   
@<TRIPOS>SUBSTRUCTURE
     1 NWD         1 TEMP              0 ****  ****    0 ROOT
