@<TRIPOS>MOLECULE
NWJ
   41    44     1     0     0
SMALL
bcc


@<TRIPOS>ATOM
      1 CAV        -0.0300   -0.2040   -0.2350 c         1 NWJ      0.575500
      2 OAE         1.1900   -0.2470   -0.3990 o         1 NWJ     -0.521100
      3 CAX        -0.6700   -0.0920    1.0870 ca        1 NWJ     -0.196600
      4 CAK        -2.0660   -0.0900    1.1820 ca        1 NWJ     -0.077000
      5 CAI         0.1080    0.0180    2.2460 ca        1 NWJ     -0.058000
      6 CAH        -0.5080    0.1320    3.4910 ca        1 NWJ     -0.141000
      7 CAJ        -1.8980    0.1330    3.5880 ca        1 NWJ     -0.070000
      8 CAY        -2.6870    0.0210    2.4330 ca        1 NWJ     -0.066800
      9 CBA        -4.1370    0.0290    2.5450 cc        1 NWJ      0.025700
     10 NAS        -4.9480   -0.7930    1.7430 na        1 NWJ     -0.280100
     11 CAZ        -4.9500    0.7970    3.3980 cd        1 NWJ      0.022100
     12 CAG        -4.5120    1.7670    4.3130 ch        1 NWJ      0.237500
     13 NAA        -4.1570    2.5780    5.0690 n1        1 NWJ     -0.377800
     14 C5         -6.3200    0.4360    3.1320 ca        1 NWJ     -0.333400
     15 C4         -6.2870   -0.5680    2.0830 ca        1 NWJ      0.497800
     16 N3         -7.3870   -1.1490    1.5290 nb        1 NWJ     -0.776000
     17 C2         -8.5750   -0.7040    2.0750 ca        1 NWJ      0.901900
     18 NAB        -9.7500   -1.3300    1.6410 nh        1 NWJ     -0.926500
     19 N1         -8.7210    0.2650    3.0730 nb        1 NWJ     -0.800000
     20 C6         -7.6100    0.8300    3.5970 ca        1 NWJ      0.714200
     21 NBF        -7.6700    1.8640    4.5880 nh        1 NWJ     -0.704300
     22 CAN        -8.8790    2.6950    4.6230 c3        1 NWJ      0.160300
     23 CAL        -9.6670    2.3920    5.9090 c3        1 NWJ     -0.099400
     24 CAM        -8.7330    1.5600    6.7800 c3        1 NWJ     -0.099400
     25 CAO        -7.4480    1.3660    5.9570 c3        1 NWJ      0.160300
     26 HAV        -0.7330   -0.2470   -1.0980 h4        1 NWJ      0.000200
     27 HAK        -2.6730   -0.1590    0.2650 ha        1 NWJ      0.136000
     28 HAI         1.2070    0.0140    2.1570 ha        1 NWJ      0.160000
     29 HAH         0.1040    0.2230    4.4010 ha        1 NWJ      0.147000
     30 HAJ        -2.3830    0.2240    4.5730 ha        1 NWJ      0.152000
     31 HAS        -4.6210   -1.4590    1.0920 hn        1 NWJ      0.316700
     32 HAB1       -9.6990   -1.8240    0.7800 hn        1 NWJ      0.428300
     33 HAB2      -10.6020   -0.8550    1.8280 hn        1 NWJ      0.428300
     34 HAN1       -8.5090    3.7580    4.6450 h1        1 NWJ      0.063200
     35 HAN2       -9.5260    2.5770    3.7160 h1        1 NWJ      0.063200
     36 HAO1       -7.1230    0.2930    5.9670 h1        1 NWJ      0.063200
     37 HAO2       -6.6160    1.9900    6.3880 h1        1 NWJ      0.063200
     38 HAL1      -10.6000    1.8250    5.6710 hc        1 NWJ      0.051700
     39 HAL2       -9.9610    3.3410    6.4170 hc        1 NWJ      0.051700
     40 HAM1       -9.1920    0.5730    7.0290 hc        1 NWJ      0.051700
     41 HAM2       -8.5000    2.0830    7.7390 hc        1 NWJ      0.051700
@<TRIPOS>BOND
     1    1    2 2   
     2    1    3 1   
     3    1   26 1   
     4    3    4 ar  
     5    3    5 ar  
     6    4    8 ar  
     7    4   27 1   
     8    5    6 ar  
     9    5   28 1   
    10    6    7 ar  
    11    6   29 1   
    12    7    8 ar  
    13    7   30 1   
    14    8    9 1   
    15    9   10 1   
    16    9   11 2   
    17   10   15 1   
    18   10   31 1   
    19   11   12 1   
    20   11   14 1   
    21   12   13 3   
    22   14   15 ar  
    23   14   20 ar  
    24   15   16 ar  
    25   16   17 ar  
    26   17   18 1   
    27   17   19 ar  
    28   18   32 1   
    29   18   33 1   
    30   19   20 ar  
    31   20   21 1   
    32   21   22 1   
    33   21   25 1   
    34   22   23 1   
    35   22   34 1   
    36   22   35 1   
    37   23   24 1   
    38   23   38 1   
    39   23   39 1   
    40   24   25 1   
    41   24   40 1   
    42   24   41 1   
    43   25   36 1   
    44   25   37 1   
@<TRIPOS>SUBSTRUCTURE
     1 NWJ         1 TEMP              0 ****  ****    0 ROOT
