@<TRIPOS>MOLECULE
NWJ
   41    44     1     0     0
SMALL
bcc


@<TRIPOS>ATOM
      1 CAV        -0.1050   -0.1980   -0.2320 c         1 NWJ      0.575500
      2 OAE         1.1150   -0.2170   -0.4070 o         1 NWJ     -0.521100
      3 CAX        -0.7340   -0.0790    1.0950 ca        1 NWJ     -0.196600
      4 CAK        -2.1280   -0.1110    1.2040 ca        1 NWJ     -0.076000
      5 CAI         0.0530    0.0740    2.2430 ca        1 NWJ     -0.058000
      6 CAH        -0.5540    0.1960    3.4920 ca        1 NWJ     -0.141000
      7 CAJ        -1.9420    0.1620    3.6040 ca        1 NWJ     -0.070000
      8 CAY        -2.7390    0.0070    2.4590 ca        1 NWJ     -0.066800
      9 CBA        -4.1880   -0.0200    2.5860 cc        1 NWJ      0.025700
     10 NAS        -4.9840   -0.8820    1.8130 na        1 NWJ     -0.279100
     11 CAZ        -5.0130    0.7440    3.4310 cd        1 NWJ      0.022100
     12 CAG        -4.5910    1.7440    4.3210 ch        1 NWJ      0.237500
     13 NAA        -4.2490    2.5800    5.0560 n1        1 NWJ     -0.377800
     14 C5         -6.3750    0.3440    3.1850 ca        1 NWJ     -0.333400
     15 C4         -6.3260   -0.6780    2.1530 ca        1 NWJ      0.497800
     16 N3         -7.4150   -1.3000    1.6230 nb        1 NWJ     -0.777000
     17 C2         -8.6120   -0.8440    2.1410 ca        1 NWJ      0.902900
     18 NAB        -9.7870   -1.3400    1.5640 nv        1 NWJ     -0.925500
     19 N1         -8.7700    0.1010    3.1600 nb        1 NWJ     -0.802000
     20 C6         -7.6700    0.7020    3.6660 ca        1 NWJ      0.716200
     21 NBF        -7.7480    1.7290    4.6620 nh        1 NWJ     -0.704300
     22 CAN        -8.9880    2.5110    4.7310 c3        1 NWJ      0.160300
     23 CAL        -9.7240    2.1790    6.0400 c3        1 NWJ     -0.099400
     24 CAM        -8.7330    1.3880    6.8830 c3        1 NWJ     -0.099400
     25 CAO        -7.4650    1.2440    6.0240 c3        1 NWJ      0.160300
     26 HAV        -0.8150   -0.2720   -1.0870 h4        1 NWJ      0.000200
     27 HAK        -2.7420   -0.2120    0.2950 ha        1 NWJ      0.137000
     28 HAI         1.1510    0.0980    2.1430 ha        1 NWJ      0.160000
     29 HAH         0.0650    0.3210    4.3940 ha        1 NWJ      0.147000
     30 HAJ        -2.4200    0.2610    4.5920 ha        1 NWJ      0.151000
     31 HAS        -4.6470   -1.5380    1.1560 hn        1 NWJ      0.316700
     32 HAB1      -10.6230   -1.2230    2.0880 hn        1 NWJ      0.427800
     33 HAB2       -9.7070   -2.1830    1.0450 hn        1 NWJ      0.427800
     34 HAN1       -9.6560    2.3650    3.8430 h1        1 NWJ      0.064200
     35 HAN2       -8.6600    3.5880    4.7410 h1        1 NWJ      0.064200
     36 HAO1       -6.6480    1.9020    6.4290 h1        1 NWJ      0.064200
     37 HAO2       -7.0960    0.1850    6.0250 h1        1 NWJ      0.064200
     38 HAL1      -10.6410    1.5750    5.8310 hc        1 NWJ      0.051450
     39 HAL2      -10.0400    3.1180    6.5550 hc        1 NWJ      0.051450
     40 HAM1       -9.1430    0.3830    7.1470 hc        1 NWJ      0.051450
     41 HAM2       -8.4920    1.9210    7.8350 hc        1 NWJ      0.051450
@<TRIPOS>BOND
     1    1    2 2   
     2    1    3 1   
     3    1   26 1   
     4    3    4 ar  
     5    3    5 ar  
     6    4    8 ar  
     7    4   27 1   
     8    5    6 ar  
     9    5   28 1   
    10    6    7 ar  
    11    6   29 1   
    12    7    8 ar  
    13    7   30 1   
    14    8    9 1   
    15    9   10 1   
    16    9   11 2   
    17   10   15 1   
    18   10   31 1   
    19   11   12 1   
    20   11   14 1   
    21   12   13 3   
    22   14   15 ar  
    23   14   20 ar  
    24   15   16 ar  
    25   16   17 ar  
    26   17   18 1   
    27   17   19 ar  
    28   18   32 1   
    29   18   33 1   
    30   19   20 ar  
    31   20   21 1   
    32   21   22 1   
    33   21   25 1   
    34   22   23 1   
    35   22   34 1   
    36   22   35 1   
    37   23   24 1   
    38   23   38 1   
    39   23   39 1   
    40   24   25 1   
    41   24   40 1   
    42   24   41 1   
    43   25   36 1   
    44   25   37 1   
@<TRIPOS>SUBSTRUCTURE
     1 NWJ         1 TEMP              0 ****  ****    0 ROOT
