@<TRIPOS>MOLECULE
NWL
   37    37     1     0     0
SMALL
bcc


@<TRIPOS>ATOM
      1 CAA        -1.3440    0.3350    2.7210 c2        1 NWL     -0.202000
      2 CAB         0.8310   -0.6620   -0.4330 c2        1 NWL     -0.063000
      3 CAC         1.8550   -0.2550    0.3480 c2        1 NWL     -0.175000
      4 CAD         3.0700    0.3860   -0.2840 c3        1 NWL      0.028000
      5 CAF         2.8020    2.3390    1.2860 c2        1 NWL      0.456000
      6 NAG         3.4900    1.6970    0.2150 n         1 NWL     -0.270000
      7 CAH         4.6360    2.2940   -0.3520 c2        1 NWL      0.355000
      8 NAI         5.3290    1.6460   -1.3410 nh        1 NWL     -0.366000
      9 NAJ         3.2000    3.6020    1.7040 n         1 NWL     -0.332000
     10 CAK         4.3070    4.2700    1.1740 c2        1 NWL      0.383000
     11 CAL         5.0520    3.5650    0.1180 c2        1 NWL     -0.444000
     12 NAM         6.2290    4.2670   -0.3570 n4        1 NWL      0.059000
     13 CAN         6.0160    4.9940   -1.6550 c3        1 NWL     -0.126000
     14 CAP         1.1030   -0.7730    2.8150 c3        1 NWL     -0.161000
     15 CAQ         2.0170   -0.5420    1.7200 c1        1 NWL      0.020000
     16 OAQ         4.6280    5.3900    1.6020 o         1 NWL     -0.299000
     17 CAR         7.2630    5.7210   -2.1090 c3        1 NWL     -0.262000
     18 CAS        -0.2120   -0.2570    2.7500 c1        1 NWL      0.184000
     19 HAA        -0.0350   -1.2050   -0.0250 ha        1 NWL      0.149500
     20 HAB        -2.3230   -0.1770    2.8860 ha        1 NWL      0.276000
     21 HAD         2.8670    0.5020   -1.3910 h1        1 NWL      0.124000
     22 HADA        3.9250   -0.3400   -0.1170 h1        1 NWL      0.124000
     23 HNAI        0.8230   -0.5330   -1.5280 ha        1 NWL      0.149500
     24 HNAA        6.0790    2.0920   -1.8100 hn        1 NWL      0.265500
     25 HNAJ        2.6800    4.0350    2.4470 hn        1 NWL      0.304000
     26 HNAM        5.6900    4.2450   -2.4290 hx        1 NWL      0.143000
     27 HAN         7.0240    3.6250   -0.4380 hn        1 NWL      0.260000
     28 HANA        5.1710    5.7260   -1.4900 hx        1 NWL      0.143000
     29 HAP         1.6090   -0.3640    3.7620 hc        1 NWL      0.248000
     30 HAQ         1.0830   -1.9080    2.9950 hc        1 NWL      0.248000
     31 HAR         8.1130    5.0200   -2.2940 hc        1 NWL      0.127000
     32 HARA        7.5840    6.4970   -1.3700 hc        1 NWL      0.127000
     33 HARB        7.0260    6.2440   -3.0720 hc        1 NWL      0.127000
     34 HAS        -1.4750    1.4300    2.5360 ha        1 NWL      0.276000
     35 HAI3        5.0960    0.7270   -1.6430 hn        1 NWL      0.265500
     36 HAM2        6.4720    4.9770    0.3640 hn        1 NWL      0.260000
     37 OAE         1.8270    1.7940    1.8570 o         1 NWL     -0.400000
@<TRIPOS>BOND
     1    1   18 1   
     2    1   20 1   
     3    1   34 1   
     4    2    3 1   
     5    2   19 1   
     6    2   23 1   
     7    3    4 1   
     8    3   15 1   
     9    4    6 1   
    10    4   21 1   
    11    4   22 1   
    12    5    6 1   
    13    5    9 1   
    14    5   37 1   
    15    6    7 1   
    16    7    8 1   
    17    7   11 1   
    18    8   24 1   
    19    8   35 1   
    20    9   10 1   
    21    9   25 1   
    22   10   11 1   
    23   10   16 1   
    24   11   12 1   
    25   12   13 1   
    26   12   27 1   
    27   12   36 1   
    28   13   17 1   
    29   13   26 1   
    30   13   28 1   
    31   14   15 1   
    32   14   18 1   
    33   14   29 1   
    34   14   30 1   
    35   17   31 1   
    36   17   32 1   
    37   17   33 1   
@<TRIPOS>SUBSTRUCTURE
     1 NWL         1 TEMP              0 ****  ****    0 ROOT
