@<TRIPOS>MOLECULE
NWL
   35    32     1     0     0
SMALL
bcc


@<TRIPOS>ATOM
      1 CAA        -3.7170   -2.1070    2.2170 c1        1 NWL     -0.069750
      2 CAB        -2.8760   -1.7850    1.1630 c1        1 NWL     -0.069750
      3 CAC        -1.5190   -2.0560    1.2510 c1        1 NWL     -0.095100
      4 CAD        -0.6180   -1.7890    0.0680 c3        1 NWL      0.184900
      5 OAE        -0.2130   -0.4700    2.4880 o         1 NWL     -0.608500
      6 CAF         0.0730    0.1490    1.4830 c1        1 NWL      0.640500
      7 NAG        -0.0790   -0.4780    0.1710 n2        1 NWL     -0.693900
      8 CAH         0.3810    0.1920   -0.9930 ce        1 NWL      0.691900
      9 NAI         0.3330   -0.4590   -2.2520 nh        1 NWL     -0.897800
     10 NAJ         0.5650    1.5210    1.5870 n         1 NWL     -0.511500
     11 CAK         1.0410    2.1930    0.4320 c         1 NWL      0.585800
     12 CAL         0.9670    1.5350   -0.8810 ce        1 NWL     -0.152000
     13 NAM         1.3890    2.2250   -2.0450 nh        1 NWL     -0.315100
     14 CAN         2.7740    2.4430   -2.2770 c3        1 NWL     -0.024700
     15 CAP        -1.8460   -2.9730    3.4460 c1        1 NWL     -0.069750
     16 CAQ        -1.0040   -2.6500    2.3930 c1        1 NWL     -0.046500
     17 OAQ         1.4630    3.3280    0.5190 o         1 NWL     -0.598100
     18 CAR         2.9590    3.1280   -3.6130 c3        1 NWL     -0.098100
     19 CAS        -3.2020   -2.7020    3.3580 c1        1 NWL     -0.069750
     20 HAA        -4.6720   -1.9160    2.1550 ha        1 NWL      0.078250
     21 HAB        -3.2390   -1.3670    0.3600 ha        1 NWL      0.078250
     22 HAD         0.1110   -2.4420    0.0590 h1        1 NWL      0.087700
     23 HADA       -1.1360   -1.8650   -0.7600 h1        1 NWL      0.087700
     24 HNAI        0.5890   -0.0120   -3.0070 hn        1 NWL      0.429300
     25 HNAA        0.0360   -1.3210   -2.3100 hn        1 NWL      0.429300
     26 HNAJ        0.6110    1.9280    2.4010 hn        1 NWL      0.354500
     27 HNAM        0.7760    2.4910   -2.6650 hn        1 NWL      0.223700
     28 HAN         3.1390    3.0090   -1.5670 h1        1 NWL      0.038700
     29 HANA        3.2440    1.5830   -2.2830 h1        1 NWL      0.038700
     30 HAP        -1.4830   -3.3910    4.2500 ha        1 NWL      0.078250
     31 HAQ        -0.0490   -2.8420    2.4550 ha        1 NWL      0.094500
     32 HAR         2.4120    3.9400   -3.6410 hc        1 NWL      0.039700
     33 HARA        3.9020    3.3640   -3.7310 hc        1 NWL      0.039700
     34 HARB        2.6820    2.5220   -4.3320 hc        1 NWL      0.039700
     35 HAS        -3.7940   -2.9290    4.0990 ha        1 NWL      0.078250
@<TRIPOS>BOND
     1    1    2 3   
     2    1   20 1   
     3    2   21 1   
     4    3    4 1   
     5    3   16 3   
     6    4    7 1   
     7    4   22 1   
     8    4   23 1   
     9    5    6 2   
    10    6   10 2   
    11    7    8 2   
    12    8    9 1   
    13    8   12 1   
    14    9   24 1   
    15    9   25 1   
    16   10   11 1   
    17   10   26 1   
    18   11   12 1   
    19   11   17 2   
    20   12   13 2   
    21   13   14 1   
    22   13   27 1   
    23   14   18 1   
    24   14   28 1   
    25   14   29 1   
    26   15   19 3   
    27   15   30 1   
    28   16   31 1   
    29   18   32 1   
    30   18   33 1   
    31   18   34 1   
    32   19   35 1   
@<TRIPOS>SUBSTRUCTURE
     1 NWL         1 TEMP              0 ****  ****    0 ROOT
