@<TRIPOS>MOLECULE
NWL
   37    37     1     0     0
SMALL
bcc


@<TRIPOS>ATOM
      1 CAA        -1.2970    0.3060    2.8690 c2        1 NWL     -0.202000
      2 CAB         0.7710   -0.6610   -0.3640 c2        1 NWL     -0.063000
      3 CAC         1.8210   -0.2620    0.3860 c2        1 NWL     -0.175000
      4 CAD         3.0140    0.3830   -0.2800 c3        1 NWL      0.028000
      5 CAF         2.8110    2.3170    1.3210 c2        1 NWL      0.456000
      6 NAG         3.4590    1.6850    0.2200 n         1 NWL     -0.270000
      7 CAH         4.5880    2.2850   -0.3790 c2        1 NWL      0.355000
      8 NAI         5.2420    1.6470   -1.3990 nh        1 NWL     -0.366000
      9 NAJ         3.2300    3.5720    1.7430 n         1 NWL     -0.332000
     10 CAK         4.3230    4.2400    1.1850 c2        1 NWL      0.383000
     11 CAL         5.0270    3.5470    0.0950 c2        1 NWL     -0.444000
     12 NAM         6.1910    4.2480   -0.4110 n4        1 NWL      0.059000
     13 CAN         5.9380    4.9950   -1.6900 c3        1 NWL     -0.126000
     14 CAP         1.1500   -0.8020    2.8720 c3        1 NWL     -0.161000
     15 CAQ         2.0280   -0.5620    1.7500 c1        1 NWL      0.020000
     16 OAQ         4.6650    5.3530    1.6170 o         1 NWL     -0.299000
     17 CAR         7.1730    5.7210   -2.1760 c3        1 NWL     -0.262000
     18 CAS        -0.1660   -0.2860    2.8550 c1        1 NWL      0.184000
     19 HAA        -0.0820   -1.2070    0.0680 ha        1 NWL      0.149500
     20 HAB        -2.2710   -0.2080    3.0610 ha        1 NWL      0.276000
     21 HAD         2.7730    0.5150   -1.3780 h1        1 NWL      0.124000
     22 HADA        3.8720   -0.3480   -0.1540 h1        1 NWL      0.124000
     23 HNAI        0.7270   -0.5220   -1.4560 ha        1 NWL      0.149500
     24 HNAA        5.9780    2.0960   -1.8890 hn        1 NWL      0.265500
     25 HNAJ        2.7380    3.9980    2.5090 hn        1 NWL      0.304000
     26 HNAM        5.5800    4.2590   -2.4630 hx        1 NWL      0.143000
     27 HAN         6.9790    3.6030   -0.5280 hn        1 NWL      0.260000
     28 HANA        5.1040    5.7300   -1.4850 hx        1 NWL      0.143000
     29 HAP         1.6880   -0.4020    3.8050 hc        1 NWL      0.248000
     30 HAQ         1.1370   -1.9390    3.0420 hc        1 NWL      0.248000
     31 HAR         8.0120    5.0180   -2.4010 hc        1 NWL      0.127000
     32 HARA        6.9060    6.2590   -3.1240 hc        1 NWL      0.127000
     33 HARB        7.5240    6.4840   -1.4380 hc        1 NWL      0.127000
     34 HAS        -1.4350    1.4030    2.6990 ha        1 NWL      0.276000
     35 HAI3        4.9930    0.7340   -1.7070 hn        1 NWL      0.265500
     36 HAM2        6.4630    4.9460    0.3110 hn        1 NWL      0.260000
     37 OAE         1.8510    1.7700    1.9180 o         1 NWL     -0.400000
@<TRIPOS>BOND
     1    1   18 1   
     2    1   20 1   
     3    1   34 1   
     4    2    3 1   
     5    2   19 1   
     6    2   23 1   
     7    3    4 1   
     8    3   15 1   
     9    4    6 1   
    10    4   21 1   
    11    4   22 1   
    12    5    6 1   
    13    5    9 1   
    14    5   37 1   
    15    6    7 1   
    16    7    8 1   
    17    7   11 1   
    18    8   24 1   
    19    8   35 1   
    20    9   10 1   
    21    9   25 1   
    22   10   11 1   
    23   10   16 1   
    24   11   12 1   
    25   12   13 1   
    26   12   27 1   
    27   12   36 1   
    28   13   17 1   
    29   13   26 1   
    30   13   28 1   
    31   14   15 1   
    32   14   18 1   
    33   14   29 1   
    34   14   30 1   
    35   17   31 1   
    36   17   32 1   
    37   17   33 1   
@<TRIPOS>SUBSTRUCTURE
     1 NWL         1 TEMP              0 ****  ****    0 ROOT
