@<TRIPOS>MOLECULE
NWL
   37    37     1     0     0
SMALL
bcc


@<TRIPOS>ATOM
      1 CAA        -1.3870    0.3760    2.6670 c2        1 NWL     -0.202000
      2 CAB         0.8310   -0.6600   -0.4440 c2        1 NWL     -0.063000
      3 CAC         1.8450   -0.2480    0.3470 c2        1 NWL     -0.175000
      4 CAD         3.0700    0.3820   -0.2730 c3        1 NWL      0.028000
      5 CAF         2.7870    2.3520    1.2730 c2        1 NWL      0.456000
      6 NAG         3.4890    1.6970    0.2200 n         1 NWL     -0.270000
      7 CAH         4.6450    2.2840   -0.3370 c2        1 NWL      0.355000
      8 NAI         5.3490    1.6240   -1.3090 nv        1 NWL     -0.366000
      9 NAJ         3.1840    3.6180    1.6850 ns        1 NWL     -0.332000
     10 CAK         4.3010    4.2760    1.1650 c2        1 NWL      0.383000
     11 CAL         5.0590    3.5580    0.1270 c2        1 NWL     -0.444000
     12 NAM         6.2460    4.2510   -0.3370 ny        1 NWL      0.059000
     13 CAN         6.0540    4.9660   -1.6450 c3        1 NWL     -0.126000
     14 CAP         1.0540   -0.7380    2.8080 c3        1 NWL     -0.161000
     15 CAQ         1.9850   -0.5220    1.7240 c1        1 NWL      0.020000
     16 OAQ         4.6200    5.3990    1.5870 o         1 NWL     -0.299000
     17 CAR         7.3110    5.6840   -2.0870 c3        1 NWL     -0.262000
     18 CAS        -0.2580   -0.2190    2.7190 c1        1 NWL      0.184000
     19 HAA        -0.0430   -1.1960   -0.0440 ha        1 NWL      0.149500
     20 HAB        -2.3700   -0.1320    2.8230 ha        1 NWL      0.276000
     21 HAD         2.8840    0.4890   -1.3840 h1        1 NWL      0.124000
     22 HADA        3.9200   -0.3450   -0.0870 h1        1 NWL      0.124000
     23 HNAI        0.8390   -0.5420   -1.5400 ha        1 NWL      0.149500
     24 HNAA        6.1080    2.0630   -1.7720 hn        1 NWL      0.265500
     25 HNAJ        2.6540    4.0600    2.4160 hn        1 NWL      0.304000
     26 HNAM        5.7370    4.2120   -2.4160 hx        1 NWL      0.143000
     27 HAN         7.0400    3.6050   -0.4000 hn        1 NWL      0.260000
     28 HANA        5.2110    5.7040   -1.4980 hx        1 NWL      0.143000
     29 HAP         1.5480   -0.3220    3.7580 hc        1 NWL      0.248000
     30 HAQ         1.0290   -1.8720    2.9990 hc        1 NWL      0.248000
     31 HAR         8.1610    4.9770   -2.2530 hc        1 NWL      0.127000
     32 HARA        7.6250    6.4650   -1.3510 hc        1 NWL      0.127000
     33 HARB        7.0900    6.1980   -3.0580 hc        1 NWL      0.127000
     34 HAS        -1.5120    1.4690    2.4690 ha        1 NWL      0.276000
     35 HAI3        5.1170    0.7040   -1.6070 hn        1 NWL      0.265500
     36 HAM2        6.4810    4.9660    0.3810 hn        1 NWL      0.260000
     37 OAE         1.8010    1.8160    1.8350 o         1 NWL     -0.400000
@<TRIPOS>BOND
     1    1   18 1   
     2    1   20 1   
     3    1   34 1   
     4    2    3 1   
     5    2   19 1   
     6    2   23 1   
     7    3    4 1   
     8    3   15 1   
     9    4    6 1   
    10    4   21 1   
    11    4   22 1   
    12    5    6 1   
    13    5    9 1   
    14    5   37 1   
    15    6    7 1   
    16    7    8 1   
    17    7   11 1   
    18    8   24 1   
    19    8   35 1   
    20    9   10 1   
    21    9   25 1   
    22   10   11 1   
    23   10   16 1   
    24   11   12 1   
    25   12   13 1   
    26   12   27 1   
    27   12   36 1   
    28   13   17 1   
    29   13   26 1   
    30   13   28 1   
    31   14   15 1   
    32   14   18 1   
    33   14   29 1   
    34   14   30 1   
    35   17   31 1   
    36   17   32 1   
    37   17   33 1   
@<TRIPOS>SUBSTRUCTURE
     1 NWL         1 TEMP              0 ****  ****    0 ROOT
