@<TRIPOS>MOLECULE
NWL
   35    36     1     0     0
SMALL
bcc


@<TRIPOS>ATOM
      1 CAA         3.8200   -2.1730    0.2860 ca        1 NWL     -0.128500
      2 CAB         3.0190   -1.5430   -0.6660 ca        1 NWL     -0.119000
      3 CAC         2.4600   -0.2900   -0.3920 ca        1 NWL     -0.129300
      4 CAD         1.6410    0.4150   -1.4340 c3        1 NWL      0.131300
      5 CAF        -0.0410    2.0700   -0.7360 c         1 NWL      0.816500
      6 NAG         0.2790    0.7190   -1.0320 n         1 NWL     -0.390000
      7 CAH        -0.7030   -0.2910   -0.9320 cc        1 NWL      0.348600
      8 NAI        -0.3470   -1.6030   -1.2350 nh        1 NWL     -0.834600
      9 NAJ        -1.3660    2.4090   -0.4670 n         1 NWL     -0.579500
     10 CAK        -2.3980    1.4580   -0.4080 c         1 NWL      0.711700
     11 CAL        -2.0230    0.0500   -0.5980 cd        1 NWL     -0.221200
     12 NAM        -3.0170   -0.9600   -0.4690 nh        1 NWL     -0.676000
     13 CAN        -3.4920   -1.1330    0.8990 c3        1 NWL      0.153800
     14 CAP         3.5100   -0.3050    1.7880 ca        1 NWL     -0.128500
     15 CAQ         2.7130    0.3300    0.8360 ca        1 NWL     -0.119000
     16 OAQ        -3.5550    1.8620   -0.1880 o         1 NWL     -0.635500
     17 CAR        -4.6870   -2.0670    0.9940 c3        1 NWL     -0.097100
     18 CAS         4.0630   -1.5570    1.5140 ca        1 NWL     -0.119000
     19 HAA         4.2630   -3.1550    0.0660 ha        1 NWL      0.137500
     20 HAB         2.8420   -2.0280   -1.6380 ha        1 NWL      0.142500
     21 HAD         2.1580    1.3920   -1.6820 h1        1 NWL      0.087700
     22 HADA        1.6050   -0.1990   -2.3820 h1        1 NWL      0.087700
     23 HNAI        0.5810   -1.8920   -1.0180 hn        1 NWL      0.434300
     24 HNAA       -1.0560   -2.2840   -1.0710 hn        1 NWL      0.434300
     25 HNAJ       -1.5680    3.3740   -0.3090 hn        1 NWL      0.354500
     26 HNAM       -3.7900   -0.7340   -1.0730 hn        1 NWL      0.375800
     27 HAN        -2.6380   -1.5630    1.4950 h1        1 NWL      0.038700
     28 HANA       -3.7700   -0.1440    1.3710 h1        1 NWL      0.038700
     29 HAP         3.7060    0.1850    2.7530 ha        1 NWL      0.137500
     30 HAQ         2.2880    1.3260    1.0390 ha        1 NWL      0.142500
     31 HAR        -5.5660   -1.6500    0.4460 hc        1 NWL      0.039367
     32 HARA       -4.4510   -3.0730    0.5730 hc        1 NWL      0.039367
     33 HARB       -4.9640   -2.1870    2.0690 hc        1 NWL      0.039367
     34 HAS         4.6930   -2.0560    2.2650 ha        1 NWL      0.136000
     35 OAE         0.8550    2.9450   -0.7260 o         1 NWL     -0.651500
@<TRIPOS>BOND
     1    1    2 ar  
     2    1   18 ar  
     3    1   19 1   
     4    2    3 ar  
     5    2   20 1   
     6    3    4 1   
     7    3   15 ar  
     8    4    6 1   
     9    4   21 1   
    10    4   22 1   
    11    5    6 1   
    12    5    9 1   
    13    5   35 2   
    14    6    7 1   
    15    7    8 1   
    16    7   11 2   
    17    8   23 1   
    18    8   24 1   
    19    9   10 1   
    20    9   25 1   
    21   10   11 1   
    22   10   16 2   
    23   11   12 1   
    24   12   13 1   
    25   12   26 1   
    26   13   17 1   
    27   13   27 1   
    28   13   28 1   
    29   14   15 ar  
    30   14   18 ar  
    31   14   29 1   
    32   15   30 1   
    33   17   31 1   
    34   17   32 1   
    35   17   33 1   
    36   18   34 1   
@<TRIPOS>SUBSTRUCTURE
     1 NWL         1 TEMP              0 ****  ****    0 ROOT
