@<TRIPOS>MOLECULE
NWM
   93    93     1     0     0
SMALL
bcc


@<TRIPOS>ATOM
      1 C01         0.0080   -2.0170    0.9720 ca        1 NWM     -0.117000
      2 C02         1.3940   -2.1460    0.8800 ca        1 NWM     -0.131000
      3 C03         2.2210   -1.0620    1.1710 ca        1 NWM     -0.127000
      4 C04         1.6590    0.1560    1.5570 ca        1 NWM     -0.131000
      5 C05         0.2760    0.2890    1.6530 ca        1 NWM     -0.117000
      6 C06        -0.5570   -0.7990    1.3590 ca        1 NWM     -0.089300
      7 C07        -2.0340   -0.6070    1.4500 c3        1 NWM      0.176700
      8 O08        -2.6720   -1.8850    1.4610 os        1 NWM     -0.426600
      9 C09        -4.0920   -1.7660    1.5320 c3        1 NWM      0.131400
     10 C10        -4.6350   -3.1830    1.6150 c3        1 NWM     -0.099400
     11 C11        -6.1490   -3.1910    1.4460 c3        1 NWM      0.145100
     12 O01        -6.4320   -2.9810    0.0430 os        1 NWM     -0.456900
     13 C13        -6.8750   -1.7530   -0.3650 c         1 NWM      0.632100
     14 O02        -7.0550   -0.8690    0.4740 o         1 NWM     -0.538000
     15 C15        -7.0990   -1.6920   -1.8470 c3        1 NWM     -0.126400
     16 C16        -6.4830   -0.4470   -2.4340 c3        1 NWM     -0.096100
     17 C25        -6.7770   -4.5490    1.7940 c3        1 NWM     -0.060700
     18 C18        -6.3820   -4.9980    3.1840 c3        1 NWM     -0.084100
     19 C26        -8.3090   -4.4500    1.6590 c3        1 NWM      0.147100
     20 O11        -8.7920   -3.9100    2.8810 oh        1 NWM     -0.591800
     21 C27        -8.9420   -5.8230    1.3690 c3        1 NWM     -0.096700
     22 C39       -10.4100   -5.8330    1.7400 c3        1 NWM     -0.097100
     23 C28        -8.7590   -6.1770   -0.1010 c3        1 NWM     -0.078400
     24 C29        -8.7290   -7.6770   -0.3110 c3        1 NWM     -0.175400
     25 C30        -8.7130   -8.0460   -1.7660 c         1 NWM      0.581100
     26 O12        -9.2550   -7.3670   -2.6420 o         1 NWM     -0.524100
     27 C31        -7.9900   -9.3420   -2.0900 c3        1 NWM     -0.174700
     28 C40        -6.5040   -9.0570   -2.1920 c3        1 NWM     -0.095100
     29 C32        -8.5090   -9.9610   -3.3970 c3        1 NWM      0.161100
     30 O13        -9.9430   -9.8820   -3.3470 os        1 NWM     -0.476900
     31 C44       -10.6000   -9.3890   -4.4580 c         1 NWM      0.650100
     32 O32       -10.0210   -9.4570   -5.5400 o         1 NWM     -0.523000
     33 C08       -11.9540   -8.8670   -4.1390 c3        1 NWM     -0.152100
     34 C33        -8.0780  -11.4310   -3.5590 c3        1 NWM     -0.075700
     35 C41        -7.8710  -11.7430   -5.0280 c3        1 NWM     -0.111100
     36 C34        -9.1080  -12.3630   -2.9310 c3        1 NWM     -0.094400
     37 C35        -8.4880  -13.7260   -2.6590 c3        1 NWM      0.105800
     38 N5         -9.4590  -14.7890   -2.2310 nx        1 NWM     -0.613200
     39 C43       -10.2930  -14.3660   -1.0810 c3        1 NWM      0.083100
     40 C42       -10.3400  -15.1960   -3.3920 c         1 NWM      0.547900
     41 O14       -10.2350  -16.3360   -3.7970 o         1 NWM     -0.378100
     42 H011       -0.6470   -2.8720    0.7480 ha        1 NWM      0.138000
     43 H021        1.8340   -3.1080    0.5780 ha        1 NWM      0.131500
     44 H031        3.3130   -1.1650    1.0970 ha        1 NWM      0.132000
     45 H041        2.3090    1.0130    1.7880 ha        1 NWM      0.131500
     46 H051       -0.1650    1.2480    1.9620 ha        1 NWM      0.138000
     47 H071       -2.3010   -0.0510    2.3900 h1        1 NWM      0.038700
     48 H072       -2.4000   -0.0180    0.5630 h1        1 NWM      0.038700
     49 H092       -4.3830   -1.1690    2.4370 h1        1 NWM      0.035700
     50 H091       -4.4760   -1.2440    0.6140 h1        1 NWM      0.035700
     51 H101       -4.3610   -3.6160    2.6110 hc        1 NWM      0.067200
     52 H102       -4.1600   -3.8140    0.8210 hc        1 NWM      0.067200
     53 H111       -6.6270   -2.3830    2.0680 h1        1 NWM      0.095700
     54 H151       -6.6730   -2.6090   -2.3320 hc        1 NWM      0.074700
     55 H152       -8.2100   -1.6940   -2.0150 hc        1 NWM      0.074700
     56 H163       -5.3700   -0.4770   -2.3450 hc        1 NWM      0.051700
     57 H162       -6.8550    0.4620   -1.9020 hc        1 NWM      0.051700
     58 H161       -6.7510   -0.3680   -3.5150 hc        1 NWM      0.051700
     59 H251       -6.4130   -5.3020    1.0410 hc        1 NWM      0.055700
     60 H183       -7.0560   -5.8210    3.5260 hc        1 NWM      0.044700
     61 H182       -5.3310   -5.3730    3.1960 hc        1 NWM      0.044700
     62 H181       -6.4800   -4.1530    3.9090 hc        1 NWM      0.044700
     63 H261       -8.5620   -3.7520    0.8110 h1        1 NWM      0.042700
     64 H112       -9.6860   -3.5890    2.7120 ho        1 NWM      0.405000
     65 H271       -8.4130   -6.5890    2.0030 hc        1 NWM      0.055700
     66 H392      -10.9520   -5.0020    1.2260 hc        1 NWM      0.039367
     67 H393      -10.8810   -6.7990    1.4380 hc        1 NWM      0.039367
     68 H391      -10.5320   -5.7110    2.8440 hc        1 NWM      0.039367
     69 H281       -7.8040   -5.7340   -0.4890 hc        1 NWM      0.062700
     70 H282       -9.5940   -5.7330   -0.7070 hc        1 NWM      0.062700
     71 H292       -9.6430   -8.1450    0.1460 hc        1 NWM      0.065200
     72 H291       -7.8320   -8.1140    0.2020 hc        1 NWM      0.065200
     73 H311       -8.1820  -10.0630   -1.2480 hc        1 NWM      0.054700
     74 H403       -5.9280   -9.9980   -2.3650 hc        1 NWM      0.053700
     75 H402       -6.2960   -8.3540   -3.0340 hc        1 NWM      0.053700
     76 H401       -6.1360   -8.5920   -1.2440 hc        1 NWM      0.053700
     77 H321       -8.1240   -9.3590   -4.2710 h1        1 NWM      0.107700
     78 H332      -12.5770   -8.8510   -5.0660 hc        1 NWM      0.085367
     79 H333      -12.4480   -9.4880   -3.3560 hc        1 NWM      0.085367
     80 H331      -11.8360   -7.8220   -3.7510 hc        1 NWM      0.085367
     81 H334       -7.0970  -11.5620   -3.0200 hc        1 NWM      0.062700
     82 H412       -7.6500  -12.8250   -5.1850 hc        1 NWM      0.055033
     83 H413       -7.0100  -11.1500   -5.4240 hc        1 NWM      0.055033
     84 H411       -8.7790  -11.4640   -5.6190 hc        1 NWM      0.055033
     85 H341       -9.4730  -11.9080   -1.9700 hc        1 NWM      0.068200
     86 H1         -9.9870  -12.4420   -3.6230 hc        1 NWM      0.068200
     87 H351       -7.7200  -13.6280   -1.8370 hx        1 NWM      0.107200
     88 H2         -7.9710  -14.1110   -3.5870 hx        1 NWM      0.107200
     89 H431      -10.9640  -13.5200   -1.3860 hx        1 NWM      0.108033
     90 H432      -10.9130  -15.2360   -0.7330 hx        1 NWM      0.108033
     91 H433       -9.6260  -14.0230   -0.2440 hx        1 NWM      0.108033
     92 H421      -10.9990  -14.3750   -3.7480 hx        1 NWM      0.136200
     93 H51        -8.9010  -15.6090   -1.9400 hn        1 NWM      0.460800
@<TRIPOS>BOND
     1    1    2 ar  
     2    1    6 ar  
     3    1   42 1   
     4    2    3 ar  
     5    2   43 1   
     6    3    4 ar  
     7    3   44 1   
     8    4    5 ar  
     9    4   45 1   
    10    5    6 ar  
    11    5   46 1   
    12    6    7 1   
    13    7    8 1   
    14    7   47 1   
    15    7   48 1   
    16    8    9 1   
    17    9   10 1   
    18    9   49 1   
    19    9   50 1   
    20   10   11 1   
    21   10   51 1   
    22   10   52 1   
    23   11   12 1   
    24   11   17 1   
    25   11   53 1   
    26   12   13 1   
    27   13   14 2   
    28   13   15 1   
    29   15   16 1   
    30   15   54 1   
    31   15   55 1   
    32   16   56 1   
    33   16   57 1   
    34   16   58 1   
    35   17   18 1   
    36   17   19 1   
    37   17   59 1   
    38   18   60 1   
    39   18   61 1   
    40   18   62 1   
    41   19   20 1   
    42   19   21 1   
    43   19   63 1   
    44   20   64 1   
    45   21   22 1   
    46   21   23 1   
    47   21   65 1   
    48   22   66 1   
    49   22   67 1   
    50   22   68 1   
    51   23   24 1   
    52   23   69 1   
    53   23   70 1   
    54   24   25 1   
    55   24   71 1   
    56   24   72 1   
    57   25   26 2   
    58   25   27 1   
    59   27   28 1   
    60   27   29 1   
    61   27   73 1   
    62   28   74 1   
    63   28   75 1   
    64   28   76 1   
    65   29   30 1   
    66   29   34 1   
    67   29   77 1   
    68   30   31 1   
    69   31   32 2   
    70   31   33 1   
    71   33   78 1   
    72   33   79 1   
    73   33   80 1   
    74   34   35 1   
    75   34   36 1   
    76   34   81 1   
    77   35   82 1   
    78   35   83 1   
    79   35   84 1   
    80   36   37 1   
    81   36   85 1   
    82   36   86 1   
    83   37   38 1   
    84   37   87 1   
    85   37   88 1   
    86   38   39 1   
    87   38   40 1   
    88   38   93 1   
    89   39   89 1   
    90   39   90 1   
    91   39   91 1   
    92   40   41 2   
    93   40   92 1   
@<TRIPOS>SUBSTRUCTURE
     1 NWM         1 TEMP              0 ****  ****    0 ROOT
