@<TRIPOS>MOLECULE
NWM
   92    92     1     0     0
SMALL
bcc


@<TRIPOS>ATOM
      1 C01         0.1090   -1.9790    1.8050 ca        1 NWM     -0.116500
      2 C02         1.4850   -2.1110    1.9900 ca        1 NWM     -0.132000
      3 C03         2.2750   -0.9830    2.2040 ca        1 NWM     -0.130000
      4 C04         1.6870    0.2820    2.2350 ca        1 NWM     -0.132000
      5 C05         0.3120    0.4180    2.0530 ca        1 NWM     -0.116500
      6 C06        -0.4830   -0.7140    1.8350 ca        1 NWM     -0.087300
      7 C07        -1.9480   -0.5210    1.6240 c3        1 NWM      0.176700
      8 O08        -2.6050   -1.7860    1.7110 os        1 NWM     -0.425600
      9 C09        -4.0120   -1.6650    1.5040 c3        1 NWM      0.131400
     10 C10        -4.5910   -3.0610    1.6570 c3        1 NWM     -0.098400
     11 C11        -6.0680   -3.0740    1.2880 c3        1 NWM      0.147100
     12 O01        -6.1620   -2.9700   -0.1520 os        1 NWM     -0.450900
     13 C13        -6.5260   -1.7770   -0.7100 c         1 NWM      0.633100
     14 O02        -6.7430   -0.8100    0.0230 o         1 NWM     -0.548000
     15 C15        -6.6200   -1.8560   -2.2040 c3        1 NWM     -0.128400
     16 C16        -6.0040   -0.6430   -2.8530 c3        1 NWM     -0.094100
     17 C25        -6.7620   -4.3990    1.6410 c3        1 NWM     -0.061700
     18 C18        -6.5110   -4.7900    3.0810 c3        1 NWM     -0.083100
     19 C26        -8.2700   -4.2700    1.3570 c3        1 NWM      0.146100
     20 O11        -8.8490   -3.6540    2.5000 oh        1 NWM     -0.597800
     21 C27        -8.9100   -5.6380    1.0600 c3        1 NWM     -0.096700
     22 C39       -10.4010   -5.6130    1.3200 c3        1 NWM     -0.097100
     23 C28        -8.6240   -6.0310   -0.3830 c3        1 NWM     -0.077400
     24 C29        -8.6800   -7.5300   -0.5820 c3        1 NWM     -0.178400
     25 C30        -8.4910   -7.9270   -2.0180 c         1 NWM      0.572100
     26 O12        -8.4990   -7.1170   -2.9490 o         1 NWM     -0.525100
     27 C31        -8.2780   -9.4130   -2.2380 c3        1 NWM     -0.171700
     28 C40        -6.7890   -9.6830   -2.3000 c3        1 NWM     -0.088100
     29 C32        -8.9950   -9.8770   -3.5140 c3        1 NWM      0.155100
     30 O13       -10.4020   -9.7610   -3.2160 os        1 NWM     -0.452900
     31 C44       -11.2410   -9.2740   -4.1850 c         1 NWM      0.638100
     32 O32       -10.7910   -9.0310   -5.3050 o         1 NWM     -0.534000
     33 C08       -12.6400   -9.1170   -3.6960 c3        1 NWM     -0.151100
     34 C33        -8.6750  -11.3230   -3.9150 c3        1 NWM     -0.074700
     35 C41        -9.3110  -11.6360   -5.2550 c3        1 NWM     -0.098100
     36 C34        -9.1100  -12.3060   -2.8410 c3        1 NWM     -0.104400
     37 C35        -8.7770  -13.7480   -3.2340 c3        1 NWM      0.093000
     38 N5         -8.9700  -14.7230   -2.1880 n         1 NWM     -0.487800
     39 C43        -7.9030  -14.9030   -1.2450 c3        1 NWM      0.072300
     40 C42       -10.2210  -15.2700   -1.9730 c         1 NWM      0.657900
     41 O14       -10.4760  -16.0200   -1.0160 o         1 NWM     -0.602100
     42 H011       -0.5190   -2.8690    1.6390 ha        1 NWM      0.139500
     43 H021        1.9460   -3.1100    1.9670 ha        1 NWM      0.130000
     44 H031        3.3600   -1.0880    2.3490 ha        1 NWM      0.130000
     45 H041        2.3080    1.1740    2.4050 ha        1 NWM      0.130000
     46 H051       -0.1500    1.4150    2.0810 ha        1 NWM      0.139500
     47 H071       -2.3690    0.1710    2.4050 h1        1 NWM      0.037700
     48 H072       -2.1330   -0.0760    0.6070 h1        1 NWM      0.037700
     49 H092       -4.4510   -0.9620    2.2610 h1        1 NWM      0.034700
     50 H091       -4.2130   -1.2600    0.4750 h1        1 NWM      0.034700
     51 H101       -4.0280   -3.7760    1.0030 hc        1 NWM      0.067700
     52 H102       -4.4630   -3.3900    2.7200 hc        1 NWM      0.067700
     53 H111       -6.6110   -2.2180    1.7780 h1        1 NWM      0.091700
     54 H151       -6.1210   -2.7940   -2.5650 hc        1 NWM      0.079200
     55 H152       -7.7110   -1.9260   -2.4630 hc        1 NWM      0.079200
     56 H163       -6.4480    0.2930   -2.4340 hc        1 NWM      0.048700
     57 H162       -6.1880   -0.6700   -3.9540 hc        1 NWM      0.048700
     58 H161       -4.9010   -0.6180   -2.6770 hc        1 NWM      0.048700
     59 H251       -6.3510   -5.1960    0.9610 hc        1 NWM      0.064700
     60 H183       -5.4710   -5.1760    3.2110 hc        1 NWM      0.043367
     61 H182       -6.6660   -3.9150    3.7570 hc        1 NWM      0.043367
     62 H181       -7.2260   -5.5910    3.3870 hc        1 NWM      0.043367
     63 H261       -8.4210   -3.6020    0.4590 h1        1 NWM      0.039700
     64 H112       -9.7380   -3.3770    2.2480 ho        1 NWM      0.402000
     65 H271       -8.4450   -6.3980    1.7490 hc        1 NWM      0.057700
     66 H392      -10.8640   -6.5810    1.0120 hc        1 NWM      0.038367
     67 H393      -10.8890   -4.7910    0.7430 hc        1 NWM      0.038367
     68 H391      -10.6040   -5.4570    2.4080 hc        1 NWM      0.038367
     69 H281       -9.3670   -5.5380   -1.0650 hc        1 NWM      0.059200
     70 H282       -7.6100   -5.6610   -0.6910 hc        1 NWM      0.059200
     71 H292       -9.6730   -7.9310   -0.2420 hc        1 NWM      0.068200
     72 H291       -7.8870   -8.0310    0.0370 hc        1 NWM      0.068200
     73 H311       -8.7230   -9.9660   -1.3630 hc        1 NWM      0.075700
     74 H403       -6.5870  -10.7780   -2.2150 hc        1 NWM      0.047033
     75 H402       -6.3610   -9.3090   -3.2610 hc        1 NWM      0.047033
     76 H401       -6.2710   -9.1670   -1.4550 hc        1 NWM      0.047033
     77 H321       -8.7280   -9.1840   -4.3640 h1        1 NWM      0.099700
     78 H332      -13.3390   -9.5680   -4.4420 hc        1 NWM      0.076367
     79 H333      -12.8630   -8.0250   -3.6000 hc        1 NWM      0.076367
     80 H331      -12.7780   -9.6110   -2.7040 hc        1 NWM      0.076367
     81 H334       -7.5560  -11.3890   -4.0380 hc        1 NWM      0.057700
     82 H412       -9.1090  -10.8120   -5.9840 hc        1 NWM      0.044033
     83 H413      -10.4180  -11.7330   -5.1460 hc        1 NWM      0.044033
     84 H411       -8.9020  -12.5880   -5.6700 hc        1 NWM      0.044033
     85 H341      -10.2120  -12.2020   -2.6670 hc        1 NWM      0.052200
     86 H1         -8.5910  -12.0500   -1.8790 hc        1 NWM      0.052200
     87 H351       -7.6990  -13.7960   -3.5620 h1        1 NWM      0.052200
     88 H2         -9.4160  -14.0390   -4.1170 h1        1 NWM      0.052200
     89 H431       -6.9820  -15.2590   -1.7800 h1        1 NWM      0.044700
     90 H432       -7.6630  -13.9360   -0.7260 h1        1 NWM      0.044700
     91 H433       -8.1990  -15.6660   -0.4770 h1        1 NWM      0.044700
     92 H421      -10.9760  -15.0080   -2.7510 h5        1 NWM      0.029200
@<TRIPOS>BOND
     1    1    2 ar  
     2    1    6 ar  
     3    1   42 1   
     4    2    3 ar  
     5    2   43 1   
     6    3    4 ar  
     7    3   44 1   
     8    4    5 ar  
     9    4   45 1   
    10    5    6 ar  
    11    5   46 1   
    12    6    7 1   
    13    7    8 1   
    14    7   47 1   
    15    7   48 1   
    16    8    9 1   
    17    9   10 1   
    18    9   49 1   
    19    9   50 1   
    20   10   11 1   
    21   10   51 1   
    22   10   52 1   
    23   11   12 1   
    24   11   17 1   
    25   11   53 1   
    26   12   13 1   
    27   13   14 2   
    28   13   15 1   
    29   15   16 1   
    30   15   54 1   
    31   15   55 1   
    32   16   56 1   
    33   16   57 1   
    34   16   58 1   
    35   17   18 1   
    36   17   19 1   
    37   17   59 1   
    38   18   60 1   
    39   18   61 1   
    40   18   62 1   
    41   19   20 1   
    42   19   21 1   
    43   19   63 1   
    44   20   64 1   
    45   21   22 1   
    46   21   23 1   
    47   21   65 1   
    48   22   66 1   
    49   22   67 1   
    50   22   68 1   
    51   23   24 1   
    52   23   69 1   
    53   23   70 1   
    54   24   25 1   
    55   24   71 1   
    56   24   72 1   
    57   25   26 2   
    58   25   27 1   
    59   27   28 1   
    60   27   29 1   
    61   27   73 1   
    62   28   74 1   
    63   28   75 1   
    64   28   76 1   
    65   29   30 1   
    66   29   34 1   
    67   29   77 1   
    68   30   31 1   
    69   31   32 2   
    70   31   33 1   
    71   33   78 1   
    72   33   79 1   
    73   33   80 1   
    74   34   35 1   
    75   34   36 1   
    76   34   81 1   
    77   35   82 1   
    78   35   83 1   
    79   35   84 1   
    80   36   37 1   
    81   36   85 1   
    82   36   86 1   
    83   37   38 1   
    84   37   87 1   
    85   37   88 1   
    86   38   39 1   
    87   38   40 1   
    88   39   89 1   
    89   39   90 1   
    90   39   91 1   
    91   40   41 2   
    92   40   92 1   
@<TRIPOS>SUBSTRUCTURE
     1 NWM         1 TEMP              0 ****  ****    0 ROOT
