@<TRIPOS>MOLECULE
NWM
   93    93     1     0     0
SMALL
bcc


@<TRIPOS>ATOM
      1 C01         0.0180   -1.8770    1.0400 ca        1 NWM     -0.117000
      2 C02         1.4070   -1.9740    0.9620 ca        1 NWM     -0.131000
      3 C03         2.2050   -0.8710    1.2610 ca        1 NWM     -0.127000
      4 C04         1.6110    0.3330    1.6430 ca        1 NWM     -0.131000
      5 C05         0.2240    0.4330    1.7260 ca        1 NWM     -0.117000
      6 C06        -0.5800   -0.6730    1.4220 ca        1 NWM     -0.089300
      7 C07        -2.0620   -0.5160    1.4990 c3        1 NWM      0.176700
      8 O08        -2.6700   -1.8080    1.5000 os        1 NWM     -0.426600
      9 C09        -4.0930   -1.7230    1.5570 c3        1 NWM      0.131400
     10 C10        -4.6050   -3.1520    1.6280 c3        1 NWM     -0.099400
     11 C11        -6.1170   -3.1920    1.4510 c3        1 NWM      0.145100
     12 O01        -6.3970   -2.9750    0.0490 os        1 NWM     -0.456900
     13 C13        -6.8680   -1.7540   -0.3510 c         1 NWM      0.632100
     14 O02        -7.0720   -0.8830    0.4950 o         1 NWM     -0.538000
     15 C15        -7.0860   -1.6860   -1.8330 c3        1 NWM     -0.126400
     16 C16        -6.5030   -0.4190   -2.4060 c3        1 NWM     -0.096100
     17 C25        -6.7170   -4.5670    1.7810 c3        1 NWM     -0.060700
     18 C18        -6.3130   -5.0250    3.1660 c3        1 NWM     -0.084100
     19 C26        -8.2500   -4.4980    1.6470 c3        1 NWM      0.147100
     20 O11        -8.7450   -3.9810    2.8740 oh        1 NWM     -0.592800
     21 C27        -8.8560   -5.8800    1.3410 c3        1 NWM     -0.096700
     22 C39       -10.3230   -5.9240    1.7120 c3        1 NWM     -0.097100
     23 C28        -8.6680   -6.2110   -0.1340 c3        1 NWM     -0.078400
     24 C29        -8.6110   -7.7070   -0.3640 c3        1 NWM     -0.174400
     25 C30        -8.5840   -8.0600   -1.8220 c         1 NWM      0.580100
     26 O12        -9.0540   -7.3400   -2.7050 o         1 NWM     -0.521100
     27 C31        -7.9330   -9.3960   -2.1420 c3        1 NWM     -0.174700
     28 C40        -6.4380   -9.1840   -2.2760 c3        1 NWM     -0.095100
     29 C32        -8.5130  -10.0000   -3.4300 c3        1 NWM      0.161100
     30 O13        -9.9410   -9.8800   -3.3250 os        1 NWM     -0.472900
     31 C44       -10.6370   -9.4290   -4.4290 c         1 NWM      0.649100
     32 O32       -10.0890   -9.5170   -5.5260 o         1 NWM     -0.527000
     33 C08       -11.9910   -8.9200   -4.0860 c3        1 NWM     -0.152100
     34 C33        -8.1270  -11.4820   -3.6060 c3        1 NWM     -0.076700
     35 C41        -7.9550  -11.7940   -5.0780 c3        1 NWM     -0.111100
     36 C34        -9.1710  -12.3860   -2.9600 c3        1 NWM     -0.096400
     37 C35        -8.5940  -13.7750   -2.7210 c3        1 NWM      0.107800
     38 N5         -9.6200  -14.8000   -2.3270 n4        1 NWM     -0.611200
     39 C43       -10.1870  -14.5270   -0.9840 c3        1 NWM      0.080100
     40 C42       -10.6880  -14.8960   -3.3970 c         1 NWM      0.546900
     41 O14       -11.8570  -14.8680   -3.0700 o         1 NWM     -0.376100
     42 H011       -0.6150   -2.7480    0.8080 ha        1 NWM      0.138000
     43 H021        1.8720   -2.9250    0.6640 ha        1 NWM      0.131500
     44 H031        3.3000   -0.9490    1.1980 ha        1 NWM      0.132000
     45 H041        2.2390    1.2040    1.8810 ha        1 NWM      0.131500
     46 H051       -0.2420    1.3820    2.0300 ha        1 NWM      0.138000
     47 H071       -2.3520    0.0300    2.4380 h1        1 NWM      0.038700
     48 H072       -2.4320    0.0670    0.6100 h1        1 NWM      0.038700
     49 H092       -4.4800   -1.2050    0.6390 h1        1 NWM      0.035700
     50 H091       -4.4060   -1.1380    2.4630 h1        1 NWM      0.035700
     51 H101       -4.3260   -3.5860    2.6230 hc        1 NWM      0.067200
     52 H102       -4.1110   -3.7670    0.8320 hc        1 NWM      0.067200
     53 H111       -6.6160   -2.4020    2.0780 h1        1 NWM      0.095700
     54 H151       -8.1950   -1.7170   -2.0060 hc        1 NWM      0.075200
     55 H152       -6.6330   -2.5860   -2.3240 hc        1 NWM      0.075200
     56 H163       -6.7680   -0.3370   -3.4870 hc        1 NWM      0.051367
     57 H162       -5.3900   -0.4190   -2.3120 hc        1 NWM      0.051367
     58 H161       -6.9020    0.4750   -1.8670 hc        1 NWM      0.051367
     59 H251       -6.3380   -5.3030    1.0190 hc        1 NWM      0.055700
     60 H183       -6.4300   -4.1920    3.9020 hc        1 NWM      0.044700
     61 H182       -5.2540   -5.3770    3.1750 hc        1 NWM      0.044700
     62 H181       -6.9690   -5.8670    3.4960 hc        1 NWM      0.044700
     63 H261       -8.5170   -3.7950    0.8060 h1        1 NWM      0.042700
     64 H112       -9.6450   -3.6760    2.7080 ho        1 NWM      0.404000
     65 H271       -8.3110   -6.6420    1.9650 hc        1 NWM      0.055700
     66 H392      -10.8820   -5.0980    1.2090 hc        1 NWM      0.038700
     67 H393      -10.4460   -5.8170    2.8180 hc        1 NWM      0.038700
     68 H391      -10.7740   -6.8960    1.3990 hc        1 NWM      0.038700
     69 H281       -7.7200   -5.7470   -0.5170 hc        1 NWM      0.063200
     70 H282       -9.5090   -5.7730   -0.7340 hc        1 NWM      0.063200
     71 H292       -7.7080   -8.1370    0.1440 hc        1 NWM      0.065700
     72 H291       -9.5170   -8.1980    0.0860 hc        1 NWM      0.065700
     73 H311       -8.1430  -10.0980   -1.2890 hc        1 NWM      0.055700
     74 H403       -6.0350   -8.7100   -1.3470 hc        1 NWM      0.053033
     75 H402       -6.2130   -8.5130   -3.1410 hc        1 NWM      0.053033
     76 H401       -5.9070  -10.1530   -2.4310 hc        1 NWM      0.053033
     77 H321       -8.1460   -9.4070   -4.3170 h1        1 NWM      0.108700
     78 H332      -12.4190   -9.4750   -3.2190 hc        1 NWM      0.085367
     79 H333      -12.6620   -9.0180   -4.9740 hc        1 NWM      0.085367
     80 H331      -11.8950   -7.8380   -3.8120 hc        1 NWM      0.085367
     81 H334       -7.1410  -11.6440   -3.0850 hc        1 NWM      0.062700
     82 H412       -7.7490  -12.8780   -5.2420 hc        1 NWM      0.054033
     83 H413       -7.0950  -11.2110   -5.4920 hc        1 NWM      0.054033
     84 H411       -8.8720  -11.5040   -5.6510 hc        1 NWM      0.054033
     85 H341       -9.4950  -11.9300   -1.9860 hc        1 NWM      0.072700
     86 H1        -10.0730  -12.4310   -3.6270 hc        1 NWM      0.072700
     87 H351       -8.0900  -14.1520   -3.6580 hx        1 NWM      0.103700
     88 H2         -7.8270  -13.7320   -1.8950 hx        1 NWM      0.103700
     89 H431      -10.9250  -15.3340   -0.7210 hx        1 NWM      0.110367
     90 H432      -10.7190  -13.5370   -0.9970 hx        1 NWM      0.110367
     91 H433       -9.3590  -14.5040   -0.2260 hx        1 NWM      0.110367
     92 H421      -10.2530  -14.9880   -4.4180 hx        1 NWM      0.130200
     93 H51        -9.1460  -15.7140   -2.2910 hn        1 NWM      0.457800
@<TRIPOS>BOND
     1    1    2 ar  
     2    1    6 ar  
     3    1   42 1   
     4    2    3 ar  
     5    2   43 1   
     6    3    4 ar  
     7    3   44 1   
     8    4    5 ar  
     9    4   45 1   
    10    5    6 ar  
    11    5   46 1   
    12    6    7 1   
    13    7    8 1   
    14    7   47 1   
    15    7   48 1   
    16    8    9 1   
    17    9   10 1   
    18    9   49 1   
    19    9   50 1   
    20   10   11 1   
    21   10   51 1   
    22   10   52 1   
    23   11   12 1   
    24   11   17 1   
    25   11   53 1   
    26   12   13 1   
    27   13   14 2   
    28   13   15 1   
    29   15   16 1   
    30   15   54 1   
    31   15   55 1   
    32   16   56 1   
    33   16   57 1   
    34   16   58 1   
    35   17   18 1   
    36   17   19 1   
    37   17   59 1   
    38   18   60 1   
    39   18   61 1   
    40   18   62 1   
    41   19   20 1   
    42   19   21 1   
    43   19   63 1   
    44   20   64 1   
    45   21   22 1   
    46   21   23 1   
    47   21   65 1   
    48   22   66 1   
    49   22   67 1   
    50   22   68 1   
    51   23   24 1   
    52   23   69 1   
    53   23   70 1   
    54   24   25 1   
    55   24   71 1   
    56   24   72 1   
    57   25   26 2   
    58   25   27 1   
    59   27   28 1   
    60   27   29 1   
    61   27   73 1   
    62   28   74 1   
    63   28   75 1   
    64   28   76 1   
    65   29   30 1   
    66   29   34 1   
    67   29   77 1   
    68   30   31 1   
    69   31   32 2   
    70   31   33 1   
    71   33   78 1   
    72   33   79 1   
    73   33   80 1   
    74   34   35 1   
    75   34   36 1   
    76   34   81 1   
    77   35   82 1   
    78   35   83 1   
    79   35   84 1   
    80   36   37 1   
    81   36   85 1   
    82   36   86 1   
    83   37   38 1   
    84   37   87 1   
    85   37   88 1   
    86   38   39 1   
    87   38   40 1   
    88   38   93 1   
    89   39   89 1   
    90   39   90 1   
    91   39   91 1   
    92   40   41 2   
    93   40   92 1   
@<TRIPOS>SUBSTRUCTURE
     1 NWM         1 TEMP              0 ****  ****    0 ROOT
