@<TRIPOS>MOLECULE
NX1
   25    20     1     0     0
SMALL
bcc


@<TRIPOS>ATOM
      1 C1          1.2350   -0.9300    1.9560 c1        1 NX1     -0.213500
      2 C2          2.6170   -1.3120    2.1830 c1        1 NX1     -0.405500
      3 S3          0.4240   -0.8530    0.3810 s         1 NX1      0.202000
      4 C4          0.5680   -0.6040    3.3650 c1        1 NX1     -0.213500
      5 S5          2.8840   -1.2480    3.7100 ss        1 NX1      0.540000
      6 C6          3.5960   -1.7740    1.1270 c1        1 NX1      0.368000
      7 C7         -0.1690    0.7940    0.1010 c3        1 NX1     -0.280000
      8 C8          1.5680   -0.8000    4.3980 c1        1 NX1     -0.405500
      9 O9          4.5040   -0.9970    0.7280 o         1 NX1     -0.547000
     10 O10         3.5060   -2.9350    0.6500 o         1 NX1     -0.547000
     11 C11        -0.9860    0.8270   -1.1720 c2        1 NX1     -0.043000
     12 C12        -2.2090    0.1750   -1.2270 c2        1 NX1     -0.107000
     13 C13        -0.5200    1.5200   -2.2780 c1        1 NX1     -0.079000
     14 C14        -2.9650    0.2180   -2.3880 c1        1 NX1     -0.174000
     15 C15        -1.2770    1.5630   -3.4390 c1        1 NX1     -0.128000
     16 C16        -2.4990    0.9120   -3.4940 c1        1 NX1     -0.051000
     17 BR17       -4.6400   -0.7010   -2.4720 br        1 NX1      0.027000
     18 CL18       -3.4280    0.9260   -4.9690 cl        1 NX1     -0.033000
     19 H4         -0.3550   -0.3220    3.5090 DU        1 NX1      0.142500
     20 H7         -0.7270    1.0720    0.8540 h1        1 NX1      0.147500
     21 H7A         0.5910    1.4040    0.0160 h1        1 NX1      0.147500
     22 H8          1.4350   -0.6720    5.3570 DU        1 NX1      0.142500
     23 H12        -2.5370   -0.3140   -0.4490 ha        1 NX1      0.140000
     24 H13         0.3400    1.9790   -2.2390 ha        1 NX1      0.220000
     25 H15        -0.9590    2.0710   -4.2100 ha        1 NX1      0.150000
@<TRIPOS>BOND
     1    1    2 1   
     2    1    4 1   
     3    2    5 1   
     4    3    7 1   
     5    4    8 1   
     6    5    8 1   
     7    6    9 1   
     8    6   10 1   
     9    7   11 1   
    10    7   20 1   
    11    7   21 1   
    12   11   12 1   
    13   11   13 1   
    14   12   14 1   
    15   12   23 1   
    16   13   24 1   
    17   14   17 1   
    18   15   16 1   
    19   15   25 1   
    20   16   18 1   
@<TRIPOS>SUBSTRUCTURE
     1 NX1         1 TEMP              0 ****  ****    0 ROOT
