@<TRIPOS>MOLECULE
NX1
   25    27     1     0     0
SMALL
bcc


@<TRIPOS>ATOM
      1 C1         -3.2590   -0.3300    0.5890 cc        1 NX1      0.133500
      2 C2         -4.3770    0.1080   -0.1380 cd        1 NX1     -0.230700
      3 S3         -1.8290   -0.2610   -0.2660 s4        1 NX1     -0.482000
      4 C4         -3.6350   -0.7350    1.9080 cc        1 NX1     -0.150000
      5 S5         -5.7710    0.0190    0.7610 ss        1 NX1      0.037200
      6 C6         -4.0760    0.5460   -1.5210 c         1 NX1      0.771200
      7 C7         -0.6750   -0.9170    0.9940 c3        1 NX1      0.017200
      8 C8         -4.9900   -0.5860    2.1110 cd        1 NX1     -0.195100
      9 O9         -4.9120    0.9680   -2.3470 o         1 NX1     -0.751500
     10 O10        -2.8050    0.4440   -1.8110 os        1 NX1     -0.369900
     11 C11         0.6770   -0.9480    0.4370 ca        1 NX1      0.030700
     12 C12         1.5890    0.0860    0.7060 ca        1 NX1     -0.126000
     13 C13         1.0930   -2.0140   -0.3790 ca        1 NX1     -0.134000
     14 C14         2.8850    0.0540    0.1890 ca        1 NX1     -0.005900
     15 C15         2.3800   -2.0510   -0.9010 ca        1 NX1     -0.117000
     16 C16         3.2830   -1.0210   -0.6150 ca        1 NX1     -0.001600
     17 BR17        4.0640    1.4560    0.5950 br        1 NX1     -0.110100
     18 CL18        4.8570   -1.1050   -1.2610 cl        1 NX1     -0.114400
     19 H4         -2.9200   -1.1110    2.6420 ha        1 NX1      0.138000
     20 H7         -0.7290   -0.2700    1.8990 h1        1 NX1      0.046200
     21 H7A        -1.0150   -1.9410    1.2750 h1        1 NX1      0.046200
     22 H8         -5.5150   -0.8260    3.0320 h4        1 NX1      0.144000
     23 H12         1.2630    0.9330    1.3290 ha        1 NX1      0.148000
     24 H13         0.3820   -2.8210   -0.6140 ha        1 NX1      0.143000
     25 H15         2.6900   -2.8880   -1.5440 ha        1 NX1      0.135000
@<TRIPOS>BOND
     1    1    2 2   
     2    1    3 1   
     3    1    4 1   
     4    2    5 1   
     5    2    6 1   
     6    3    7 1   
     7    3   10 1   
     8    4    8 2   
     9    4   19 1   
    10    5    8 1   
    11    6    9 2   
    12    6   10 1   
    13    7   11 1   
    14    7   20 1   
    15    7   21 1   
    16    8   22 1   
    17   11   12 ar  
    18   11   13 ar  
    19   12   14 ar  
    20   12   23 1   
    21   13   15 ar  
    22   13   24 1   
    23   14   16 ar  
    24   14   17 1   
    25   15   16 ar  
    26   15   25 1   
    27   16   18 1   
@<TRIPOS>SUBSTRUCTURE
     1 NX1         1 TEMP              0 ****  ****    0 ROOT
