@<TRIPOS>MOLECULE
NX1
   25    27     1     0     0
SMALL
bcc


@<TRIPOS>ATOM
      1 C1         -0.1540    0.0020    0.1430 cc        1 NX1      0.133500
      2 C2          1.2460    0.0640    0.0550 cd        1 NX1     -0.230700
      3 S3         -0.9240    0.0190   -1.3350 s4        1 NX1     -0.482000
      4 C4         -0.5760   -0.0630    1.5080 cc        1 NX1     -0.150000
      5 S5          1.9610    0.0420    1.5540 ss        1 NX1      0.037200
      6 C6          1.7700    0.1360   -1.3300 c         1 NX1      0.771200
      7 C7         -2.6680   -0.0520   -0.7840 c3        1 NX1      0.017200
      8 C8          0.5020   -0.0470    2.3680 cd        1 NX1     -0.195100
      9 O9          2.9760    0.2040   -1.6460 o         1 NX1     -0.751500
     10 O10         0.8170    0.1230   -2.2250 os        1 NX1     -0.369900
     11 C11        -3.5430   -0.0420   -1.9550 ca        1 NX1      0.030700
     12 C12        -4.0670   -1.2380   -2.4720 ca        1 NX1     -0.126000
     13 C13        -3.8810    1.1670   -2.5890 ca        1 NX1     -0.134000
     14 C14        -4.9140   -1.2330   -3.5810 ca        1 NX1     -0.005900
     15 C15        -4.7200    1.1800   -3.6960 ca        1 NX1     -0.117000
     16 C16        -5.2450   -0.0170   -4.1930 ca        1 NX1     -0.001600
     17 BR17       -5.5950   -2.8620   -4.2180 br        1 NX1     -0.110100
     18 CL18       -6.2810    0.0380   -5.5440 cl        1 NX1     -0.114400
     19 H4         -1.6240   -0.1180    1.8050 ha        1 NX1      0.138000
     20 H7         -2.8610    0.8320   -0.1320 h1        1 NX1      0.046200
     21 H7A        -2.8130   -0.9730   -0.1740 h1        1 NX1      0.046200
     22 H8          0.4380   -0.0870    3.4520 h4        1 NX1      0.144000
     23 H12        -3.7910   -2.1900   -1.9910 ha        1 NX1      0.148000
     24 H13        -3.4620    2.1100   -2.2060 ha        1 NX1      0.143000
     25 H15        -4.9700    2.1330   -4.1860 ha        1 NX1      0.135000
@<TRIPOS>BOND
     1    1    2 2   
     2    1    3 1   
     3    1    4 1   
     4    2    5 1   
     5    2    6 1   
     6    3    7 1   
     7    3   10 1   
     8    4    8 2   
     9    4   19 1   
    10    5    8 1   
    11    6    9 2   
    12    6   10 1   
    13    7   11 1   
    14    7   20 1   
    15    7   21 1   
    16    8   22 1   
    17   11   12 ar  
    18   11   13 ar  
    19   12   14 ar  
    20   12   23 1   
    21   13   15 ar  
    22   13   24 1   
    23   14   16 ar  
    24   14   17 1   
    25   15   16 ar  
    26   15   25 1   
    27   16   18 1   
@<TRIPOS>SUBSTRUCTURE
     1 NX1         1 TEMP              0 ****  ****    0 ROOT
