@<TRIPOS>MOLECULE
NX1
   25    27     1     0     0
SMALL
bcc


@<TRIPOS>ATOM
      1 C1         -0.1540    0.0040    0.1440 cc        1 NX1      0.133500
      2 C2          1.2460    0.0680    0.0560 cd        1 NX1     -0.230700
      3 S3         -0.9240    0.0200   -1.3350 s4        1 NX1     -0.482000
      4 C4         -0.5770   -0.0600    1.5080 cc        1 NX1     -0.150000
      5 S5          1.9600    0.0470    1.5550 ss        1 NX1      0.037200
      6 C6          1.7700    0.1390   -1.3280 c         1 NX1      0.771200
      7 C7         -2.6690   -0.0520   -0.7840 c3        1 NX1      0.017200
      8 C8          0.5010   -0.0420    2.3690 cd        1 NX1     -0.195100
      9 O9          2.9760    0.2070   -1.6450 o         1 NX1     -0.751500
     10 O10         0.8180    0.1250   -2.2240 os        1 NX1     -0.369900
     11 C11        -3.5430   -0.0430   -1.9560 ca        1 NX1      0.030700
     12 C12        -4.0660   -1.2400   -2.4720 ca        1 NX1     -0.126000
     13 C13        -3.8810    1.1650   -2.5900 ca        1 NX1     -0.134000
     14 C14        -4.9130   -1.2360   -3.5810 ca        1 NX1     -0.005900
     15 C15        -4.7200    1.1770   -3.6980 ca        1 NX1     -0.117000
     16 C16        -5.2440   -0.0220   -4.1940 ca        1 NX1     -0.001600
     17 Br17       -5.5920   -2.8660   -4.2170 br        1 NX1     -0.110100
     18 Cl18       -6.2800    0.0320   -5.5450 cl        1 NX1     -0.114400
     19 H4         -1.6250   -0.1150    1.8050 ha        1 NX1      0.138000
     20 H7         -2.8630    0.8320   -0.1330 h1        1 NX1      0.046200
     21 H7A        -2.8120   -0.9730   -0.1730 h1        1 NX1      0.046200
     22 H8          0.4360   -0.0820    3.4530 h4        1 NX1      0.144000
     23 H12        -3.7890   -2.1920   -1.9900 ha        1 NX1      0.148000
     24 H13        -3.4630    2.1080   -2.2080 ha        1 NX1      0.143000
     25 H15        -4.9700    2.1280   -4.1890 ha        1 NX1      0.135000
@<TRIPOS>BOND
     1    1    2 2   
     2    1    3 1   
     3    1    4 1   
     4    2    5 1   
     5    2    6 1   
     6    3    7 1   
     7    3   10 1   
     8    4    8 2   
     9    4   19 1   
    10    5    8 1   
    11    6    9 2   
    12    6   10 1   
    13    7   11 1   
    14    7   20 1   
    15    7   21 1   
    16    8   22 1   
    17   11   12 ar  
    18   11   13 ar  
    19   12   14 ar  
    20   12   23 1   
    21   13   15 ar  
    22   13   24 1   
    23   14   16 ar  
    24   14   17 1   
    25   15   16 ar  
    26   15   25 1   
    27   16   18 1   
@<TRIPOS>SUBSTRUCTURE
     1 NX1         1 TEMP              0 ****  ****    0 ROOT
