@<TRIPOS>MOLECULE
NX2
   33    34     1     0     0
SMALL
bcc


@<TRIPOS>ATOM
      1 C1         -1.2090    1.7300   -0.0360 cc        1 NX2      0.007900
      2 C2         -1.1760    3.1620   -0.1570 cc        1 NX2     -0.187000
      3 C3         -2.4350    3.7040   -0.2830 cd        1 NX2     -0.125100
      4 S4         -3.6160    2.5450   -0.2610 ss        1 NX2      0.069200
      5 C5         -2.5310    1.2720   -0.0730 cd        1 NX2     -0.218700
      6 S6          0.1130    0.7340    0.1190 ss        1 NX2      0.003000
      7 C7          1.4890    1.8490    0.2000 c3        1 NX2     -0.029000
      8 C8          2.6960    1.0140    0.3980 ca        1 NX2     -0.074300
      9 C9          3.4140    0.5450   -0.7070 ca        1 NX2     -0.100000
     10 C10         4.2790   -0.0670    1.8790 ca        1 NX2     -0.117000
     11 C11         3.1370    0.7040    1.6910 ca        1 NX2     -0.105000
     12 C12         4.5630   -0.2290   -0.5220 ca        1 NX2      0.017400
     13 C13         5.0000   -0.5380    0.7750 ca        1 NX2      0.024400
     14 CL14        6.3890   -1.4730    1.0340 cl        1 NX2     -0.062400
     15 CL15        5.4090   -0.7790   -1.8850 cl        1 NX2     -0.062400
     16 C16        -2.9360   -0.1280    0.0230 c         1 NX2      0.740700
     17 N17        -4.3020   -0.4110    0.1590 n         1 NX2     -0.682300
     18 O18        -2.1300   -1.0780   -0.0000 o         1 NX2     -0.577100
     19 S19        -5.0450   -1.8880    0.1000 s6        1 NX2      1.468600
     20 C20        -4.2480   -2.7950    1.2790 c3        1 NX2     -0.378300
     21 O21        -6.3760   -1.6630    0.5140 o         1 NX2     -0.644800
     22 O22        -4.8830   -2.4930   -1.1510 o         1 NX2     -0.644800
     23 H2         -0.2510    3.7430   -0.1530 ha        1 NX2      0.160000
     24 H3         -2.6470    4.7690   -0.3930 h4        1 NX2      0.181000
     25 H7          1.5720    2.4450   -0.7440 h1        1 NX2      0.078200
     26 H7A         1.3670    2.5720    1.0450 h1        1 NX2      0.078200
     27 H9          3.0710    0.7820   -1.7270 ha        1 NX2      0.157000
     28 H10         4.6180   -0.3090    2.8980 ha        1 NX2      0.155000
     29 H11         2.5760    1.0690    2.5660 ha        1 NX2      0.145000
     30 HN17       -4.8830    0.3890    0.2940 hn        1 NX2      0.332500
     31 H20        -4.4160   -2.4260    2.3200 h1        1 NX2      0.129033
     32 H20A       -4.6000   -3.8580    1.2630 h1        1 NX2      0.129033
     33 H20B       -3.1360   -2.8390    1.1320 h1        1 NX2      0.129033
@<TRIPOS>BOND
     1    1    2 1   
     2    1    5 2   
     3    1    6 1   
     4    2    3 2   
     5    2   23 1   
     6    3    4 1   
     7    3   24 1   
     8    4    5 1   
     9    5   16 1   
    10    6    7 1   
    11    7    8 1   
    12    7   25 1   
    13    7   26 1   
    14    8    9 ar  
    15    8   11 ar  
    16    9   12 ar  
    17    9   27 1   
    18   10   11 ar  
    19   10   13 ar  
    20   10   28 1   
    21   11   29 1   
    22   12   13 ar  
    23   12   15 1   
    24   13   14 1   
    25   16   17 1   
    26   16   18 2   
    27   17   19 1   
    28   17   30 1   
    29   19   20 1   
    30   19   21 2   
    31   19   22 2   
    32   20   31 1   
    33   20   32 1   
    34   20   33 1   
@<TRIPOS>SUBSTRUCTURE
     1 NX2         1 TEMP              0 ****  ****    0 ROOT
