@<TRIPOS>MOLECULE
NX2
   34    35     1     0     0
SMALL
bcc


@<TRIPOS>ATOM
      1 C1         -0.0810    0.0200   -0.0900 cc        1 NX2      0.036900
      2 C2          1.3260   -0.2240    0.0780 cc        1 NX2     -0.199000
      3 C3          1.7140   -0.2070    1.3970 cd        1 NX2     -0.044100
      4 S4          0.4500    0.0850    2.4250 ss        1 NX2      0.047200
      5 C5         -0.6910    0.2140    1.1770 cd        1 NX2     -0.297700
      6 S6         -0.8860    0.0760   -1.5140 ss        1 NX2      0.080000
      7 C7          0.3370   -0.1870   -2.7760 c3        1 NX2     -0.017000
      8 C8         -0.4090   -0.1170   -4.0510 ca        1 NX2     -0.111300
      9 C9         -0.6220    1.1190   -4.6710 ca        1 NX2     -0.095000
     10 C10        -1.5680   -1.2230   -5.8670 ca        1 NX2     -0.116000
     11 C11        -0.8820   -1.2880   -4.6590 ca        1 NX2     -0.098000
     12 C12        -1.3130    1.1890   -5.8850 ca        1 NX2      0.014400
     13 C13        -1.7910    0.0130   -6.4870 ca        1 NX2      0.038400
     14 Cl14       -2.6300    0.0610   -7.9530 cl        1 NX2     -0.032400
     15 Cl15       -1.5550    2.7020   -6.6030 cl        1 NX2     -0.040400
     16 C16        -2.0710    0.5150    1.3430 c         1 NX2      0.598700
     17 N17        -2.5600    0.7450    2.7480 ny        1 NX2     -0.616700
     18 O18        -2.9560    0.6170    0.4870 o         1 NX2     -0.497100
     19 S19        -3.7000   -0.5680    3.5150 s6        1 NX2      1.418900
     20 C20        -4.0570   -1.4940    2.2180 c3        1 NX2     -0.471300
     21 O21        -2.8330   -1.1640    4.4070 o         1 NX2     -0.559800
     22 O22        -4.7390    0.2270    3.9480 o         1 NX2     -0.559800
     23 H2          2.0050   -0.4010   -0.7630 ha        1 NX2      0.183000
     24 H3          2.7380   -0.3710    1.7490 h4        1 NX2      0.207000
     25 H7          0.8330   -1.1820   -2.6530 h1        1 NX2      0.093200
     26 H7A         1.1310    0.6010   -2.7310 h1        1 NX2      0.093200
     27 H9         -0.2400    2.0430   -4.2070 ha        1 NX2      0.155000
     28 H10        -1.9340   -2.1480   -6.3420 ha        1 NX2      0.165000
     29 H11        -0.7070   -2.2670   -4.1860 ha        1 NX2      0.144000
     30 HN17       -3.0800    1.6290    2.7400 hn        1 NX2      0.465300
     31 H20        -3.2050   -2.1020    1.8040 h1        1 NX2      0.182700
     32 H20A       -4.4790   -0.9480    1.3210 h1        1 NX2      0.182700
     33 H20B       -4.8540   -2.2640    2.4490 h1        1 NX2      0.182700
     34 H172       -1.7560    0.8740    3.3660 hn        1 NX2      0.465300
@<TRIPOS>BOND
     1    1    2 1   
     2    1    5 2   
     3    1    6 1   
     4    2    3 2   
     5    2   23 1   
     6    3    4 1   
     7    3   24 1   
     8    4    5 1   
     9    5   16 1   
    10    6    7 1   
    11    7    8 1   
    12    7   25 1   
    13    7   26 1   
    14    8    9 ar  
    15    8   11 ar  
    16    9   12 ar  
    17    9   27 1   
    18   10   11 ar  
    19   10   13 ar  
    20   10   28 1   
    21   11   29 1   
    22   12   13 ar  
    23   12   15 1   
    24   13   14 1   
    25   16   17 1   
    26   16   18 2   
    27   17   19 1   
    28   17   30 1   
    29   17   34 1   
    30   19   20 1   
    31   19   21 2   
    32   19   22 2   
    33   20   31 1   
    34   20   32 1   
    35   20   33 1   
@<TRIPOS>SUBSTRUCTURE
     1 NX2         1 TEMP              0 ****  ****    0 ROOT
