@<TRIPOS>MOLECULE
NX2
   34    35     1     0     0
SMALL
bcc


@<TRIPOS>ATOM
      1 C1         -0.0770    0.0060   -0.0920 cc        1 NX2      0.036900
      2 C2          1.3270   -0.2500    0.0720 cc        1 NX2     -0.199000
      3 C3          1.7180   -0.2410    1.3900 cd        1 NX2     -0.044100
      4 S4          0.4590    0.0580    2.4210 ss        1 NX2      0.047200
      5 C5         -0.6830    0.2020    1.1770 cd        1 NX2     -0.297700
      6 S6         -0.8850    0.0740   -1.5140 ss        1 NX2      0.080000
      7 C7          0.3330   -0.1950   -2.7800 c3        1 NX2     -0.017000
      8 C8         -0.4150   -0.1150   -4.0530 ca        1 NX2     -0.111300
      9 C9         -0.6200    1.1250   -4.6680 ca        1 NX2     -0.095000
     10 C10        -1.5870   -1.2050   -5.8700 ca        1 NX2     -0.116000
     11 C11        -0.8990   -1.2800   -4.6640 ca        1 NX2     -0.098000
     12 C12        -1.3130    1.2050   -5.8800 ca        1 NX2      0.014400
     13 C13        -1.8020    0.0350   -6.4860 ca        1 NX2      0.038400
     14 CL14       -2.6430    0.0940   -7.9500 cl        1 NX2     -0.032400
     15 CL15       -1.5450    2.7220   -6.5920 cl        1 NX2     -0.040400
     16 C16        -2.0600    0.5140    1.3470 c         1 NX2      0.598700
     17 N17        -2.5440    0.7430    2.7540 n4        1 NX2     -0.616700
     18 O18        -2.9460    0.6250    0.4940 o         1 NX2     -0.497100
     19 S19        -3.6930   -0.5630    3.5190 s6        1 NX2      1.418900
     20 C20        -4.0620   -1.4810    2.2190 c3        1 NX2     -0.471300
     21 O21        -2.8300   -1.1690    4.4070 o         1 NX2     -0.559800
     22 O22        -4.7240    0.2390    3.9570 o         1 NX2     -0.559800
     23 H2          2.0030   -0.4290   -0.7720 ha        1 NX2      0.183000
     24 H3          2.7420   -0.4140    1.7400 h4        1 NX2      0.207000
     25 H7          0.8210   -1.1940   -2.6610 h1        1 NX2      0.093200
     26 H7A         1.1330    0.5860   -2.7340 h1        1 NX2      0.093200
     27 H9         -0.2300    2.0450   -4.2020 ha        1 NX2      0.155000
     28 H10        -1.9620   -2.1250   -6.3480 ha        1 NX2      0.165000
     29 H11        -0.7300   -2.2610   -4.1940 ha        1 NX2      0.144000
     30 HN17       -3.0560    1.6310    2.7500 hn        1 NX2      0.465300
     31 H20        -3.2160   -2.0950    1.8010 h1        1 NX2      0.182700
     32 H20A       -4.4810   -0.9290    1.3250 h1        1 NX2      0.182700
     33 H20B       -4.8640   -2.2450    2.4490 h1        1 NX2      0.182700
     34 H172       -1.7380    0.8630    3.3700 hn        1 NX2      0.465300
@<TRIPOS>BOND
     1    1    2 1   
     2    1    5 2   
     3    1    6 1   
     4    2    3 2   
     5    2   23 1   
     6    3    4 1   
     7    3   24 1   
     8    4    5 1   
     9    5   16 1   
    10    6    7 1   
    11    7    8 1   
    12    7   25 1   
    13    7   26 1   
    14    8    9 ar  
    15    8   11 ar  
    16    9   12 ar  
    17    9   27 1   
    18   10   11 ar  
    19   10   13 ar  
    20   10   28 1   
    21   11   29 1   
    22   12   13 ar  
    23   12   15 1   
    24   13   14 1   
    25   16   17 1   
    26   16   18 2   
    27   17   19 1   
    28   17   30 1   
    29   17   34 1   
    30   19   20 1   
    31   19   21 2   
    32   19   22 2   
    33   20   31 1   
    34   20   32 1   
    35   20   33 1   
@<TRIPOS>SUBSTRUCTURE
     1 NX2         1 TEMP              0 ****  ****    0 ROOT
