@<TRIPOS>MOLECULE
NX2
   34    35     1     0     0
SMALL
bcc


@<TRIPOS>ATOM
      1 C1         -0.0850    0.0260   -0.0860 cc        1 NX2      0.036900
      2 C2          1.3210   -0.2150    0.0900 cc        1 NX2     -0.199000
      3 C3          1.7020   -0.1910    1.4100 cd        1 NX2     -0.044100
      4 S4          0.4330    0.1050    2.4310 ss        1 NX2      0.047200
      5 C5         -0.7020    0.2270    1.1770 cd        1 NX2     -0.297700
      6 S6         -0.8840    0.0730   -1.5140 ss        1 NX2      0.080000
      7 C7          0.3450   -0.1950   -2.7680 c3        1 NX2     -0.017000
      8 C8         -0.3960   -0.1330   -4.0480 ca        1 NX2     -0.111300
      9 C9         -0.6060    1.0990   -4.6750 ca        1 NX2     -0.094000
     10 C10        -1.5450   -1.2500   -5.8630 ca        1 NX2     -0.116000
     11 C11        -0.8660   -1.3080   -4.6510 ca        1 NX2     -0.098000
     12 C12        -1.2920    1.1620   -5.8920 ca        1 NX2      0.014400
     13 C13        -1.7660   -0.0170   -6.4910 ca        1 NX2      0.038400
     14 CL14       -2.5980    0.0220   -7.9610 cl        1 NX2     -0.032400
     15 CL15       -1.5300    2.6710   -6.6200 cl        1 NX2     -0.040400
     16 C16        -2.0820    0.5270    1.3350 c         1 NX2      0.598700
     17 N17        -2.5780    0.7650    2.7370 n4        1 NX2     -0.616700
     18 O18        -2.9640    0.6220    0.4760 o         1 NX2     -0.497100
     19 S19        -3.7190   -0.5450    3.5070 s6        1 NX2      1.418900
     20 C20        -4.0710   -1.4780    2.2140 c3        1 NX2     -0.471300
     21 O21        -2.8560   -1.1340    4.4060 o         1 NX2     -0.559800
     22 O22        -4.7610    0.2520    3.9310 o         1 NX2     -0.559800
     23 H2          2.0040   -0.3960   -0.7470 ha        1 NX2      0.183000
     24 H3          2.7250   -0.3510    1.7680 h4        1 NX2      0.207000
     25 H7          1.1380    0.5930   -2.7240 h1        1 NX2      0.093200
     26 H7A         0.8410   -1.1900   -2.6380 h1        1 NX2      0.093200
     27 H9         -0.2270    2.0260   -4.2150 ha        1 NX2      0.155000
     28 H10        -1.9090   -2.1770   -6.3340 ha        1 NX2      0.165000
     29 H11        -0.6920   -2.2830   -4.1710 ha        1 NX2      0.144000
     30 HN17       -1.7770    0.8990    3.3570 hn        1 NX2      0.465300
     31 H20        -3.2160   -2.0880    1.8070 h1        1 NX2      0.182700
     32 H20A       -4.8680   -2.2480    2.4470 h1        1 NX2      0.182700
     33 H20B       -4.4890   -0.9390    1.3120 h1        1 NX2      0.182700
     34 H172       -3.0990    1.6480    2.7210 hn        1 NX2      0.465300
@<TRIPOS>BOND
     1    1    2 1   
     2    1    5 2   
     3    1    6 1   
     4    2    3 2   
     5    2   23 1   
     6    3    4 1   
     7    3   24 1   
     8    4    5 1   
     9    5   16 1   
    10    6    7 1   
    11    7    8 1   
    12    7   25 1   
    13    7   26 1   
    14    8    9 ar  
    15    8   11 ar  
    16    9   12 ar  
    17    9   27 1   
    18   10   11 ar  
    19   10   13 ar  
    20   10   28 1   
    21   11   29 1   
    22   12   13 ar  
    23   12   15 1   
    24   13   14 1   
    25   16   17 1   
    26   16   18 2   
    27   17   19 1   
    28   17   30 1   
    29   17   34 1   
    30   19   20 1   
    31   19   21 2   
    32   19   22 2   
    33   20   31 1   
    34   20   32 1   
    35   20   33 1   
@<TRIPOS>SUBSTRUCTURE
     1 NX2         1 TEMP              0 ****  ****    0 ROOT
