@<TRIPOS>MOLECULE
NX2
   33    27     1     0     0
SMALL
bcc


@<TRIPOS>ATOM
      1 C1          1.2780   -0.0100    0.8390 c1        1 NX2     -0.203000
      2 C2          2.8650   -0.1370    0.8780 c1        1 NX2     -0.203000
      3 C3          3.2700   -0.3640    2.2530 c1        1 NX2     -0.432000
      4 S4          1.9890   -0.3920    3.1290 ss        1 NX2      0.610000
      5 C5          0.7740   -0.1650    2.1910 c1        1 NX2     -0.432000
      6 S6          0.2940    0.2720   -0.6090 s         1 NX2      0.411000
      7 C7          1.0140   -0.5800   -1.9880 c3        1 NX2     -0.296000
      8 C8          0.7010    0.1710   -3.2640 c2        1 NX2     -0.067000
      9 C9         -0.0110   -0.4520   -4.2770 c2        1 NX2     -0.101000
     10 C10         0.9040    2.1420   -4.6180 c1        1 NX2     -0.116000
     11 C11         1.1580    1.4680   -3.4340 c1        1 NX2     -0.103000
     12 C12        -0.2650    0.2220   -5.4610 c1        1 NX2     -0.062000
     13 C13         0.1920    1.5200   -5.6320 c1        1 NX2     -0.053000
     14 CL14       -0.1630    2.3820   -7.1040 cl        1 NX2      0.016000
     15 CL15       -1.1900   -0.5490   -6.7220 cl        1 NX2      0.014000
     16 C16        -0.6710   -0.0380    2.6220 c1        1 NX2      0.414000
     17 N17        -1.0260   -0.2400    3.9810 n3        1 NX2     -0.861000
     18 O18        -1.5290    0.2160    1.8010 o         1 NX2     -0.338000
     19 S19        -2.5880   -0.0600    4.4560 s4        1 NX2      2.036800
     20 C20        -3.2430   -1.6120    5.0090 c2        1 NX2     -0.957000
     21 O21        -3.3910    0.5010    3.4060 o         1 NX2     -0.532400
     22 O22        -2.7100    0.9490    5.4720 o         1 NX2     -0.532400
     23 H2          3.4620   -0.0730    0.1090 DU        1 NX2      0.170500
     24 H3          4.1860   -0.4800    2.5700 DU        1 NX2      0.170500
     25 H7          1.9840   -0.6310   -1.8690 h1        1 NX2      0.117500
     26 H7A         0.6440   -1.4840   -2.0420 h1        1 NX2      0.117500
     27 H9         -0.3330   -1.3660   -4.1570 ha        1 NX2      0.154000
     28 H10         1.2260    3.0560   -4.7380 ha        1 NX2      0.156000
     29 H11         1.6600    1.9070   -2.7210 ha        1 NX2      0.148000
     30 HN17       -0.3880   -0.4760    4.5880 hn        1 NX2      0.247000
     31 H20        -3.8580   -1.4600    5.7570 ha        1 NX2      0.168333
     32 H20A       -3.7260   -2.0440    4.2730 ha        1 NX2      0.168333
     33 H20B       -2.5090   -2.1910    5.3030 ha        1 NX2      0.168333
@<TRIPOS>BOND
     1    1    2 1   
     2    1    5 1   
     3    2    3 1   
     4    3    4 1   
     5    4    5 1   
     6    6    7 1   
     7    7    8 1   
     8    7   25 1   
     9    7   26 1   
    10    8    9 1   
    11    8   11 1   
    12    9   12 1   
    13    9   27 1   
    14   10   13 1   
    15   10   28 1   
    16   11   29 1   
    17   12   15 1   
    18   13   14 1   
    19   16   17 1   
    20   16   18 1   
    21   17   19 1   
    22   17   30 1   
    23   19   21 1   
    24   19   22 1   
    25   20   31 1   
    26   20   32 1   
    27   20   33 1   
@<TRIPOS>SUBSTRUCTURE
     1 NX2         1 TEMP              0 ****  ****    0 ROOT
