@<TRIPOS>MOLECULE
NX3
   43    45     1     0     0
SMALL
bcc


@<TRIPOS>ATOM
      1 S1          0.2620   -0.0230    0.1800 ss        1 NX3      0.033200
      2 C2          1.8800   -0.4360    0.4650 cc        1 NX3     -0.277700
      3 C3          2.3140    0.0500    1.7210 cd        1 NX3      0.039900
      4 C4          1.2390    0.7470    2.3750 cd        1 NX3     -0.195000
      5 C5          0.0860    0.7640    1.6270 cc        1 NX3     -0.052100
      6 C6          2.7130   -1.1730   -0.4280 c         1 NX3      0.610700
      7 N7          2.1200   -1.5680   -1.7500 n4        1 NX3     -0.600700
      8 O8          3.8800   -1.5440   -0.2730 o         1 NX3     -0.494100
      9 S9          2.8170   -0.6010   -3.2780 sy        1 NX3      1.483200
     10 S10         3.8270   -0.1680    2.3180 ss        1 NX3      0.070000
     11 C11         3.8340    0.6320    3.9030 c3        1 NX3     -0.021000
     12 C12         5.2000    0.4290    4.4340 ca        1 NX3     -0.104300
     13 C13         6.1970    1.3880    4.2080 ca        1 NX3     -0.098000
     14 C14         7.4770    1.2040    4.7210 ca        1 NX3     -0.116000
     15 C15         7.7790    0.0600    5.4700 ca        1 NX3      0.035400
     16 C16         6.7820   -0.9010    5.7050 ca        1 NX3      0.014400
     17 C17         5.4960   -0.7120    5.1880 ca        1 NX3     -0.096000
     18 CL18        7.1040   -2.2950    6.6090 cl        1 NX3     -0.045400
     19 CL19        9.3440   -0.1370    6.0800 cl        1 NX3     -0.039400
     20 O20         1.6320   -0.3840   -3.9570 o         1 NX3     -0.569800
     21 O21         3.4860    0.4500   -2.6960 o         1 NX3     -0.569800
     22 C22         3.7290   -1.7830   -3.8650 ca        1 NX3     -0.485500
     23 C23         4.9990   -2.0510   -3.3260 ca        1 NX3     -0.029000
     24 C24         5.8100   -3.0350   -3.8880 ca        1 NX3     -0.106000
     25 C25         5.3780   -3.7700   -4.9810 ca        1 NX3     -0.083000
     26 C26         4.0900   -3.5380   -5.5470 ca        1 NX3      0.170600
     27 C27         3.2870   -2.5330   -4.9720 ca        1 NX3     -0.106000
     28 N28         3.6170   -4.3290   -6.5760 nh        1 NX3     -0.840200
     29 H4          1.3420    1.2100    3.3620 ha        1 NX3      0.179000
     30 H5         -0.8520    1.2390    1.9320 h4        1 NX3      0.202000
     31 HN7         2.3200   -2.5590   -1.8870 hn        1 NX3      0.451800
     32 H11         3.6020    1.7220    3.8020 h1        1 NX3      0.091200
     33 H11A        3.0690    0.1800    4.5820 h1        1 NX3      0.091200
     34 H13         5.9700    2.2940    3.6250 ha        1 NX3      0.146000
     35 H14         8.2550    1.9630    4.5420 ha        1 NX3      0.163000
     36 H17         4.7150   -1.4640    5.3820 ha        1 NX3      0.155000
     37 H23         5.3560   -1.4780   -2.4490 ha        1 NX3      0.175000
     38 H24         6.8080   -3.2270   -3.4580 ha        1 NX3      0.171000
     39 H25         6.0370   -4.5440   -5.4120 ha        1 NX3      0.165000
     40 H27         2.2920   -2.3120   -5.4010 ha        1 NX3      0.165000
     41 HN28        4.2800   -4.8700   -7.0790 hn        1 NX3      0.431800
     42 HN2A        2.8360   -3.9970   -7.0900 hn        1 NX3      0.431800
     43 H72         1.1090   -1.4570   -1.7280 hn        1 NX3      0.451800
@<TRIPOS>BOND
     1    1    2 1   
     2    1    5 1   
     3    2    3 2   
     4    2    6 1   
     5    3    4 1   
     6    3   10 1   
     7    4    5 2   
     8    4   29 1   
     9    5   30 1   
    10    6    7 1   
    11    6    8 2   
    12    7    9 1   
    13    7   31 1   
    14    7   43 1   
    15    9   20 2   
    16    9   21 2   
    17    9   22 1   
    18   10   11 1   
    19   11   12 1   
    20   11   32 1   
    21   11   33 1   
    22   12   13 ar  
    23   12   17 ar  
    24   13   14 ar  
    25   13   34 1   
    26   14   15 ar  
    27   14   35 1   
    28   15   16 ar  
    29   15   19 1   
    30   16   17 ar  
    31   16   18 1   
    32   17   36 1   
    33   22   23 ar  
    34   22   27 ar  
    35   23   24 ar  
    36   23   37 1   
    37   24   25 ar  
    38   24   38 1   
    39   25   26 ar  
    40   25   39 1   
    41   26   27 ar  
    42   26   28 1   
    43   27   40 1   
    44   28   41 1   
    45   28   42 1   
@<TRIPOS>SUBSTRUCTURE
     1 NX3         1 TEMP              0 ****  ****    0 ROOT
