@<TRIPOS>MOLECULE
NX3
   42    44     1     0     0
SMALL
bcc


@<TRIPOS>ATOM
      1 S1          2.3210   -3.5850    0.8580 ss        1 NX3      0.068200
      2 C2          1.4370   -2.2960    0.2330 cc        1 NX3     -0.213700
      3 C3          0.0630   -2.4780    0.4260 cd        1 NX3      0.005900
      4 C4         -0.1820   -3.7150    1.1160 cd        1 NX3     -0.186000
      5 C5          0.9810   -4.3940    1.3990 cc        1 NX3     -0.129100
      6 C6          2.0440   -1.1460   -0.4360 c         1 NX3      0.741700
      7 N7          3.4370   -1.0110   -0.3700 n         1 NX3     -0.673300
      8 O8          1.3830   -0.2900   -1.0520 o         1 NX3     -0.570100
      9 S9          4.4020    0.0930   -1.1400 sy        1 NX3      1.512900
     10 S10        -1.0940   -1.4000   -0.0870 ss        1 NX3     -0.000000
     11 C11        -2.6190   -2.0910    0.4980 c3        1 NX3     -0.029000
     12 C12        -3.6860   -1.1370    0.1200 ca        1 NX3     -0.072300
     13 C13        -4.2490   -1.1790   -1.1630 ca        1 NX3     -0.104000
     14 C14        -5.2610   -0.2920   -1.5160 ca        1 NX3     -0.116000
     15 C15        -5.7280    0.6480   -0.5900 ca        1 NX3      0.024400
     16 C16        -5.1680    0.6940    0.6960 ca        1 NX3      0.016400
     17 C17        -4.1500   -0.1980    1.0470 ca        1 NX3     -0.101000
     18 CL18       -5.7070    1.8170    1.8470 cl        1 NX3     -0.066400
     19 CL19       -6.9640    1.7140   -1.0470 cl        1 NX3     -0.063400
     20 O20         5.7280   -0.2940   -0.8280 o         1 NX3     -0.642800
     21 O21         4.0900    0.1780   -2.5020 o         1 NX3     -0.642800
     22 C22         4.0540    1.5410   -0.3670 ca        1 NX3     -0.359500
     23 C23         2.9180    2.2800   -0.7100 ca        1 NX3     -0.037000
     24 C24         2.6650    3.5040   -0.0940 ca        1 NX3     -0.123000
     25 C25         3.5330    4.0060    0.8670 ca        1 NX3     -0.120000
     26 C26         4.6870    3.2740    1.2390 ca        1 NX3      0.106600
     27 C27         4.9290    2.0400    0.6020 ca        1 NX3     -0.082000
     28 N28         5.5170    3.7230    2.2750 nh        1 NX3     -0.814200
     29 H4         -1.1830   -4.0670    1.3780 ha        1 NX3      0.158000
     30 H5          1.0340   -5.3550    1.9130 h4        1 NX3      0.180000
     31 HN7         3.8920   -1.6760    0.2180 hn        1 NX3      0.330500
     32 H11        -2.8050   -3.0910    0.0310 h1        1 NX3      0.077700
     33 H11A       -2.5920   -2.2380    1.6070 h1        1 NX3      0.077700
     34 H13        -3.8860   -1.9140   -1.8980 ha        1 NX3      0.149000
     35 H14        -5.6960   -0.3280   -2.5270 ha        1 NX3      0.155000
     36 H17        -3.7110   -0.1570    2.0560 ha        1 NX3      0.155000
     37 H23         2.2190    1.8830   -1.4690 ha        1 NX3      0.173000
     38 H24         1.7680    4.0790   -0.3730 ha        1 NX3      0.143000
     39 H25         3.3150    4.9740    1.3450 ha        1 NX3      0.137000
     40 H27         5.8300    1.4520    0.8590 ha        1 NX3      0.157000
     41 HN28        5.4990    4.7100    2.4090 hn        1 NX3      0.389800
     42 HN2A        6.4420    3.3530    2.2420 hn        1 NX3      0.389800
@<TRIPOS>BOND
     1    1    2 1   
     2    1    5 1   
     3    2    3 2   
     4    2    6 1   
     5    3    4 1   
     6    3   10 1   
     7    4    5 2   
     8    4   29 1   
     9    5   30 1   
    10    6    7 1   
    11    6    8 2   
    12    7    9 1   
    13    7   31 1   
    14    9   20 2   
    15    9   21 2   
    16    9   22 1   
    17   10   11 1   
    18   11   12 1   
    19   11   32 1   
    20   11   33 1   
    21   12   13 ar  
    22   12   17 ar  
    23   13   14 ar  
    24   13   34 1   
    25   14   15 ar  
    26   14   35 1   
    27   15   16 ar  
    28   15   19 1   
    29   16   17 ar  
    30   16   18 1   
    31   17   36 1   
    32   22   23 ar  
    33   22   27 ar  
    34   23   24 ar  
    35   23   37 1   
    36   24   25 ar  
    37   24   38 1   
    38   25   26 ar  
    39   25   39 1   
    40   26   27 ar  
    41   26   28 1   
    42   27   40 1   
    43   28   41 1   
    44   28   42 1   
@<TRIPOS>SUBSTRUCTURE
     1 NX3         1 TEMP              0 ****  ****    0 ROOT
