@<TRIPOS>MOLECULE
NX3
   42    35     1     0     0
SMALL
bcc


@<TRIPOS>ATOM
      1 S1         -2.6070   -0.7990    0.9890 ss        1 NX3      0.592000
      2 C2         -1.0650   -0.6530    0.8950 c1        1 NX3     -0.427500
      3 C3         -0.5260   -0.7330    2.2400 c1        1 NX3     -0.204000
      4 C4         -1.7370   -0.9360    3.2530 c1        1 NX3     -0.204000
      5 C5         -2.9700   -0.9730    2.4880 c1        1 NX3     -0.427500
      6 C6         -0.2580   -0.5600   -0.3820 c1        1 NX3      0.405000
      7 N7         -0.9040   -0.6860   -1.6390 n3        1 NX3     -0.858000
      8 O8          0.9510   -0.4480   -0.3290 o         1 NX3     -0.317000
      9 S9         -0.4560    0.2770   -2.8910 s4        1 NX3      2.078800
     10 S10         1.1890   -0.6300    2.6790 s         1 NX3      0.424000
     11 C11         1.3450    0.1160    4.2800 c3        1 NX3     -0.301000
     12 C12         2.7590    0.6200    4.4660 c2        1 NX3     -0.065000
     13 C13         3.1590    1.8010    3.8600 c2        1 NX3     -0.104000
     14 C14         4.4360    2.2940    4.0780 c1        1 NX3     -0.116000
     15 C15         5.3130    1.6070    4.9020 c1        1 NX3     -0.054000
     16 C16         4.9140    0.4260    5.5080 c1        1 NX3     -0.061000
     17 C17         3.6370   -0.0680    5.2900 c2        1 NX3     -0.101000
     18 CL18        6.0300   -0.4580    6.5150 cl        1 NX3      0.013000
     19 CL19        6.9200    2.2260    5.1750 cl        1 NX3      0.014000
     20 O20        -0.5890    1.6670   -2.5530 o         1 NX3     -0.522900
     21 O21         0.9550    0.1840   -3.1420 o         1 NX3     -0.522900
     22 C22        -1.3950   -0.1260   -4.3400 c1        1 NX3     -0.797000
     23 C23        -0.7440   -0.4100   -5.5300 c2        1 NX3     -0.062000
     24 C24        -1.4790   -0.6930   -6.6710 c1        1 NX3     -0.120000
     25 C25        -2.8640   -0.6910   -6.6220 c1        1 NX3     -0.128000
     26 C26        -3.5140   -0.4060   -5.4320 c1        1 NX3      0.034000
     27 C27        -2.7800   -0.1230   -4.2910 c1        1 NX3     -0.085000
     28 N28        -4.9320   -0.3780   -5.3870 n3        1 NX3     -0.326000
     29 H4         -1.6630   -1.0210    4.2220 DU        1 NX3      0.169000
     30 H5         -3.8680   -1.0870    2.8520 DU        1 NX3      0.169000
     31 HN7        -1.5500   -1.3180   -1.7580 hn        1 NX3      0.241000
     32 H11         0.7200    0.8650    4.3530 h1        1 NX3      0.116000
     33 H11A        1.1420   -0.5470    4.9700 h1        1 NX3      0.116000
     34 H13         2.5410    2.2850    3.2800 ha        1 NX3      0.147000
     35 H14         4.7170    3.1260    3.6520 ha        1 NX3      0.155000
     36 H17         3.3560   -0.8990    5.7170 ha        1 NX3      0.155000
     37 H23         0.2310   -0.4120   -5.5650 ha        1 NX3      0.159000
     38 H24        -1.0200   -0.8930   -7.5090 ha        1 NX3      0.142000
     39 H25        -3.3810   -0.8890   -7.4250 ha        1 NX3      0.138000
     40 H27        -3.2380    0.0770   -3.4530 ha        1 NX3      0.157000
     41 HN28       -5.4140   -0.4090   -6.1630 hn        1 NX3      0.189500
     42 HN2A       -5.3630   -0.3250   -4.5830 hn        1 NX3      0.189500
@<TRIPOS>BOND
     1    1    2 1   
     2    1    5 1   
     3    2    3 1   
     4    3    4 1   
     5    4    5 1   
     6    6    7 1   
     7    6    8 1   
     8    7    9 1   
     9    7   31 1   
    10    9   20 1   
    11    9   21 1   
    12   10   11 1   
    13   11   12 1   
    14   11   32 1   
    15   11   33 1   
    16   12   13 1   
    17   12   17 1   
    18   13   14 1   
    19   13   34 1   
    20   14   35 1   
    21   15   16 1   
    22   15   19 1   
    23   16   17 1   
    24   17   36 1   
    25   22   23 1   
    26   22   27 1   
    27   23   24 1   
    28   23   37 1   
    29   24   38 1   
    30   25   26 1   
    31   25   39 1   
    32   26   28 1   
    33   27   40 1   
    34   28   41 1   
    35   28   42 1   
@<TRIPOS>SUBSTRUCTURE
     1 NX3         1 TEMP              0 ****  ****    0 ROOT
