@<TRIPOS>MOLECULE
NX3
   43    44     1     0     0
SMALL
bcc


@<TRIPOS>ATOM
      1 S1          0.1020    0.0740    0.2580 ss        1 NX3      0.033200
      2 C2          1.7210   -0.3710    0.4670 cc        1 NX3     -0.267700
      3 C3          2.2130    0.0750    1.7110 cd        1 NX3      0.035900
      4 C4          1.1810    0.7750    2.4270 cd        1 NX3     -0.192000
      5 C5         -0.0010    0.8310    1.7280 cc        1 NX3     -0.067100
      6 C6          2.4900   -1.1140   -0.4900 c         1 NX3      0.673700
      7 N7          1.8650   -1.4540   -1.7690 nt        1 NX3     -0.728000
      8 O8          3.6680   -1.4840   -0.3710 o         1 NX3     -0.535100
      9 S9          2.8700   -0.4190   -3.5350 s4        1 NX3      1.657300
     10 S10         3.7500   -0.1860    2.2400 ss        1 NX3      0.043000
     11 C11         3.8270    0.5670    3.8460 c3        1 NX3     -0.021000
     12 C12         5.2080    0.3390    4.3250 ca        1 NX3     -0.097300
     13 C13         6.1980    1.3090    4.1200 ca        1 NX3     -0.100000
     14 C14         7.4920    1.1010    4.5840 ca        1 NX3     -0.116000
     15 C15         7.8170   -0.0820    5.2610 ca        1 NX3      0.032400
     16 C16         6.8280   -1.0550    5.4730 ca        1 NX3      0.014400
     17 C17         5.5270   -0.8400    5.0070 ca        1 NX3     -0.098000
     18 Cl18        7.1780   -2.4960    6.2900 cl        1 NX3     -0.049400
     19 Cl19        9.4010   -0.3080    5.8110 cl        1 NX3     -0.043400
     20 O20         1.7090   -0.2850   -4.2380 o         1 NX3     -0.435900
     21 O21         3.4140    0.6190   -2.8490 o         1 NX3     -0.435900
     22 C22         3.7940   -1.6400   -3.9010 ca        1 NX3     -0.535500
     23 C23         4.9850   -1.8940   -3.1920 ca        1 NX3     -0.001000
     24 C24         5.8140   -2.9500   -3.5610 ca        1 NX3     -0.111000
     25 C25         5.4820   -3.7770   -4.6220 ca        1 NX3     -0.067000
     26 C26         4.2740   -3.5680   -5.3550 ca        1 NX3      0.176600
     27 C27         3.4520   -2.4910   -4.9770 ca        1 NX3     -0.111000
     28 N28         3.8970   -4.4410   -6.3530 nv        1 NX3     -0.845200
     29 H4          1.3330    1.2110    3.4190 ha        1 NX3      0.176000
     30 H5         -0.9160    1.3150    2.0830 h4        1 NX3      0.197000
     31 HN7         0.8830   -1.2320   -1.7880 hn        1 NX3      0.306000
     32 H11         3.0820    0.1020    4.5400 h1        1 NX3      0.088200
     33 H11A        3.6010    1.6610    3.7850 h1        1 NX3      0.088200
     34 H13         5.9520    2.2450    3.5940 ha        1 NX3      0.146000
     35 H14         8.2650    1.8700    4.4230 ha        1 NX3      0.161000
     36 H17         4.7520   -1.6040    5.1820 ha        1 NX3      0.155000
     37 H23         5.2540   -1.2600   -2.3250 ha        1 NX3      0.184000
     38 H24         6.7460   -3.1300   -2.9960 ha        1 NX3      0.176000
     39 H25         6.1540   -4.6100   -4.8960 ha        1 NX3      0.168000
     40 H27         2.5150   -2.2930   -5.5310 ha        1 NX3      0.165000
     41 HN28        4.5800   -5.0640   -6.7120 hn        1 NX3      0.437300
     42 HN2A        3.1690   -4.1660   -6.9680 hn        1 NX3      0.437300
     43 H72         1.9890   -2.4380   -1.9550 hn        1 NX3      0.306000
@<TRIPOS>BOND
     1    1    2 1   
     2    1    5 1   
     3    2    3 2   
     4    2    6 1   
     5    3    4 1   
     6    3   10 1   
     7    4    5 2   
     8    4   29 1   
     9    5   30 1   
    10    6    7 1   
    11    6    8 2   
    12    7   31 1   
    13    7   43 1   
    14    9   20 1   
    15    9   21 1   
    16    9   22 1   
    17   10   11 1   
    18   11   12 1   
    19   11   32 1   
    20   11   33 1   
    21   12   13 ar  
    22   12   17 ar  
    23   13   14 ar  
    24   13   34 1   
    25   14   15 ar  
    26   14   35 1   
    27   15   16 ar  
    28   15   19 1   
    29   16   17 ar  
    30   16   18 1   
    31   17   36 1   
    32   22   23 ar  
    33   22   27 ar  
    34   23   24 ar  
    35   23   37 1   
    36   24   25 ar  
    37   24   38 1   
    38   25   26 ar  
    39   25   39 1   
    40   26   27 ar  
    41   26   28 1   
    42   27   40 1   
    43   28   41 1   
    44   28   42 1   
@<TRIPOS>SUBSTRUCTURE
     1 NX3         1 TEMP              0 ****  ****    0 ROOT
