@<TRIPOS>MOLECULE
NX3
   44    46     1     0     0
SMALL
bcc


@<TRIPOS>ATOM
      1 S1          0.1320    0.2030    0.2510 ss        1 NX3      0.004200
      2 C2          1.7580   -0.2500    0.4710 cc        1 NX3     -0.281700
      3 C3          2.2380    0.1920    1.7400 cd        1 NX3      0.043900
      4 C4          1.1910    0.8870    2.4400 cd        1 NX3     -0.199000
      5 C5          0.0190    0.9500    1.7290 cc        1 NX3     -0.010100
      6 C6          2.5450   -0.9640   -0.4520 c         1 NX3      0.620700
      7 N7          1.8820   -1.3270   -1.7900 n4        1 NX3     -0.639700
      8 O8          3.7070   -1.3770   -0.3930 o         1 NX3     -0.532100
      9 S9          2.7310   -0.6510   -3.2830 sy        1 NX3      1.448200
     10 S10         3.7480   -0.0640    2.2880 ss        1 NX3      0.115000
     11 C11         3.8320    0.6720    3.9040 c3        1 NX3     -0.015000
     12 C12         5.2160    0.4140    4.3550 ca        1 NX3     -0.123300
     13 C13         6.2080    1.3890    4.1870 ca        1 NX3     -0.093000
     14 C14         7.5040    1.1540    4.6340 ca        1 NX3     -0.115000
     15 C15         7.8300   -0.0590    5.2540 ca        1 NX3      0.042400
     16 C16         6.8350   -1.0380    5.4300 ca        1 NX3      0.011400
     17 C17         5.5320   -0.7950    4.9850 ca        1 NX3     -0.095000
     18 CL18        7.1820   -2.5130    6.1810 cl        1 NX3     -0.035400
     19 CL19        9.4120   -0.3170    5.7830 cl        1 NX3     -0.022400
     20 O20         1.6740   -0.5390   -4.1710 o         1 NX3     -0.545800
     21 O21         3.4510    0.4300   -2.8350 o         1 NX3     -0.545800
     22 C22         3.6950   -1.9360   -3.7110 ca        1 NX3     -0.446500
     23 C23         4.8850   -2.2140   -3.0190 ca        1 NX3      0.068000
     24 C24         5.7550   -3.2170   -3.4600 ca        1 NX3     -0.112000
     25 C25         5.4650   -3.9480   -4.6030 ca        1 NX3     -0.013000
     26 C26         4.2730   -3.6700   -5.3130 ca        1 NX3     -0.080400
     27 C27         3.3920   -2.6820   -4.8650 ca        1 NX3      0.021000
     28 N28         3.9840   -4.4180   -6.5380 n4        1 NX3     -0.706000
     29 H4          1.3290    1.3170    3.4390 ha        1 NX3      0.191000
     30 H5         -0.9020    1.4330    2.0760 h4        1 NX3      0.215000
     31 HN7         0.9120   -1.0020   -1.7790 hn        1 NX3      0.463300
     32 H11         3.6170    1.7690    3.8590 h1        1 NX3      0.100700
     33 H11A        3.0870    0.2030    4.5960 h1        1 NX3      0.100700
     34 H13         5.9640    2.3520    3.7120 ha        1 NX3      0.147000
     35 H14         8.2780    1.9300    4.5090 ha        1 NX3      0.169000
     36 H17         4.7530   -1.5580    5.1440 ha        1 NX3      0.154000
     37 H23         5.1500   -1.6290   -2.1100 ha        1 NX3      0.215000
     38 H24         6.6860   -3.4220   -2.8960 ha        1 NX3      0.208000
     39 H25         6.1700   -4.7300   -4.9450 ha        1 NX3      0.187000
     40 H27         2.4550   -2.4520   -5.4160 ha        1 NX3      0.188000
     41 HN28        3.0620   -4.1610   -6.9130 hn        1 NX3      0.478800
     42 HN2A        3.9960   -5.4290   -6.3400 hn        1 NX3      0.478800
     43 H72         1.8460   -2.3460   -1.8140 hn        1 NX3      0.463300
     44 H283        4.7020   -4.2090   -7.2470 hn        1 NX3      0.478800
@<TRIPOS>BOND
     1    1    2 1   
     2    1    5 1   
     3    2    3 2   
     4    2    6 1   
     5    3    4 1   
     6    3   10 1   
     7    4    5 2   
     8    4   29 1   
     9    5   30 1   
    10    6    7 1   
    11    6    8 2   
    12    7    9 1   
    13    7   31 1   
    14    7   43 1   
    15    9   20 2   
    16    9   21 2   
    17    9   22 1   
    18   10   11 1   
    19   11   12 1   
    20   11   32 1   
    21   11   33 1   
    22   12   13 ar  
    23   12   17 ar  
    24   13   14 ar  
    25   13   34 1   
    26   14   15 ar  
    27   14   35 1   
    28   15   16 ar  
    29   15   19 1   
    30   16   17 ar  
    31   16   18 1   
    32   17   36 1   
    33   22   23 ar  
    34   22   27 ar  
    35   23   24 ar  
    36   23   37 1   
    37   24   25 ar  
    38   24   38 1   
    39   25   26 ar  
    40   25   39 1   
    41   26   27 ar  
    42   26   28 1   
    43   27   40 1   
    44   28   41 1   
    45   28   42 1   
    46   28   44 1   
@<TRIPOS>SUBSTRUCTURE
     1 NX3         1 TEMP              0 ****  ****    0 ROOT
