@<TRIPOS>MOLECULE
NX4
   47    48     1     0     0
SMALL
bcc


@<TRIPOS>ATOM
      1 C1          0.5020    0.5080   -0.5650 cc        1 NX4      0.038900
      2 C2          2.3230   -1.2430   -0.8550 c         1 NX4      0.667700
      3 N3          3.6880   -1.1560   -1.3310 n         1 NX4     -0.713000
      4 S4         -0.6390   -0.2230   -1.5190 ss        1 NX4     -0.051000
      5 C5         -1.9310    0.9850   -1.7340 c3        1 NX4     -0.019000
      6 C6         -2.8590    0.4030   -2.7270 ca        1 NX4     -0.083300
      7 C7         -3.7860   -0.5740   -2.3410 ca        1 NX4     -0.112000
      8 C8         -4.6710   -1.1100   -3.2710 ca        1 NX4     -0.130000
      9 C9         -4.6410   -0.6710   -4.6000 ca        1 NX4      0.022400
     10 C10        -3.7190    0.3120   -4.9890 ca        1 NX4      0.012400
     11 C11        -2.8280    0.8500   -4.0530 ca        1 NX4     -0.086000
     12 CL12       -5.7340   -1.3430   -5.7120 cl        1 NX4     -0.080400
     13 CL13       -3.6640    0.8670   -6.5910 cl        1 NX4     -0.066400
     14 O14         1.7390   -2.3230   -0.9990 o         1 NX4     -0.497100
     15 S15         3.9800   -0.3970   -3.6340 s4        1 NX4      1.683300
     16 O16         3.0950   -1.2900   -4.1460 o         1 NX4     -0.455900
     17 O17         5.3060   -0.7240   -3.5430 o         1 NX4     -0.455900
     18 C18         1.7680   -0.0230   -0.2990 cd        1 NX4     -0.253700
     19 C19         0.3450    1.7780    0.1050 cc        1 NX4     -0.136000
     20 C20         1.4360    2.1080    0.8650 cd        1 NX4     -0.092100
     21 S21         2.6390    0.9530    0.7740 ss        1 NX4     -0.047800
     22 C22         3.6000    1.0700   -3.4720 ca        1 NX4     -0.694500
     23 C23         4.5630    2.0850   -3.1940 ca        1 NX4      0.051000
     24 C24         4.2160    3.4030   -3.0590 ca        1 NX4     -0.259000
     25 C25         2.8500    3.7910   -3.1630 ca        1 NX4      0.305100
     26 C26         1.8540    2.8090   -3.4090 ca        1 NX4     -0.181600
     27 C27         2.2400    1.5050   -3.5940 ca        1 NX4      0.054000
     28 O28         2.4230    5.0670   -3.0550 os        1 NX4     -0.237900
     29 C29         3.3990    6.0810   -2.7980 c3        1 NX4      0.095700
     30 C30         0.3520    3.1350   -3.4040 c         1 NX4      0.927200
     31 O31        -0.2970    2.8310   -4.4340 o         1 NX4     -0.789800
     32 O32        -0.1150    3.6040   -2.3340 o         1 NX4     -0.789800
     33 HN3         4.2420   -0.5330   -0.7720 hn        1 NX4      0.290000
     34 H5         -2.4480    1.1700   -0.7610 h1        1 NX4      0.114700
     35 H5A        -1.5090    1.9670   -2.0990 h1        1 NX4      0.114700
     36 H7         -3.8160   -0.9210   -1.2980 ha        1 NX4      0.139000
     37 H8         -5.3960   -1.8790   -2.9630 ha        1 NX4      0.147000
     38 H11        -2.0990    1.6330   -4.3570 ha        1 NX4      0.217000
     39 H19        -0.5280    2.4240   -0.0540 ha        1 NX4      0.199000
     40 H20         1.5340    3.0140    1.4640 h4        1 NX4      0.182000
     41 H23         5.6230    1.7850   -3.0960 ha        1 NX4      0.149000
     42 H24         4.9920    4.1590   -2.8630 ha        1 NX4      0.156000
     43 H27         1.4560    0.7580   -3.8400 ha        1 NX4      0.187000
     44 H29         4.1350    6.1360   -3.6360 h1        1 NX4      0.062033
     45 H29A        2.7780    7.0130   -2.7490 h1        1 NX4      0.062033
     46 H29B        3.9100    5.8930   -1.8240 h1        1 NX4      0.062033
     47 H32         4.1180   -2.0660   -1.3720 hn        1 NX4      0.290000
@<TRIPOS>BOND
     1    1    4 1   
     2    1   18 2   
     3    1   19 1   
     4    2    3 1   
     5    2   14 2   
     6    2   18 1   
     7    3   33 1   
     8    3   47 1   
     9    4    5 1   
    10    5    6 1   
    11    5   34 1   
    12    5   35 1   
    13    6    7 ar  
    14    6   11 ar  
    15    7    8 ar  
    16    7   36 1   
    17    8    9 ar  
    18    8   37 1   
    19    9   10 ar  
    20    9   12 1   
    21   10   11 ar  
    22   10   13 1   
    23   11   38 1   
    24   15   16 1   
    25   15   17 1   
    26   15   22 1   
    27   18   21 1   
    28   19   20 2   
    29   19   39 1   
    30   20   21 1   
    31   20   40 1   
    32   22   23 ar  
    33   22   27 ar  
    34   23   24 ar  
    35   23   41 1   
    36   24   25 ar  
    37   24   42 1   
    38   25   26 ar  
    39   25   28 1   
    40   26   27 ar  
    41   26   30 1   
    42   27   43 1   
    43   28   29 1   
    44   29   44 1   
    45   29   45 1   
    46   29   46 1   
    47   30   31 1   
    48   30   32 1   
@<TRIPOS>SUBSTRUCTURE
     1 NX4         1 TEMP              0 ****  ****    0 ROOT
