@<TRIPOS>MOLECULE
NX4
   46    48     1     0     0
SMALL
bcc


@<TRIPOS>ATOM
      1 C1          0.0680    3.0310    0.0850 cc        1 NX4     -0.016100
      2 C2         -2.2480    3.1180   -1.0360 c         1 NX4      0.741700
      3 N3         -2.6190    1.8270   -0.6800 n         1 NX4     -0.661300
      4 S4          0.3250    1.4030   -0.1920 ss        1 NX4     -0.096000
      5 C5          1.4690    0.8280    1.0330 c3        1 NX4     -0.021000
      6 C6          2.7840    0.4790    0.4530 ca        1 NX4     -0.062300
      7 C7          3.7970    1.4370    0.3290 ca        1 NX4     -0.127000
      8 C8          5.0350    1.0920   -0.2050 ca        1 NX4     -0.134000
      9 C9          5.2740   -0.2220   -0.6190 ca        1 NX4      0.012400
     10 C10         4.2660   -1.1890   -0.4930 ca        1 NX4      0.016400
     11 C11         3.0220   -0.8420    0.0450 ca        1 NX4     -0.084000
     12 CL12        6.7980   -0.6120   -1.2680 cl        1 NX4     -0.103400
     13 CL13        4.5340   -2.7910   -0.9840 cl        1 NX4     -0.069400
     14 O14        -2.9100    3.7600   -1.8750 o         1 NX4     -0.589100
     15 S15        -3.7770    0.8510   -1.3710 sy        1 NX4      1.534900
     16 O16        -5.0690    1.3490   -1.1070 o         1 NX4     -0.658800
     17 O17        -3.4890    0.6390   -2.7260 o         1 NX4     -0.658800
     18 C18        -1.0740    3.7030   -0.3610 cd        1 NX4     -0.202700
     19 C19         0.9600    3.9460    0.7360 cc        1 NX4     -0.168000
     20 C20         0.4700    5.2340    0.7380 cd        1 NX4     -0.179100
     21 S21        -0.9940    5.3430   -0.0250 ss        1 NX4      0.118200
     22 C22        -3.5200   -0.5260   -0.4680 ca        1 NX4     -0.462500
     23 C23        -4.5820   -1.1170    0.2310 ca        1 NX4      0.004000
     24 C24        -4.3960   -2.2550    1.0000 ca        1 NX4     -0.257000
     25 C25        -3.1130   -2.8250    1.0990 ca        1 NX4      0.207100
     26 C26        -2.0220   -2.2620    0.4020 ca        1 NX4     -0.156600
     27 C27        -2.2530   -1.1340   -0.3740 ca        1 NX4      0.011000
     28 O28        -2.8320   -3.9160    1.8870 os        1 NX4     -0.280900
     29 C29        -3.9440   -4.5840    2.4670 c3        1 NX4      0.110700
     30 C30        -0.6080   -2.8270    0.4850 c         1 NX4      0.933200
     31 O31        -0.3940   -3.9890    0.0630 o         1 NX4     -0.824800
     32 O32         0.2830   -2.0580    0.9570 o         1 NX4     -0.824800
     33 HN3        -2.0480    1.4360    0.0480 hn        1 NX4      0.349500
     34 H5          1.5780    1.5540    1.8720 h1        1 NX4      0.121700
     35 H5A         0.9710   -0.1120    1.4310 h1        1 NX4      0.121700
     36 H7          3.6190    2.4730    0.6520 ha        1 NX4      0.125000
     37 H8          5.8240    1.8510   -0.3020 ha        1 NX4      0.136000
     38 H11         2.2170   -1.6060    0.1610 ha        1 NX4      0.236000
     39 H19         1.9160    3.6400    1.1680 ha        1 NX4      0.153000
     40 H20         0.9790    6.0910    1.1780 h4        1 NX4      0.167000
     41 H23        -5.5840   -0.6570    0.1700 ha        1 NX4      0.144000
     42 H24        -5.2520   -2.6950    1.5300 ha        1 NX4      0.128000
     43 H27        -1.3930   -0.7040   -0.9200 ha        1 NX4      0.153000
     44 H29        -4.4520   -3.9280    3.2160 h1        1 NX4      0.037700
     45 H29A       -4.6690   -4.9130    1.6840 h1        1 NX4      0.037700
     46 H29B       -3.4790   -5.4690    2.9710 h1        1 NX4      0.037700
@<TRIPOS>BOND
     1    1    4 1   
     2    1   18 2   
     3    1   19 1   
     4    2    3 1   
     5    2   14 2   
     6    2   18 1   
     7    3   15 1   
     8    3   33 1   
     9    4    5 1   
    10    5    6 1   
    11    5   34 1   
    12    5   35 1   
    13    6    7 ar  
    14    6   11 ar  
    15    7    8 ar  
    16    7   36 1   
    17    8    9 ar  
    18    8   37 1   
    19    9   10 ar  
    20    9   12 1   
    21   10   11 ar  
    22   10   13 1   
    23   11   38 1   
    24   15   16 2   
    25   15   17 2   
    26   15   22 1   
    27   18   21 1   
    28   19   20 2   
    29   19   39 1   
    30   20   21 1   
    31   20   40 1   
    32   22   23 ar  
    33   22   27 ar  
    34   23   24 ar  
    35   23   41 1   
    36   24   25 ar  
    37   24   42 1   
    38   25   26 ar  
    39   25   28 1   
    40   26   27 ar  
    41   26   30 1   
    42   27   43 1   
    43   28   29 1   
    44   29   44 1   
    45   29   45 1   
    46   29   46 1   
    47   30   31 1   
    48   30   32 1   
@<TRIPOS>SUBSTRUCTURE
     1 NX4         1 TEMP              0 ****  ****    0 ROOT
