@<TRIPOS>MOLECULE
NX4
   46    39     1     0     0
SMALL
bcc


@<TRIPOS>ATOM
      1 C1         -2.7780    0.9620    1.2200 c1        1 NX4     -0.240000
      2 C2         -0.3900    0.7250    0.1190 c1        1 NX4      0.409000
      3 N3          1.0150    0.7550    0.3240 n2        1 NX4     -0.847000
      4 S4         -3.7520    0.8740   -0.2610 s         1 NX4      0.356000
      5 C5         -5.3690    0.2530    0.1310 c3        1 NX4     -0.290000
      6 C6         -6.0310   -0.2610   -1.1290 c2        1 NX4     -0.051000
      7 C7         -5.6640   -1.4900   -1.6530 c2        1 NX4     -0.102000
      8 C8         -6.2880   -1.9720   -2.7930 c1        1 NX4     -0.117000
      9 C9         -7.2790   -1.2240   -3.4090 c1        1 NX4     -0.059000
     10 C10        -7.6460    0.0050   -2.8850 c1        1 NX4     -0.062000
     11 C11        -7.0220    0.4870   -1.7450 c2        1 NX4     -0.106000
     12 CL12       -8.0580   -1.8260   -4.8480 cl        1 NX4      0.000000
     13 CL13       -8.9150    0.9320   -3.6410 cl        1 NX4     -0.000000
     14 O14        -0.8360    0.5820   -1.0010 o         1 NX4     -0.321000
     15 S15         1.9740   -0.3580   -0.4050 s4        1 NX4      2.087800
     16 O16         1.5480   -1.6950   -0.0980 o         1 NX4     -0.543400
     17 O17         1.8100   -0.3340   -1.8320 o         1 NX4     -0.543400
     18 C18        -1.3280    0.9230    1.2880 c2        1 NX4     -0.466000
     19 C19        -3.3440    1.0820    2.7030 c1        1 NX4     -0.189000
     20 C20        -2.2200    1.1110    3.6190 c1        1 NX4     -0.446000
     21 S21        -0.9180    1.0130    2.7810 ss        1 NX4      0.727000
     22 C22         3.6690   -0.1020    0.0530 c1        1 NX4     -0.899000
     23 C23         3.9930    0.2080    1.3640 c2        1 NX4     -0.025000
     24 C24         5.3180    0.4030    1.7230 c1        1 NX4     -0.194000
     25 C25         6.3170    0.2890    0.7700 c1        1 NX4      0.148000
     26 C26         5.9930   -0.0210   -0.5410 c1        1 NX4     -0.146000
     27 C27         4.6690   -0.2170   -0.9000 c2        1 NX4      0.006000
     28 O28         7.6550    0.5330    1.1230 os        1 NX4     -0.240000
     29 C29         8.1860   -0.4060    2.0300 c3        1 NX4     -0.090000
     30 C30         7.0830   -0.1380   -1.5830 c1        1 NX4      0.372000
     31 O31         7.4780    0.8860   -2.1990 o         1 NX4     -0.549500
     32 O32         7.5830   -1.2630   -1.8460 o         1 NX4     -0.549500
     33 HN3         1.3850    1.4010    0.8520 hn        1 NX4      0.250000
     34 H5         -5.2900   -0.4770    0.7780 h1        1 NX4      0.114000
     35 H5A        -5.9100    0.9720    0.5140 h1        1 NX4      0.114000
     36 H7         -4.9680   -2.0180   -1.2170 ha        1 NX4      0.155000
     37 H8         -6.0290   -2.8370   -3.1620 ha        1 NX4      0.153000
     38 H11        -7.2850    1.3500   -1.3720 ha        1 NX4      0.153000
     39 H19        -4.2860    1.1280    2.9520 DU        1 NX4      0.161000
     40 H20        -2.2730    1.1790    4.5910 DU        1 NX4      0.161000
     41 H23         3.2880    0.3010    2.0320 ha        1 NX4      0.143000
     42 H24         5.5490    0.5890    2.6530 ha        1 NX4      0.136000
     43 H27         4.4400   -0.4340   -1.8230 ha        1 NX4      0.149000
     44 H29         7.6550   -0.4000    2.8550 h1        1 NX4      0.092667
     45 H29A        9.1160   -0.1700    2.2370 h1        1 NX4      0.092667
     46 H29B        8.1570   -1.3010    1.6280 h1        1 NX4      0.092667
@<TRIPOS>BOND
     1    1   18 1   
     2    1   19 1   
     3    2   14 1   
     4    2   18 1   
     5    3   15 1   
     6    3   33 1   
     7    4    5 1   
     8    5    6 1   
     9    5   34 1   
    10    5   35 1   
    11    6    7 1   
    12    6   11 1   
    13    7    8 1   
    14    7   36 1   
    15    8   37 1   
    16    9   10 1   
    17    9   12 1   
    18   10   11 1   
    19   11   38 1   
    20   15   16 1   
    21   15   17 1   
    22   18   21 1   
    23   19   20 1   
    24   20   21 1   
    25   22   23 1   
    26   22   27 1   
    27   23   24 1   
    28   23   41 1   
    29   24   42 1   
    30   25   26 1   
    31   25   28 1   
    32   26   27 1   
    33   27   43 1   
    34   28   29 1   
    35   29   44 1   
    36   29   45 1   
    37   29   46 1   
    38   30   31 1   
    39   30   32 1   
@<TRIPOS>SUBSTRUCTURE
     1 NX4         1 TEMP              0 ****  ****    0 ROOT
