@<TRIPOS>MOLECULE
NX4
   47    48     1     0     0
SMALL
bcc


@<TRIPOS>ATOM
      1 C1          0.4910    0.5450   -0.5500 cc        1 NX4      0.038900
      2 C2          2.2820   -1.2410   -0.8120 c         1 NX4      0.667700
      3 N3          3.6470   -1.1850   -1.2910 nt        1 NX4     -0.713000
      4 S4         -0.6640   -0.1820   -1.4900 ss        1 NX4     -0.050000
      5 C5         -1.9350    1.0430   -1.7240 c3        1 NX4     -0.019000
      6 C6         -2.8750    0.4600   -2.7060 ca        1 NX4     -0.083300
      7 C7         -3.8190   -0.4940   -2.3020 ca        1 NX4     -0.112000
      8 C8         -4.7140   -1.0310   -3.2210 ca        1 NX4     -0.130000
      9 C9         -4.6780   -0.6160   -4.5570 ca        1 NX4      0.022400
     10 C10        -3.7390    0.3430   -4.9650 ca        1 NX4      0.012400
     11 C11        -2.8380    0.8820   -4.0400 ca        1 NX4     -0.086000
     12 Cl12       -5.7840   -1.2900   -5.6560 cl        1 NX4     -0.080400
     13 Cl13       -3.6780    0.8690   -6.5770 cl        1 NX4     -0.066400
     14 O14         1.6800   -2.3130   -0.9380 o         1 NX4     -0.497100
     15 S15         3.9500   -0.4700   -3.6070 s4        1 NX4      1.683300
     16 O16         3.0490   -1.3580   -4.1030 o         1 NX4     -0.455900
     17 O17         5.2710   -0.8170   -3.5120 o         1 NX4     -0.455900
     18 C18         1.7480   -0.0020   -0.2780 cd        1 NX4     -0.253700
     19 C19         0.3560    1.8290    0.0970 cc        1 NX4     -0.136000
     20 C20         1.4540    2.1540    0.8500 cd        1 NX4     -0.092100
     21 S21         2.6370    0.9780    0.7770 ss        1 NX4     -0.047800
     22 C22         3.5950    1.0050   -3.4700 ca        1 NX4     -0.694500
     23 C23         4.5750    2.0090   -3.2110 ca        1 NX4      0.051000
     24 C24         4.2500    3.3350   -3.0980 ca        1 NX4     -0.259000
     25 C25         2.8900    3.7430   -3.2080 ca        1 NX4      0.305100
     26 C26         1.8770    2.7740   -3.4360 ca        1 NX4     -0.181600
     27 C27         2.2410    1.4600   -3.5980 ca        1 NX4      0.054000
     28 O28         2.4840    5.0280   -3.1210 os        1 NX4     -0.237900
     29 C29         3.4770    6.0300   -2.8820 c3        1 NX4      0.095700
     30 C30         0.3810    3.1250   -3.4350 c         1 NX4      0.927200
     31 O31        -0.2740    2.8130   -4.4590 o         1 NX4     -0.789800
     32 O32        -0.0770    3.6200   -2.3730 o         1 NX4     -0.789800
     33 HN3         4.2130   -0.5620   -0.7430 hn        1 NX4      0.290000
     34 H5         -2.4480    1.2540   -0.7540 h1        1 NX4      0.114700
     35 H5A        -1.4980    2.0110   -2.1070 h1        1 NX4      0.114700
     36 H7         -3.8530   -0.8230   -1.2520 ha        1 NX4      0.139000
     37 H8         -5.4510   -1.7820   -2.8990 ha        1 NX4      0.147000
     38 H11        -2.0970    1.6470   -4.3580 ha        1 NX4      0.217000
     39 H19        -0.5060    2.4870   -0.0720 ha        1 NX4      0.199000
     40 H20         1.5680    3.0690    1.4330 h4        1 NX4      0.182000
     41 H23         5.6300    1.6920   -3.1080 ha        1 NX4      0.149000
     42 H24         5.0380    4.0800   -2.9160 ha        1 NX4      0.156000
     43 H27         1.4450    0.7220   -3.8320 ha        1 NX4      0.187000
     44 H29         4.2130    6.0580   -3.7220 h1        1 NX4      0.062033
     45 H29A        2.8710    6.9720   -2.8490 h1        1 NX4      0.062033
     46 H29B        3.9860    5.8500   -1.9050 h1        1 NX4      0.062033
     47 H32         4.0610   -2.1030   -1.3170 hn        1 NX4      0.290000
@<TRIPOS>BOND
     1    1    4 1   
     2    1   18 2   
     3    1   19 1   
     4    2    3 1   
     5    2   14 2   
     6    2   18 1   
     7    3   33 1   
     8    3   47 1   
     9    4    5 1   
    10    5    6 1   
    11    5   34 1   
    12    5   35 1   
    13    6    7 ar  
    14    6   11 ar  
    15    7    8 ar  
    16    7   36 1   
    17    8    9 ar  
    18    8   37 1   
    19    9   10 ar  
    20    9   12 1   
    21   10   11 ar  
    22   10   13 1   
    23   11   38 1   
    24   15   16 1   
    25   15   17 1   
    26   15   22 1   
    27   18   21 1   
    28   19   20 2   
    29   19   39 1   
    30   20   21 1   
    31   20   40 1   
    32   22   23 ar  
    33   22   27 ar  
    34   23   24 ar  
    35   23   41 1   
    36   24   25 ar  
    37   24   42 1   
    38   25   26 ar  
    39   25   28 1   
    40   26   27 ar  
    41   26   30 1   
    42   27   43 1   
    43   28   29 1   
    44   29   44 1   
    45   29   45 1   
    46   29   46 1   
    47   30   31 1   
    48   30   32 1   
@<TRIPOS>SUBSTRUCTURE
     1 NX4         1 TEMP              0 ****  ****    0 ROOT
