@<TRIPOS>MOLECULE
NX5
   28    30     1     0     0
SMALL
bcc


@<TRIPOS>ATOM
      1 C1         -2.8330    0.6990    0.0120 ca        1 NX5      0.191500
      2 S2         -1.3630   -0.0970    0.1850 s4        1 NX5     -0.498000
      3 C3         -0.1780    1.2980    0.1980 c3        1 NX5      0.011200
      4 C4          1.1760    0.7700    0.3530 ca        1 NX5      0.040700
      5 C5          1.9960    0.5570   -0.7670 ca        1 NX5     -0.147000
      6 C6          2.9770   -0.0280    1.7810 ca        1 NX5     -0.109000
      7 C7          1.6880    0.4660    1.6270 ca        1 NX5     -0.146000
      8 C8          3.2930    0.0660   -0.6150 ca        1 NX5      0.036400
      9 C9          3.7920   -0.2260    0.6610 ca        1 NX5     -0.021600
     10 CL10        5.3740   -0.8180    0.8810 cl        1 NX5     -0.116400
     11 CL11        4.2550   -0.1670   -2.0030 cl        1 NX5     -0.112400
     12 C12        -3.1010    2.0680   -0.1060 ca        1 NX5     -0.174000
     13 C13        -4.4130    2.5160   -0.2420 ca        1 NX5     -0.111000
     14 C14        -5.4790    1.6170   -0.2640 ca        1 NX5     -0.202000
     15 C15        -5.2300    0.2460   -0.1480 ca        1 NX5     -0.061000
     16 C16        -3.9260   -0.2070   -0.0120 ca        1 NX5     -0.187600
     17 C17        -3.5300   -1.6400    0.1230 c         1 NX5      0.735200
     18 O18        -4.3270   -2.6010    0.1310 o         1 NX5     -0.742500
     19 O19        -2.2390   -1.8180    0.2360 os        1 NX5     -0.369900
     20 H3         -0.2870    1.8680   -0.7530 h1        1 NX5      0.046200
     21 H3A        -0.4440    1.9710    1.0460 h1        1 NX5      0.046200
     22 H5          1.6030    0.7730   -1.7730 ha        1 NX5      0.148000
     23 H6          3.3600   -0.2670    2.7840 ha        1 NX5      0.134000
     24 H7          1.0470    0.6100    2.5100 ha        1 NX5      0.141000
     25 H12        -2.2770    2.7940   -0.0910 ha        1 NX5      0.120000
     26 H13        -4.6090    3.5940   -0.3340 ha        1 NX5      0.103000
     27 H14        -6.5080    1.9820   -0.3730 ha        1 NX5      0.108000
     28 H15        -6.0530   -0.4840   -0.1620 ha        1 NX5      0.137000
@<TRIPOS>BOND
     1    1    2 1   
     2    1   12 ar  
     3    1   16 ar  
     4    2    3 1   
     5    2   19 1   
     6    3    4 1   
     7    3   20 1   
     8    3   21 1   
     9    4    5 ar  
    10    4    7 ar  
    11    5    8 ar  
    12    5   22 1   
    13    6    7 ar  
    14    6    9 ar  
    15    6   23 1   
    16    7   24 1   
    17    8    9 ar  
    18    8   11 1   
    19    9   10 1   
    20   12   13 ar  
    21   12   25 1   
    22   13   14 ar  
    23   13   26 1   
    24   14   15 ar  
    25   14   27 1   
    26   15   16 ar  
    27   15   28 1   
    28   16   17 1   
    29   17   18 2   
    30   17   19 1   
@<TRIPOS>SUBSTRUCTURE
     1 NX5         1 TEMP              0 ****  ****    0 ROOT
