@<TRIPOS>MOLECULE
NX5
   28    30     1     0     0
SMALL
bcc


@<TRIPOS>ATOM
      1 C1          0.2150    0.0050   -0.0360 ca        1 NX5      0.191500
      2 S2         -0.6960   -0.0000   -1.4480 s4        1 NX5     -0.498000
      3 C3          0.6040    0.0520   -2.7350 c3        1 NX5      0.011200
      4 C4         -0.0310    0.0450   -4.0520 ca        1 NX5      0.040700
      5 C5         -0.2590    1.2450   -4.7450 ca        1 NX5     -0.147000
      6 C6         -1.0180   -1.1770   -5.9090 ca        1 NX5     -0.109000
      7 C7         -0.4240   -1.1640   -4.6540 ca        1 NX5     -0.146000
      8 C8         -0.8520    1.2330   -6.0080 ca        1 NX5      0.036400
      9 C9         -1.2320    0.0210   -6.5990 ca        1 NX5     -0.021600
     10 Cl10       -1.9500   -0.0270   -8.1430 cl        1 NX5     -0.116400
     11 Cl11       -1.1000    2.7140   -6.8160 cl        1 NX5     -0.112400
     12 C12         1.6040    0.0490    0.1340 ca        1 NX5     -0.174000
     13 C13         2.1550    0.0450    1.4130 ca        1 NX5     -0.111000
     14 C14         1.3400   -0.0040    2.5430 ca        1 NX5     -0.202000
     15 C15        -0.0490   -0.0500    2.3940 ca        1 NX5     -0.061000
     16 C16        -0.6040   -0.0450    1.1230 ca        1 NX5     -0.187600
     17 C17        -2.0670   -0.0920    0.8300 c         1 NX5      0.735200
     18 O18        -2.9650   -0.1440    1.6960 o         1 NX5     -0.742500
     19 O19        -2.3470   -0.0760   -0.4470 os        1 NX5     -0.369900
     20 H3          1.2190    0.9690   -2.5840 h1        1 NX5      0.046200
     21 H3A         1.2600   -0.8400   -2.6030 h1        1 NX5      0.046200
     22 H5          0.0270    2.2000   -4.2800 ha        1 NX5      0.148000
     23 H6         -1.3260   -2.1310   -6.3630 ha        1 NX5      0.134000
     24 H7         -0.2670   -2.1080   -4.1110 ha        1 NX5      0.141000
     25 H12         2.2650    0.0890   -0.7440 ha        1 NX5      0.120000
     26 H13         3.2480    0.0800    1.5300 ha        1 NX5      0.103000
     27 H14         1.7860   -0.0070    3.5460 ha        1 NX5      0.108000
     28 H15        -0.7140   -0.0890    3.2690 ha        1 NX5      0.137000
@<TRIPOS>BOND
     1    1    2 1   
     2    1   12 ar  
     3    1   16 ar  
     4    2    3 1   
     5    2   19 1   
     6    3    4 1   
     7    3   20 1   
     8    3   21 1   
     9    4    5 ar  
    10    4    7 ar  
    11    5    8 ar  
    12    5   22 1   
    13    6    7 ar  
    14    6    9 ar  
    15    6   23 1   
    16    7   24 1   
    17    8    9 ar  
    18    8   11 1   
    19    9   10 1   
    20   12   13 ar  
    21   12   25 1   
    22   13   14 ar  
    23   13   26 1   
    24   14   15 ar  
    25   14   27 1   
    26   15   16 ar  
    27   15   28 1   
    28   16   17 1   
    29   17   18 2   
    30   17   19 1   
@<TRIPOS>SUBSTRUCTURE
     1 NX5         1 TEMP              0 ****  ****    0 ROOT
