@<TRIPOS>MOLECULE
NX5
   28    24     1     0     0
SMALL
bcc


@<TRIPOS>ATOM
      1 C1          0.8300    0.8600    1.6270 c1        1 NX5     -0.205000
      2 S2         -0.0850    0.9240    0.1090 s         1 NX5      0.156000
      3 C3         -0.6210   -0.7090   -0.3270 c3        1 NX5     -0.274000
      4 C4         -0.8360   -0.7880   -1.8230 c2        1 NX5     -0.036000
      5 C5         -0.1390   -1.7210   -2.5740 c2        1 NX5     -0.126000
      6 C6         -2.0070   -0.0760   -3.7940 c1        1 NX5     -0.123000
      7 C7         -1.7700    0.0350   -2.4330 c1        1 NX5     -0.088000
      8 C8         -0.3760   -1.8320   -3.9350 c1        1 NX5     -0.072000
      9 C9         -1.3100   -1.0090   -4.5450 c1        1 NX5     -0.069000
     10 CL10       -1.5890   -1.1290   -6.2620 cl        1 NX5     -0.034000
     11 CL11        0.5300   -2.9770   -4.8880 cl        1 NX5     -0.037000
     12 C12         2.1850    0.5720    1.6080 c2        1 NX5     -0.128000
     13 C13         2.9080    0.5560    2.7900 c1        1 NX5     -0.157000
     14 C14         2.2740    0.8290    3.9930 c1        1 NX5     -0.129500
     15 C15         0.9190    1.1180    4.0120 c1        1 NX5     -0.129500
     16 C16         0.1970    1.1330    2.8300 c1        1 NX5     -0.063000
     17 C17        -1.2770    1.4770    2.8480 c2        1 NX5      0.348000
     18 O18        -2.1210    0.6120    3.2000 o         1 NX5     -0.557000
     19 O19        -1.6560    2.6380    2.5410 o         1 NX5     -0.557000
     20 H3         -1.4600   -0.9110    0.1340 h1        1 NX5      0.147500
     21 H3A         0.0600   -1.3580   -0.0610 h1        1 NX5      0.147500
     22 H5          0.5190   -2.3000   -2.1450 ha        1 NX5      0.140000
     23 H6         -2.6650    0.5030   -4.2230 ha        1 NX5      0.149000
     24 H7         -2.2610    0.6920   -1.9030 ha        1 NX5      0.223000
     25 H12         2.6310    0.3790    0.7610 ha        1 NX5      0.122000
     26 H13         3.8620    0.3530    2.7770 ha        1 NX5      0.108000
     27 H14         2.7830    0.8180    4.8260 ha        1 NX5      0.122000
     28 H15         0.4730    1.3100    4.8590 ha        1 NX5      0.122000
@<TRIPOS>BOND
     1    1   12 1   
     2    1   16 1   
     3    2    3 1   
     4    3    4 1   
     5    3   20 1   
     6    3   21 1   
     7    4    5 1   
     8    4    7 1   
     9    5    8 1   
    10    5   22 1   
    11    6    9 1   
    12    6   23 1   
    13    7   24 1   
    14    8   11 1   
    15    9   10 1   
    16   12   13 1   
    17   12   25 1   
    18   13   26 1   
    19   14   15 1   
    20   14   27 1   
    21   15   28 1   
    22   16   17 1   
    23   17   18 1   
    24   17   19 1   
@<TRIPOS>SUBSTRUCTURE
     1 NX5         1 TEMP              0 ****  ****    0 ROOT
