@<TRIPOS>MOLECULE
NX6
   30    27     1     0     0
SMALL
bcc


@<TRIPOS>ATOM
      1 C          -2.5430   -1.9120    2.1620 c1        1 NX6      0.324000
      2 N          -0.4110   -0.8930    1.6960 n         1 NX6     -0.270000
      3 O          -3.1090   -0.8180    2.3470 o         1 NX6     -0.594000
      4 C1         -0.2390   -0.8890    0.2990 c2        1 NX6      0.397000
      5 O1         -0.6320   -1.7850   -0.3390 o         1 NX6     -0.443000
      6 C2          0.3060    0.1680   -1.7770 c3        1 NX6      0.040000
      7 O2          0.3360    0.2350   -0.3400 os        1 NX6     -0.310000
      8 C3          0.8960    1.4760   -2.3670 c2        1 NX6     -0.092000
      9 C4          2.2540    1.5740   -2.6130 c2        1 NX6     -0.149000
     10 C5          2.7730    2.7230   -3.1960 c1        1 NX6     -0.164000
     11 C6          1.9310    3.7690   -3.5310 c1        1 NX6     -0.144000
     12 C7          0.5780    3.6730   -3.2870 c1        1 NX6     -0.144000
     13 C8          0.0570    2.5200   -2.7010 c1        1 NX6     -0.079000
     14 CA         -1.0750   -2.0270    2.3470 c2        1 NX6     -0.032000
     15 CB         -0.7580   -2.0280    3.7990 c3        1 NX6     -0.211000
     16 CG         -1.0420   -3.4110    4.3790 c2        1 NX6      0.324000
     17 OD1        -0.1060   -4.1120    4.7910 o         1 NX6     -0.609000
     18 OD2        -2.2210   -3.7870    4.5450 o         1 NX6     -0.609000
     19 OXT        -3.1860   -2.8730    1.7510 o         1 NX6     -0.594000
     20 HN         -0.0790   -0.2080    2.1980 hn        1 NX6      0.258000
     21 H2          0.8420   -0.6040   -2.0840 h1        1 NX6      0.088500
     22 H2A        -0.6080    0.0640   -2.0750 h1        1 NX6      0.088500
     23 H4          2.8530    0.8430   -2.3600 ha        1 NX6      0.105000
     24 H5          3.7220    2.7610   -3.4430 ha        1 NX6      0.097000
     25 H6          2.3040    4.6000   -3.9470 ha        1 NX6      0.119000
     26 H7         -0.0320    4.3690   -3.6230 ha        1 NX6      0.119000
     27 H8         -0.9220    2.6210   -2.7520 ha        1 NX6      0.234000
     28 HA         -0.7510   -2.8890    1.9330 h4        1 NX6      0.091000
     29 HB          0.1870   -1.8070    3.9270 hc        1 NX6      0.079000
     30 HBA        -1.3230   -1.3530    4.2620 hc        1 NX6      0.079000
@<TRIPOS>BOND
     1    1    3 1   
     2    1   19 1   
     3    2    4 1   
     4    2   14 1   
     5    2   20 1   
     6    4    5 1   
     7    4    7 1   
     8    6    7 1   
     9    6    8 1   
    10    6   21 1   
    11    6   22 1   
    12    8    9 1   
    13    8   13 1   
    14    9   10 1   
    15    9   23 1   
    16   10   24 1   
    17   11   12 1   
    18   11   25 1   
    19   12   26 1   
    20   13   27 1   
    21   14   15 1   
    22   14   28 1   
    23   15   16 1   
    24   15   29 1   
    25   15   30 1   
    26   16   17 1   
    27   16   18 1   
@<TRIPOS>SUBSTRUCTURE
     1 NX6         1 TEMP              0 ****  ****    0 ROOT
