@<TRIPOS>MOLECULE
NX6
   31    31     1     0     0
SMALL
bcc


@<TRIPOS>ATOM
      1 C          -0.3840    0.5540   -0.0990 c         1 NX6      0.910600
      2 N           1.9370    1.3460   -0.7160 ns        1 NX6     -0.480900
      3 O          -1.1230   -0.4140    0.2040 o         1 NX6     -0.812800
      4 C1          2.5640    1.1090   -1.9300 c         1 NX6      0.718100
      5 O1          3.0450    0.0620   -2.3950 o         1 NX6     -0.594000
      6 C2          3.5610    2.1150   -3.8460 c3        1 NX6      0.192700
      7 O2          2.7690    2.2760   -2.6620 os        1 NX6     -0.455900
      8 C3          3.5890    3.4210   -4.5680 ca        1 NX6     -0.080300
      9 C4          4.6470    3.6810   -5.4480 ca        1 NX6     -0.115000
     10 C5          4.6840    4.8760   -6.1640 ca        1 NX6     -0.137000
     11 C6          3.6700    5.8210   -6.0020 ca        1 NX6     -0.139000
     12 C7          2.6180    5.5670   -5.1230 ca        1 NX6     -0.137000
     13 C8          2.5740    4.3700   -4.4080 ca        1 NX6     -0.115000
     14 CA          1.1720    0.2550   -0.1220 c3        1 NX6     -0.081300
     15 CB          1.5690   -0.0000    1.3350 c3        1 NX6     -0.160400
     16 CG          2.9970   -0.3970    1.5340 c         1 NX6      0.637100
     17 OD1         3.4330   -1.5110    1.8350 o         1 NX6     -0.531000
     18 OD2         3.9830    0.5520    1.4620 oh        1 NX6     -0.608100
     19 OXT        -0.7550    1.7280   -0.3680 o         1 NX6     -0.812800
     20 HN          3.6130    1.3820    1.1350 ho        1 NX6      0.434000
     21 H2          4.5920    1.7880   -3.5470 h1        1 NX6      0.059700
     22 H2A         3.0990    1.3180   -4.4920 h1        1 NX6      0.059700
     23 H4          5.4490    2.9390   -5.5730 ha        1 NX6      0.145500
     24 H5          5.5150    5.0740   -6.8560 ha        1 NX6      0.124500
     25 H6          3.7020    6.7630   -6.5670 ha        1 NX6      0.121000
     26 H7          1.8190    6.3100   -4.9910 ha        1 NX6      0.124500
     27 H8          1.7480    4.1660   -3.7080 ha        1 NX6      0.145500
     28 HA          1.3310   -0.6920   -0.7130 h1        1 NX6      0.086700
     29 HB          1.3620    0.9130    1.9540 hc        1 NX6      0.087700
     30 HBA         0.9030   -0.8310    1.6990 hc        1 NX6      0.087700
     31 H21         1.4130    2.2100   -0.6960 hn        1 NX6      0.325500
@<TRIPOS>BOND
     1    1    3 1   
     2    1   14 1   
     3    1   19 1   
     4    2    4 1   
     5    2   14 1   
     6    2   31 1   
     7    4    5 2   
     8    4    7 1   
     9    6    7 1   
    10    6    8 1   
    11    6   21 1   
    12    6   22 1   
    13    8    9 ar  
    14    8   13 ar  
    15    9   10 ar  
    16    9   23 1   
    17   10   11 ar  
    18   10   24 1   
    19   11   12 ar  
    20   11   25 1   
    21   12   13 ar  
    22   12   26 1   
    23   13   27 1   
    24   14   15 1   
    25   14   28 1   
    26   15   16 1   
    27   15   29 1   
    28   15   30 1   
    29   16   17 2   
    30   16   18 1   
    31   18   20 1   
@<TRIPOS>SUBSTRUCTURE
     1 NX6         1 TEMP              0 ****  ****    0 ROOT
