@<TRIPOS>MOLECULE
NX6
   31    31     1     0     0
SMALL
bcc


@<TRIPOS>ATOM
      1 C          -0.3450    0.5330   -0.0630 c         1 NX6      0.910600
      2 N           1.9670    1.3170   -0.7190 n         1 NX6     -0.480900
      3 O          -1.0870   -0.4350    0.2350 o         1 NX6     -0.812800
      4 C1          2.5630    1.1030   -1.9530 c         1 NX6      0.718100
      5 O1          3.0210    0.0620   -2.4540 o         1 NX6     -0.594000
      6 C2          3.5220    2.1440   -3.8690 c3        1 NX6      0.192700
      7 O2          2.7610    2.2850   -2.6620 os        1 NX6     -0.455900
      8 C3          3.5450    3.4660   -4.5610 ca        1 NX6     -0.080300
      9 C4          4.5830    3.7380   -5.4610 ca        1 NX6     -0.115000
     10 C5          4.6130    4.9480   -6.1500 ca        1 NX6     -0.137000
     11 C6          3.6120    5.8970   -5.9420 ca        1 NX6     -0.139000
     12 C7          2.5790    5.6320   -5.0430 ca        1 NX6     -0.137000
     13 C8          2.5420    4.4200   -4.3550 ca        1 NX6     -0.115000
     14 CA          1.2060    0.2190   -0.1310 c3        1 NX6     -0.081300
     15 CB          1.6360   -0.0740    1.3080 c3        1 NX6     -0.160400
     16 CG          3.0640   -0.4890    1.4630 c         1 NX6      0.637100
     17 OD1         3.4960   -1.6150    1.7280 o         1 NX6     -0.531000
     18 OD2         4.0580    0.4510    1.3900 oh        1 NX6     -0.608100
     19 OXT        -0.7120    1.7160   -0.2960 o         1 NX6     -0.812800
     20 HN          3.6890    1.2930    1.0910 ho        1 NX6      0.434000
     21 H2          4.5580    1.8010   -3.6030 h1        1 NX6      0.059700
     22 H2A         3.0380    1.3660   -4.5210 h1        1 NX6      0.059700
     23 H4          5.3760    2.9920   -5.6210 ha        1 NX6      0.145500
     24 H5          5.4290    5.1550   -6.8560 ha        1 NX6      0.124500
     25 H6          3.6380    6.8520   -6.4850 ha        1 NX6      0.121000
     26 H7          1.7900    6.3780   -4.8750 ha        1 NX6      0.124500
     27 H8          1.7310    4.2050   -3.6400 ha        1 NX6      0.145500
     28 HA          1.3410   -0.7150   -0.7480 h1        1 NX6      0.086700
     29 HB          0.9700   -0.9070    1.6690 hc        1 NX6      0.087700
     30 HBA         1.4530    0.8260    1.9530 hc        1 NX6      0.087700
     31 H21         1.4540    2.1850   -0.6660 hn        1 NX6      0.325500
@<TRIPOS>BOND
     1    1    3 1   
     2    1   14 1   
     3    1   19 1   
     4    2    4 1   
     5    2   14 1   
     6    2   31 1   
     7    4    5 2   
     8    4    7 1   
     9    6    7 1   
    10    6    8 1   
    11    6   21 1   
    12    6   22 1   
    13    8    9 ar  
    14    8   13 ar  
    15    9   10 ar  
    16    9   23 1   
    17   10   11 ar  
    18   10   24 1   
    19   11   12 ar  
    20   11   25 1   
    21   12   13 ar  
    22   12   26 1   
    23   13   27 1   
    24   14   15 1   
    25   14   28 1   
    26   15   16 1   
    27   15   29 1   
    28   15   30 1   
    29   16   17 2   
    30   16   18 1   
    31   18   20 1   
@<TRIPOS>SUBSTRUCTURE
     1 NX6         1 TEMP              0 ****  ****    0 ROOT
