@<TRIPOS>MOLECULE
NX6
   30    30     1     0     0
SMALL
bcc


@<TRIPOS>ATOM
      1 C           1.3750    1.7320   -0.6280 c         1 NX6      0.904600
      2 N           1.2590   -0.5320    0.5380 n         1 NX6     -0.460900
      3 O           0.2260    1.5350   -1.1260 o         1 NX6     -0.859300
      4 C1          0.0710   -0.2800    1.1620 c         1 NX6      0.743100
      5 O1         -0.2530    0.5800    2.0050 o         1 NX6     -0.632000
      6 C2         -2.1670   -1.1180    1.4980 c3        1 NX6      0.197700
      7 O2         -0.8780   -1.3020    0.9410 os        1 NX6     -0.471900
      8 C3         -3.1250   -0.5010    0.5270 ca        1 NX6     -0.099300
      9 C4         -4.4800   -0.8460    0.5950 ca        1 NX6     -0.114000
     10 C5         -5.4000   -0.2630   -0.2750 ca        1 NX6     -0.146500
     11 C6         -4.9690    0.6670   -1.2210 ca        1 NX6     -0.159000
     12 C7         -3.6200    1.0100   -1.2930 ca        1 NX6     -0.146500
     13 C8         -2.6940    0.4320   -0.4230 ca        1 NX6     -0.114000
     14 CA          2.1150    0.5630    0.1010 c3        1 NX6     -0.005300
     15 CB          3.2230    0.0660   -0.8370 c3        1 NX6     -0.182400
     16 CG          3.8640   -1.2700   -0.4550 c         1 NX6      0.904600
     17 OD1         3.1960   -2.3390   -0.6180 o         1 NX6     -0.874300
     18 OD2         5.0620   -1.2810   -0.0390 o         1 NX6     -0.874300
     19 OXT         1.9780    2.8390   -0.6990 o         1 NX6     -0.859300
     20 HN          1.3020   -1.3500   -0.0480 hn        1 NX6      0.344500
     21 H2         -2.5000   -2.1600    1.7640 h1        1 NX6      0.049200
     22 H2A        -2.1220   -0.4860    2.4280 h1        1 NX6      0.049200
     23 H4         -4.8200   -1.5830    1.3370 ha        1 NX6      0.169500
     24 H5         -6.4610   -0.5370   -0.2150 ha        1 NX6      0.117500
     25 H6         -5.6930    1.1260   -1.9080 ha        1 NX6      0.100000
     26 H7         -3.2680    1.7420   -2.0360 ha        1 NX6      0.117500
     27 H8         -1.6160    0.7140   -0.4850 ha        1 NX6      0.169500
     28 HA          2.5820    0.9940    1.0340 h1        1 NX6      0.051700
     29 HB          2.8000   -0.0420   -1.8690 hc        1 NX6      0.039700
     30 HBA         4.0060    0.8660   -0.8600 hc        1 NX6      0.039700
@<TRIPOS>BOND
     1    1    3 1   
     2    1   14 1   
     3    1   19 1   
     4    2    4 1   
     5    2   14 1   
     6    2   20 1   
     7    4    5 2   
     8    4    7 1   
     9    6    7 1   
    10    6    8 1   
    11    6   21 1   
    12    6   22 1   
    13    8    9 ar  
    14    8   13 ar  
    15    9   10 ar  
    16    9   23 1   
    17   10   11 ar  
    18   10   24 1   
    19   11   12 ar  
    20   11   25 1   
    21   12   13 ar  
    22   12   26 1   
    23   13   27 1   
    24   14   15 1   
    25   14   28 1   
    26   15   16 1   
    27   15   29 1   
    28   15   30 1   
    29   16   17 1   
    30   16   18 1   
@<TRIPOS>SUBSTRUCTURE
     1 NX6         1 TEMP              0 ****  ****    0 ROOT
