@<TRIPOS>MOLECULE
NX6
   31    31     1     0     0
SMALL
bcc


@<TRIPOS>ATOM
      1 C          -0.3890    0.5270    0.0580 c         1 NX6      0.917600
      2 N           1.8460    1.4500   -0.6830 n         1 NX6     -0.469900
      3 O          -1.0390   -0.4710    0.4550 o         1 NX6     -0.810300
      4 C1          2.5450    1.2580   -1.8540 c         1 NX6      0.720100
      5 O1          3.1290    0.2310   -2.2600 o         1 NX6     -0.631000
      6 C2          3.5810    2.2890   -3.7310 c3        1 NX6      0.192700
      7 O2          2.6930    2.4130   -2.6110 os        1 NX6     -0.445900
      8 C3          3.5780    3.5830   -4.4740 ca        1 NX6     -0.081300
      9 C4          4.6520    3.8680   -5.3270 ca        1 NX6     -0.115000
     10 C5          4.6670    5.0520   -6.0610 ca        1 NX6     -0.136000
     11 C6          3.6150    5.9610   -5.9450 ca        1 NX6     -0.139000
     12 C7          2.5470    5.6830   -5.0930 ca        1 NX6     -0.136000
     13 C8          2.5250    4.4970   -4.3590 ca        1 NX6     -0.115000
     14 CA          1.1750    0.3020   -0.0850 c3        1 NX6     -0.086300
     15 CB          1.7000   -0.0130    1.3130 c3        1 NX6     -0.162400
     16 CG          3.1240   -0.4500    1.4290 c         1 NX6      0.635100
     17 OD1         3.7860   -0.4400    2.4770 o         1 NX6     -0.557000
     18 OD2         3.8280   -0.9630    0.3810 oh        1 NX6     -0.604100
     19 OXT        -0.8490    1.6600   -0.2350 o         1 NX6     -0.810300
     20 HN          3.3300   -0.8790   -0.4480 ho        1 NX6      0.454000
     21 H2          4.6070    2.0350   -3.3520 h1        1 NX6      0.060700
     22 H2A         3.2200    1.4540   -4.3920 h1        1 NX6      0.060700
     23 H4          5.4840    3.1550   -5.4140 ha        1 NX6      0.145000
     24 H5          5.5110    5.2700   -6.7300 ha        1 NX6      0.125500
     25 H6          3.6290    6.8960   -6.5240 ha        1 NX6      0.121000
     26 H7          1.7170    6.3980   -4.9970 ha        1 NX6      0.125500
     27 H8          1.6850    4.2740   -3.6810 ha        1 NX6      0.145000
     28 HA          1.3040   -0.6040   -0.7450 h1        1 NX6      0.063700
     29 HB          1.0510   -0.8440    1.7150 hc        1 NX6      0.098200
     30 HBA         1.5580    0.8760    1.9850 hc        1 NX6      0.098200
     31 H21         1.2810    2.2830   -0.6490 hn        1 NX6      0.336500
@<TRIPOS>BOND
     1    1    3 1   
     2    1   14 1   
     3    1   19 1   
     4    2    4 1   
     5    2   14 1   
     6    2   31 1   
     7    4    5 2   
     8    4    7 1   
     9    6    7 1   
    10    6    8 1   
    11    6   21 1   
    12    6   22 1   
    13    8    9 ar  
    14    8   13 ar  
    15    9   10 ar  
    16    9   23 1   
    17   10   11 ar  
    18   10   24 1   
    19   11   12 ar  
    20   11   25 1   
    21   12   13 ar  
    22   12   26 1   
    23   13   27 1   
    24   14   15 1   
    25   14   28 1   
    26   15   16 1   
    27   15   29 1   
    28   15   30 1   
    29   16   17 2   
    30   16   18 1   
    31   18   20 1   
@<TRIPOS>SUBSTRUCTURE
     1 NX6         1 TEMP              0 ****  ****    0 ROOT
