@<TRIPOS>MOLECULE
NXA
   14    13     1     0     0
SMALL
bcc


@<TRIPOS>ATOM
      1 N          -1.0460   -0.1040   -0.0300 n         1 NXA     -0.578900
      2 CA          0.4020   -0.0370   -0.2090 c3        1 NXA     -0.010300
      3 C           1.0750   -0.1660    1.1160 c         1 NXA      0.893600
      4 OXT         0.6190    0.4410    2.1110 o         1 NXA     -0.879300
      5 CB          0.7710    1.2850   -0.8350 c3        1 NXA     -0.066100
      6 OD1        -2.9330   -1.4260    0.2750 o         1 NXA     -0.891800
      7 OD2        -1.0250   -2.4210   -0.0590 o         1 NXA     -0.891800
      8 C1         -1.6870   -1.3670    0.0920 c         1 NXA      0.981600
      9 O           2.1190   -0.8280    1.2190 o         1 NXA     -0.879300
     10 H          -1.5380    0.6610    0.0050 hn        1 NXA      0.269500
     11 HA          0.6880   -0.7550   -0.7840 h1        1 NXA      0.037700
     12 HBC1        1.7450    1.3470   -0.9180 hc        1 NXA      0.005367
     13 HBC2        0.4430    2.0190   -0.2690 hc        1 NXA      0.005367
     14 HBC3        0.3670    1.3500   -1.7150 hc        1 NXA      0.005367
@<TRIPOS>BOND
     1    1    2 1   
     2    1    8 1   
     3    1   10 1   
     4    2    3 1   
     5    2    5 1   
     6    2   11 1   
     7    3    4 1   
     8    3    9 1   
     9    5   12 1   
    10    5   13 1   
    11    5   14 1   
    12    6    8 1   
    13    7    8 1   
@<TRIPOS>SUBSTRUCTURE
     1 NXA         1 TEMP              0 ****  ****    0 ROOT
