@<TRIPOS>MOLECULE
NXA
   14    13     1     0     0
SMALL
bcc


@<TRIPOS>ATOM
      1 N          -0.2820   -0.4970    0.7030 n         1 NXA     -0.578900
      2 CA          0.4660   -0.0360   -0.4430 c3        1 NXA     -0.010300
      3 C          -0.3510    0.0860   -1.7640 c         1 NXA      0.893600
      4 OXT        -1.5280   -0.3760   -1.8490 o         1 NXA     -0.879300
      5 CB          1.6690   -0.9390   -0.7450 c3        1 NXA     -0.066100
      6 OD1        -1.0340   -0.0030    2.8380 o         1 NXA     -0.891800
      7 OD2         0.9700    0.7770    2.2400 o         1 NXA     -0.891800
      8 C1         -0.1040    0.1440    1.9750 c         1 NXA      0.981600
      9 O           0.2160    0.6610   -2.7460 o         1 NXA     -0.879300
     10 H          -1.2360   -0.6860    0.4820 hn        1 NXA      0.269500
     11 HA          0.8850    0.9940   -0.2270 h1        1 NXA      0.037700
     12 HBC1        1.3420   -1.9840   -0.9570 hc        1 NXA      0.005367
     13 HBC2        2.1970   -0.5400   -1.6440 hc        1 NXA      0.005367
     14 HBC3        2.3740   -0.9550    0.1200 hc        1 NXA      0.005367
@<TRIPOS>BOND
     1    1    2 1   
     2    1    8 1   
     3    1   10 1   
     4    2    3 1   
     5    2    5 1   
     6    2   11 1   
     7    3    4 1   
     8    3    9 1   
     9    5   12 1   
    10    5   13 1   
    11    5   14 1   
    12    6    8 1   
    13    7    8 1   
@<TRIPOS>SUBSTRUCTURE
     1 NXA         1 TEMP              0 ****  ****    0 ROOT
