@<TRIPOS>MOLECULE
NXA
   14    13     1     0     0
SMALL
bcc


@<TRIPOS>ATOM
      1 N          -0.0640    0.1730   -0.0780 n         1 NXA     -0.578900
      2 CA          1.3760    0.0980   -0.0070 c3        1 NXA     -0.010300
      3 C           1.9660    0.0270    1.4330 c         1 NXA      0.893600
      4 OXT         1.2350    0.2210    2.4500 o         1 NXA     -0.879300
      5 CB          2.0500    1.2850   -0.7070 c3        1 NXA     -0.066100
      6 OD1        -2.0120   -0.8400   -0.8190 o         1 NXA     -0.891800
      7 OD2        -0.1920   -1.0360   -2.0970 o         1 NXA     -0.891800
      8 C1         -0.7720   -0.6230   -1.0400 c         1 NXA      0.981600
      9 O           3.2080   -0.2280    1.5410 o         1 NXA     -0.879300
     10 H          -0.4890    0.1790    0.8250 hn        1 NXA      0.269500
     11 HA          1.7300   -0.8350   -0.5450 h1        1 NXA      0.037700
     12 HBC1        1.7420    2.2510   -0.2410 hc        1 NXA      0.005367
     13 HBC2        3.1570    1.1760   -0.6070 hc        1 NXA      0.005367
     14 HBC3        1.7780    1.3080   -1.7880 hc        1 NXA      0.005367
@<TRIPOS>BOND
     1    1    2 1   
     2    1    8 1   
     3    1   10 1   
     4    2    3 1   
     5    2    5 1   
     6    2   11 1   
     7    3    4 1   
     8    3    9 1   
     9    5   12 1   
    10    5   13 1   
    11    5   14 1   
    12    6    8 1   
    13    7    8 1   
@<TRIPOS>SUBSTRUCTURE
     1 NXA         1 TEMP              0 ****  ****    0 ROOT
