@<TRIPOS>MOLECULE
NXD
   49    49     1     0     0
SMALL
bcc


@<TRIPOS>ATOM
      1 C11        -5.2420    0.6590    1.2720 c3        1 NXD     -0.176100
      2 C10        -3.7420    0.8210    1.3320 c         1 NXD      0.652100
      3 O10        -3.1940    1.0050    2.4010 o         1 NXD     -0.639100
      4 N5         -2.9500    0.6760    0.1300 n         1 NXD     -0.534900
      5 C5         -1.5010    0.7520    0.2000 c3        1 NXD      0.028700
      6 C4         -1.0870    2.1290   -0.1780 c3        1 NXD      0.166100
      7 O4          0.3930    2.2650    0.0750 oh        1 NXD     -0.624800
      8 C3         -1.3360    2.4480   -1.5120 c3        1 NXD     -0.131400
      9 C2         -0.8150    1.5260   -2.4560 c3        1 NXD      0.214600
     10 C1          0.7360    1.6620   -2.5700 c         1 NXD      0.894600
     11 O1A         1.3860    0.8990   -3.3540 o         1 NXD     -0.808800
     12 O1B         1.3410    2.5040   -1.8780 o         1 NXD     -0.808800
     13 O2         -1.2050    1.8460   -3.7410 os        1 NXD     -0.436600
     14 CB         -0.9720    3.1890   -4.0890 c3        1 NXD      0.136700
     15 O6         -1.2530    0.0960   -2.1020 os        1 NXD     -0.446600
     16 C6         -0.9150   -0.3630   -0.6800 c3        1 NXD      0.110100
     17 C7          0.5000   -0.4610   -0.5020 c3        1 NXD      0.103100
     18 O7          1.1350   -0.5600   -1.7810 oh        1 NXD     -0.634800
     19 C8          0.8310   -1.7220    0.3310 c3        1 NXD      0.129100
     20 O8          0.1990   -1.6520    1.5390 oh        1 NXD     -0.613800
     21 C9          2.3510   -1.8070    0.5530 c3        1 NXD      0.081000
     22 NAB         2.6420   -2.8660    1.4730 n         1 NXD     -0.513900
     23 CAC         3.8810   -2.8510    2.2290 c         1 NXD      0.595100
     24 OAD         4.8440   -2.1890    1.8240 o         1 NXD     -0.613100
     25 CAF         4.0450   -3.7870    3.4730 c         1 NXD      0.586100
     26 OAG         3.1830   -4.5880    3.7430 o         1 NXD     -0.620100
     27 NAK         5.2040   -3.6430    4.3440 n         1 NXD     -0.652000
     28 H111       -5.6610    1.3100    1.8520 hc        1 NXD      0.060367
     29 H112       -5.5500    0.7960    0.3480 hc        1 NXD      0.060367
     30 H113       -5.4820   -0.2300    1.5620 hc        1 NXD      0.060367
     31 HN5        -3.3630    0.4820   -0.6730 hn        1 NXD      0.306500
     32 H5         -1.2260    0.5900    1.1280 h1        1 NXD      0.107700
     33 H4         -1.5540    2.7550    0.3810 h1        1 NXD      0.047700
     34 HO4         0.5320    2.9050    0.6470 ho        1 NXD      0.459000
     35 H31        -2.3000    2.5040   -1.6380 hc        1 NXD      0.069200
     36 H32        -0.9430    3.3390   -1.6980 hc        1 NXD      0.069200
     37 HB1        -0.1040    3.4800   -3.7150 h1        1 NXD      0.034033
     38 HB2        -1.6950    3.7560   -3.7230 h1        1 NXD      0.034033
     39 HB3        -0.9520    3.2750   -5.0670 h1        1 NXD      0.034033
     40 H6         -1.3520   -1.2270   -0.4820 h1        1 NXD      0.059700
     41 H7          0.8330    0.3530   -0.0240 h1        1 NXD      0.071700
     42 HO7         1.2750   -1.4030   -1.9730 ho        1 NXD      0.466000
     43 H8          0.5270   -2.5190   -0.1520 h1        1 NXD      0.039700
     44 HO8        -0.1290   -2.4440    1.7440 ho        1 NXD      0.430000
     45 H91         2.7970   -1.9870   -0.3060 h1        1 NXD      0.089200
     46 H92         2.6790   -0.9510    0.9220 h1        1 NXD      0.089200
     47 HAB         2.0690   -3.5760    1.5490 hn        1 NXD      0.327500
     48 HAK1        5.8950   -3.0800    4.1030 hn        1 NXD      0.321500
     49 HAK2        5.2460   -4.1160    5.1430 hn        1 NXD      0.321500
@<TRIPOS>BOND
     1    1    2 1   
     2    1   28 1   
     3    1   29 1   
     4    1   30 1   
     5    2    3 2   
     6    2    4 1   
     7    4    5 1   
     8    4   31 1   
     9    5    6 1   
    10    5   16 1   
    11    5   32 1   
    12    6    7 1   
    13    6    8 1   
    14    6   33 1   
    15    7   34 1   
    16    8    9 1   
    17    8   35 1   
    18    8   36 1   
    19    9   10 1   
    20    9   13 1   
    21    9   15 1   
    22   10   11 1   
    23   10   12 1   
    24   13   14 1   
    25   14   37 1   
    26   14   38 1   
    27   14   39 1   
    28   15   16 1   
    29   16   17 1   
    30   16   40 1   
    31   17   18 1   
    32   17   19 1   
    33   17   41 1   
    34   18   42 1   
    35   19   20 1   
    36   19   21 1   
    37   19   43 1   
    38   20   44 1   
    39   21   22 1   
    40   21   45 1   
    41   21   46 1   
    42   22   23 1   
    43   22   47 1   
    44   23   24 2   
    45   23   25 1   
    46   25   26 2   
    47   25   27 1   
    48   27   48 1   
    49   27   49 1   
@<TRIPOS>SUBSTRUCTURE
     1 NXD         1 TEMP              0 ****  ****    0 ROOT
