@<TRIPOS>MOLECULE
NXD
   49    49     1     0     0
SMALL
bcc


@<TRIPOS>ATOM
      1 C11        -3.5830    4.3430    1.0970 c3        1 NXD     -0.177100
      2 C10        -3.1320    3.2920    0.1050 c         1 NXD      0.660100
      3 O10        -3.1450    3.5280   -1.1190 o         1 NXD     -0.604100
      4 N5         -2.6530    2.1060    0.6360 n         1 NXD     -0.536900
      5 C5         -2.4270    0.9320   -0.1730 c3        1 NXD      0.069700
      6 C4         -3.5240   -0.1550    0.0220 c3        1 NXD      0.115100
      7 O4         -4.7740    0.4300   -0.3240 oh        1 NXD     -0.612800
      8 C3         -3.2290   -1.3770   -0.8370 c3        1 NXD     -0.118400
      9 C2         -1.8280   -1.9010   -0.5160 c3        1 NXD      0.217600
     10 C1         -1.7290   -2.5340    0.9130 c         1 NXD      0.897600
     11 O1A        -0.6340   -2.4100    1.5310 o         1 NXD     -0.816800
     12 O1B        -2.7520   -3.1100    1.3600 o         1 NXD     -0.816800
     13 O2         -1.4550   -2.7780   -1.5640 os        1 NXD     -0.415600
     14 CB         -0.3260   -3.5850   -1.2540 c3        1 NXD      0.127700
     15 O6         -0.8690   -0.8470   -0.7100 os        1 NXD     -0.456600
     16 C6         -1.0740    0.2480    0.1760 c3        1 NXD      0.107100
     17 C7          0.1520    1.1510   -0.0200 c3        1 NXD      0.130100
     18 O7          0.2640    1.6180   -1.3510 oh        1 NXD     -0.602800
     19 C8          1.4270    0.3660    0.3630 c3        1 NXD      0.106100
     20 O8          1.3530   -0.1180    1.6890 oh        1 NXD     -0.638800
     21 C9          2.6370    1.3200    0.2930 c3        1 NXD      0.083000
     22 NAB         3.8850    0.6800    0.6170 n         1 NXD     -0.517900
     23 CAC         4.9730    0.7120   -0.1990 c         1 NXD      0.592100
     24 OAD         5.0450    1.3760   -1.2550 o         1 NXD     -0.626100
     25 CAF         6.1900   -0.1140    0.2630 c         1 NXD      0.587100
     26 OAG         6.4280   -0.3300    1.4670 o         1 NXD     -0.606100
     27 NAK         6.9890   -0.6090   -0.7300 n         1 NXD     -0.652000
     28 H111       -2.7650    4.5830    1.8170 hc        1 NXD      0.057033
     29 H112       -3.8590    5.2690    0.5380 hc        1 NXD      0.057033
     30 H113       -4.4740    3.9800    1.6620 hc        1 NXD      0.057033
     31 HN5        -2.8490    1.9270    1.5940 hn        1 NXD      0.295500
     32 H5         -2.4070    1.2430   -1.2590 h1        1 NXD      0.107700
     33 H4         -3.5590   -0.4720    1.1060 h1        1 NXD      0.058700
     34 HO4        -5.3980   -0.2990   -0.4210 ho        1 NXD      0.400000
     35 H31        -3.3040   -1.1170   -1.9220 hc        1 NXD      0.066700
     36 H32        -3.9630   -2.1910   -0.6020 hc        1 NXD      0.066700
     37 HB1         0.5300   -2.9500   -0.9200 h1        1 NXD      0.033700
     38 HB2        -0.5870   -4.3170   -0.4510 h1        1 NXD      0.033700
     39 HB3        -0.0910   -4.1080   -2.2140 h1        1 NXD      0.033700
     40 H6         -1.1020   -0.1180    1.2430 h1        1 NXD      0.085700
     41 H7          0.0580    2.0760    0.6110 h1        1 NXD      0.079700
     42 HO7         0.1100    0.8600   -1.9310 ho        1 NXD      0.418000
     43 H8          1.5500   -0.4880   -0.3620 h1        1 NXD      0.060700
     44 HO8         0.7800   -0.9080    1.6770 ho        1 NXD      0.470000
     45 H91         2.6810    1.7550   -0.7470 h1        1 NXD      0.071700
     46 H92         2.4730    2.1570    1.0310 h1        1 NXD      0.071700
     47 HAB         3.8940    0.1030    1.4300 hn        1 NXD      0.346500
     48 HAK1        6.8370   -0.3300   -1.6680 hn        1 NXD      0.319000
     49 HAK2        7.8160   -1.0970   -0.4960 hn        1 NXD      0.319000
@<TRIPOS>BOND
     1    1    2 1   
     2    1   28 1   
     3    1   29 1   
     4    1   30 1   
     5    2    3 2   
     6    2    4 1   
     7    4    5 1   
     8    4   31 1   
     9    5    6 1   
    10    5   16 1   
    11    5   32 1   
    12    6    7 1   
    13    6    8 1   
    14    6   33 1   
    15    7   34 1   
    16    8    9 1   
    17    8   35 1   
    18    8   36 1   
    19    9   10 1   
    20    9   13 1   
    21    9   15 1   
    22   10   11 1   
    23   10   12 1   
    24   13   14 1   
    25   14   37 1   
    26   14   38 1   
    27   14   39 1   
    28   15   16 1   
    29   16   17 1   
    30   16   40 1   
    31   17   18 1   
    32   17   19 1   
    33   17   41 1   
    34   18   42 1   
    35   19   20 1   
    36   19   21 1   
    37   19   43 1   
    38   20   44 1   
    39   21   22 1   
    40   21   45 1   
    41   21   46 1   
    42   22   23 1   
    43   22   47 1   
    44   23   24 2   
    45   23   25 1   
    46   25   26 2   
    47   25   27 1   
    48   27   48 1   
    49   27   49 1   
@<TRIPOS>SUBSTRUCTURE
     1 NXD         1 TEMP              0 ****  ****    0 ROOT
