@<TRIPOS>MOLECULE
NXG
   52    52     1     0     0
SMALL
bcc


@<TRIPOS>ATOM
      1 C01         0.4960   -0.2320    0.5630 ca        1 NXG     -0.007000
      2 C1         -0.5410   -0.1460    2.7580 ca        1 NXG     -0.133300
      3 N1         -1.9270    1.3910    4.0990 n3        1 NXG     -0.739600
      4 O1          0.7150   -0.5230    4.7170 oh        1 NXG     -0.490100
      5 C02         1.7320   -0.5180    1.1610 ca        1 NXG     -0.028000
      6 C2         -1.7580    0.0220    3.6200 c3        1 NXG      0.233100
      7 N2         -3.3400    5.2800    5.2840 nh        1 NXG     -0.087100
      8 C03        -2.7740    1.4800    5.2760 c3        1 NXG      0.171300
      9 C3         -0.6360   -0.0500    1.3740 ca        1 NXG     -0.059000
     10 C4          1.8490   -0.6220    2.5460 ca        1 NXG     -0.070100
     11 C7          0.7100   -0.4360    3.3480 ca        1 NXG      0.190100
     12 C8         -2.8040    2.8960    5.8590 c3        1 NXG     -0.097400
     13 C10        -3.2560    3.8840    4.7750 c3        1 NXG     -0.013000
     14 C11        -4.6500    5.9000    5.2010 c3        1 NXG     -0.053400
     15 C12        -2.2270    7.2670    6.2940 c3        1 NXG     -0.218400
     16 C13        -2.2810    5.8850    5.7630 c2        1 NXG      0.359200
     17 C14         0.8610    4.1850    6.2940 c3        1 NXG     -0.126800
     18 C15        -2.3360    3.7720    3.5510 c3        1 NXG     -0.097400
     19 C16        -2.3280    2.3230    3.0600 c3        1 NXG      0.171300
     20 C17         0.3870   -0.1230   -0.8350 cg        1 NXG     -0.119000
     21 C18         0.2890   -0.0280   -2.0250 c1        1 NXG     -0.137100
     22 C19         0.1560    0.0670   -3.4580 c3        1 NXG      0.204500
     23 O2          0.2210    1.3990   -3.9310 oh        1 NXG     -0.584800
     24 I2          3.6730   -1.0410    3.3130 i         1 NXG     -0.113900
     25 H02         2.6170   -0.6640    0.5170 ha        1 NXG      0.162000
     26 H3         -1.6100    0.1600    0.9050 ha        1 NXG      0.144000
     27 H21C       -2.6660   -0.3210    3.0400 h1        1 NXG      0.058200
     28 H22C       -1.6470   -0.6490    4.5220 h1        1 NXG      0.058200
     29 H031       -3.8360    1.1580    5.0630 h1        1 NXG      0.056700
     30 H032       -2.3540    0.7910    6.0640 h1        1 NXG      0.056700
     31 H161       -3.3510    2.0810    2.6430 h1        1 NXG      0.056700
     32 H162       -1.5840    2.2390    2.2160 h1        1 NXG      0.056700
     33 H1          1.6010   -0.7990    5.0080 ho        1 NXG      0.438000
     34 H10        -4.3060    3.6020    4.4560 h1        1 NXG      0.101700
     35 H111       -5.3790    5.2990    5.8120 h1        1 NXG      0.099700
     36 H112       -4.9840    5.9060    4.1270 h1        1 NXG      0.099700
     37 H131       -1.3200    5.3060    5.7780 h4        1 NXG      0.079800
     38 H132        0.9890    5.2730    6.1040 hc        1 NXG      0.033200
     39 H81C       -3.5140    2.9080    6.7250 hc        1 NXG      0.067700
     40 H82C       -1.7800    3.1660    6.2340 hc        1 NXG      0.067700
     41 H151       -2.7040    4.4260    2.7200 hc        1 NXG      0.067700
     42 H152       -1.2920    4.0850    3.8160 hc        1 NXG      0.067700
     43 H121       -2.9200    7.3950    7.1670 hc        1 NXG      0.108700
     44 H122       -2.5110    8.0140    5.5060 hc        1 NXG      0.108700
     45 H123       -1.1840    7.4960    6.6360 hc        1 NXG      0.108700
     46 H141        0.4110    3.6930    5.4030 hc        1 NXG      0.033200
     47 H142        1.8590    3.7320    6.4910 hc        1 NXG      0.033200
     48 H143        0.2100    4.0290    7.1820 hc        1 NXG      0.033200
     49 H191        0.9490   -0.5620   -3.9540 h1        1 NXG      0.073200
     50 H192       -0.8630   -0.2940   -3.7810 h1        1 NXG      0.073200
     51 H2          1.0970    1.7430   -3.7200 ho        1 NXG      0.405000
     52 H21        -4.6260    6.9540    5.5860 h1        1 NXG      0.099700
@<TRIPOS>BOND
     1    1    5 ar  
     2    1    9 ar  
     3    1   20 1   
     4    2    6 1   
     5    2    9 ar  
     6    2   11 ar  
     7    3    6 1   
     8    3    8 1   
     9    3   19 1   
    10    4   11 1   
    11    4   33 1   
    12    5   10 ar  
    13    5   25 1   
    14    6   27 1   
    15    6   28 1   
    16    7   13 1   
    17    7   14 1   
    18    7   16 2   
    19    8   12 1   
    20    8   29 1   
    21    8   30 1   
    22    9   26 1   
    23   10   11 ar  
    24   10   24 1   
    25   12   13 1   
    26   12   39 1   
    27   12   40 1   
    28   13   18 1   
    29   13   34 1   
    30   14   35 1   
    31   14   36 1   
    32   14   52 1   
    33   15   16 1   
    34   15   43 1   
    35   15   44 1   
    36   15   45 1   
    37   16   37 1   
    38   17   38 1   
    39   17   46 1   
    40   17   47 1   
    41   17   48 1   
    42   18   19 1   
    43   18   41 1   
    44   18   42 1   
    45   19   31 1   
    46   19   32 1   
    47   20   21 3   
    48   21   22 1   
    49   22   23 1   
    50   22   49 1   
    51   22   50 1   
    52   23   51 1   
@<TRIPOS>SUBSTRUCTURE
     1 NXG         1 TEMP              0 ****  ****    0 ROOT
