@<TRIPOS>MOLECULE
NXG
   51    48     1     0     0
SMALL
bcc


@<TRIPOS>ATOM
      1 C01         2.1700    3.2400   -2.6130 c1        1 NXG     -0.013000
      2 C1          0.6460    2.4660   -0.9340 c1        1 NXG     -0.107000
      3 N1         -0.3910    0.7660    0.5080 n3        1 NXG     -0.258000
      4 O1         -1.8160    2.9130   -1.9970 oh        1 NXG     -0.247000
      5 C02         1.0840    3.5890   -3.4250 c1        1 NXG     -0.040000
      6 C2          0.2160    2.0770    0.5180 c2        1 NXG     -0.026000
      7 N2         -1.8610   -2.9510    1.9080 n3        1 NXG     -0.273000
      8 C03        -1.6140    0.7850    1.3330 c3        1 NXG     -0.070500
      9 C3          1.9500    2.6830   -1.3780 c2        1 NXG     -0.043000
     10 C4         -0.2080    3.3730   -2.9830 c1        1 NXG     -0.355000
     11 C7         -0.4290    2.8130   -1.7410 c1        1 NXG      0.125000
     12 C8         -2.2340   -0.5960    1.4880 c3        1 NXG     -0.157500
     13 C10        -1.2370   -1.6210    1.9530 c3        1 NXG     -0.001000
     14 C11        -0.8810   -3.9590    2.2980 c3        1 NXG     -0.059000
     15 C12        -0.7670   -5.0190    1.1990 c3        1 NXG     -0.211500
     16 C13        -2.9590   -2.9880    2.8120 c3        1 NXG     -0.059000
     17 C14        -4.1300   -3.6770    2.1530 c3        1 NXG     -0.211500
     18 C15        -0.0220   -1.6360    1.1230 c3        1 NXG     -0.157500
     19 C16         0.5940   -0.2390    0.9650 c3        1 NXG     -0.070500
     20 C17         3.6010    3.3460   -3.1620 c1        1 NXG     -0.094000
     21 C18         4.7190    3.4320   -3.5920 c1        1 NXG     -0.147000
     22 C19         6.1190    3.5440   -4.1310 c2        1 NXG      0.093000
     23 O2          6.7580    4.6500   -3.5430 oh        1 NXG     -0.316000
     24 I2         -1.8760    3.9310   -4.2230 i         1 NXG      0.147000
     25 H02         1.2410    3.9870   -4.3090 ha        1 NXG      0.157000
     26 H3          2.7200    2.4360   -0.8000 ha        1 NXG      0.164000
     27 H21C       -0.4320    2.7350    0.8550 h4        1 NXG      0.092000
     28 H22C        1.0040    2.0660    1.0990 h4        1 NXG      0.092000
     29 H031       -1.3930    1.1290    2.2140 h1        1 NXG      0.072250
     30 H032       -2.2820    1.3940    0.9070 h1        1 NXG      0.072250
     31 H161        1.3280   -0.2850    0.3140 h1        1 NXG      0.072250
     32 H162        0.9550    0.0460    1.8280 h1        1 NXG      0.072250
     33 H1         -2.1330    2.1170   -2.2240 ho        1 NXG      0.231000
     34 H10        -0.9820   -1.4180    2.8930 h1        1 NXG      0.055000
     35 H111       -0.0230   -3.5390    2.4280 h1        1 NXG      0.067000
     36 H112       -1.1620   -4.3790    3.1230 h1        1 NXG      0.067000
     37 H131       -3.2080   -2.0910    3.0510 h1        1 NXG      0.067000
     38 H132       -2.6970   -3.4890    3.6310 h1        1 NXG      0.067000
     39 H81C       -2.6100   -0.8850    0.6000 hc        1 NXG      0.094750
     40 H82C       -2.9850   -0.5430    2.1590 hc        1 NXG      0.094750
     41 H151        0.6540   -2.2460    1.5490 hc        1 NXG      0.094750
     42 H152       -0.2520   -1.9870    0.2280 hc        1 NXG      0.094750
     43 H121       -1.1360   -5.8830    1.5320 hc        1 NXG      0.076667
     44 H122        0.1910   -5.1390    0.9510 hc        1 NXG      0.076667
     45 H123       -1.2660   -4.7330    0.4230 hc        1 NXG      0.076667
     46 H141       -3.8650   -4.5620    1.8680 hc        1 NXG      0.076667
     47 H142       -4.8630   -3.7490    2.7890 hc        1 NXG      0.076667
     48 H143       -4.4220   -3.1540    1.3720 hc        1 NXG      0.076667
     49 H191        6.6170    2.7310   -3.9190 h4        1 NXG      0.081000
     50 H192        6.0870    3.6630   -5.0860 h4        1 NXG      0.081000
     51 H2          7.4820    4.8580   -4.0120 ho        1 NXG      0.202000
@<TRIPOS>BOND
     1    1    9 1   
     2    1   20 1   
     3    2    9 1   
     4    2   11 1   
     5    3    6 1   
     6    3    8 1   
     7    3   19 1   
     8    4   11 1   
     9    4   33 1   
    10    5   10 1   
    11    5   25 1   
    12    6   27 1   
    13    6   28 1   
    14    7   13 1   
    15    7   14 1   
    16    7   16 1   
    17    8   12 1   
    18    8   29 1   
    19    8   30 1   
    20    9   26 1   
    21   10   24 1   
    22   12   13 1   
    23   12   39 1   
    24   12   40 1   
    25   13   18 1   
    26   13   34 1   
    27   14   15 1   
    28   14   35 1   
    29   14   36 1   
    30   15   43 1   
    31   15   44 1   
    32   15   45 1   
    33   16   17 1   
    34   16   37 1   
    35   16   38 1   
    36   17   46 1   
    37   17   47 1   
    38   17   48 1   
    39   18   19 1   
    40   18   41 1   
    41   18   42 1   
    42   19   31 1   
    43   19   32 1   
    44   20   21 1   
    45   22   23 1   
    46   22   49 1   
    47   22   50 1   
    48   23   51 1   
@<TRIPOS>SUBSTRUCTURE
     1 NXG         1 TEMP              0 ****  ****    0 ROOT
