@<TRIPOS>MOLECULE
NXG
   51    52     1     0     0
SMALL
bcc


@<TRIPOS>ATOM
      1 C01        -2.2150    1.9080    0.4300 ca        1 NXG     -0.017000
      2 C1         -0.5760    0.4510    1.4770 ca        1 NXG     -0.109300
      3 N1          1.8000   -0.1480    1.1770 n3        1 NXG     -0.723600
      4 O1         -1.0360   -1.8340    1.8370 oh        1 NXG     -0.480100
      5 C02        -3.0890    0.8230    0.2870 ca        1 NXG     -0.041000
      6 C2          0.7640    0.2460    2.1250 c3        1 NXG      0.225100
      7 N2          5.5670   -0.4560   -0.9450 n3        1 NXG     -0.728600
      8 C03         2.9260   -0.7940    1.8350 c3        1 NXG      0.168800
      9 C3         -0.9570    1.7080    1.0250 ca        1 NXG     -0.054000
     10 C4         -2.7280   -0.4470    0.7370 ca        1 NXG     -0.071100
     11 C7         -1.4710   -0.6350    1.3350 ca        1 NXG      0.191100
     12 C8          4.0210   -1.2370    0.8680 c3        1 NXG     -0.076900
     13 C10         4.5150   -0.0620    0.0100 c3        1 NXG      0.187500
     14 C11         5.9870    0.6740   -1.7660 c3        1 NXG      0.165800
     15 C12         7.2130    0.4500   -2.6360 c3        1 NXG     -0.113100
     16 C13         6.6580   -1.1960   -0.3400 c3        1 NXG      0.165800
     17 C14         7.4700   -0.5060    0.7460 c3        1 NXG     -0.113100
     18 C15         3.2910    0.5460   -0.6960 c3        1 NXG     -0.076900
     19 C16         2.2210    0.9460    0.3150 c3        1 NXG      0.168800
     20 C17        -2.5870    3.1880   -0.0200 cg        1 NXG     -0.090000
     21 C18        -2.9070    4.2760   -0.4050 c1        1 NXG     -0.122100
     22 C19        -3.3090    5.5740   -0.8740 c3        1 NXG      0.216500
     23 O2         -2.2700    6.5090   -0.5990 oh        1 NXG     -0.588800
     24 I2         -4.0620   -1.9480    0.4860 i         1 NXG     -0.138900
     25 H02        -4.0720    0.9840   -0.1860 ha        1 NXG      0.151000
     26 H3         -0.2660    2.5600    1.1330 ha        1 NXG      0.150000
     27 H21C        1.0420    1.1950    2.6750 h1        1 NXG      0.046200
     28 H22C        0.6610   -0.5760    2.8930 h1        1 NXG      0.046200
     29 H031        3.3880   -0.1200    2.6160 h1        1 NXG      0.030450
     30 H032        2.5320   -1.7080    2.3630 h1        1 NXG      0.030450
     31 H161        1.3100    1.3000   -0.2480 h1        1 NXG      0.030450
     32 H162        2.6080    1.8210    0.9190 h1        1 NXG      0.030450
     33 H1         -1.6980   -2.5150    1.6330 ho        1 NXG      0.430000
     34 H10         4.9210    0.7270    0.7210 h1        1 NXG      0.015700
     35 H111        5.1230    0.8990   -2.4570 h1        1 NXG      0.039950
     36 H112        6.1700    1.5960   -1.1370 h1        1 NXG      0.039950
     37 H131        6.2290   -2.1520    0.0780 h1        1 NXG      0.039950
     38 H132        7.3580   -1.5050   -1.1690 h1        1 NXG      0.039950
     39 H81C        4.8570   -1.6480    1.4920 hc        1 NXG      0.055450
     40 H82C        3.6400   -2.0550    0.2050 hc        1 NXG      0.055450
     41 H151        3.5760    1.4740   -1.2540 hc        1 NXG      0.055450
     42 H152        2.8740   -0.1910   -1.4290 hc        1 NXG      0.055450
     43 H121        8.1420    0.3840   -2.0200 hc        1 NXG      0.037533
     44 H122        7.1170   -0.4810   -3.2440 hc        1 NXG      0.037533
     45 H123        7.3160    1.3190   -3.3320 hc        1 NXG      0.037533
     46 H141        7.9100    0.4490    0.3690 hc        1 NXG      0.037533
     47 H142        6.8350   -0.2750    1.6350 hc        1 NXG      0.037533
     48 H143        8.3010   -1.1770    1.0690 hc        1 NXG      0.037533
     49 H191       -3.5010    5.5370   -1.9850 h1        1 NXG      0.041700
     50 H192       -4.2550    5.8940   -0.3490 h1        1 NXG      0.041700
     51 H2         -2.5840    7.3580   -0.9330 ho        1 NXG      0.404000
@<TRIPOS>BOND
     1    1    5 ar  
     2    1    9 ar  
     3    1   20 1   
     4    2    6 1   
     5    2    9 ar  
     6    2   11 ar  
     7    3    6 1   
     8    3    8 1   
     9    3   19 1   
    10    4   11 1   
    11    4   33 1   
    12    5   10 ar  
    13    5   25 1   
    14    6   27 1   
    15    6   28 1   
    16    7   13 1   
    17    7   14 1   
    18    7   16 1   
    19    8   12 1   
    20    8   29 1   
    21    8   30 1   
    22    9   26 1   
    23   10   11 ar  
    24   10   24 1   
    25   12   13 1   
    26   12   39 1   
    27   12   40 1   
    28   13   18 1   
    29   13   34 1   
    30   14   15 1   
    31   14   35 1   
    32   14   36 1   
    33   15   43 1   
    34   15   44 1   
    35   15   45 1   
    36   16   17 1   
    37   16   37 1   
    38   16   38 1   
    39   17   46 1   
    40   17   47 1   
    41   17   48 1   
    42   18   19 1   
    43   18   41 1   
    44   18   42 1   
    45   19   31 1   
    46   19   32 1   
    47   20   21 3   
    48   21   22 1   
    49   22   23 1   
    50   22   49 1   
    51   22   50 1   
    52   23   51 1   
@<TRIPOS>SUBSTRUCTURE
     1 NXG         1 TEMP              0 ****  ****    0 ROOT
