@<TRIPOS>MOLECULE
NXG
   52    53     1     0     0
SMALL
bcc


@<TRIPOS>ATOM
      1 C01         0.3010    0.0150   -0.0810 ca        1 NXG     -0.001000
      2 C1         -0.6060   -0.0140    2.1720 ca        1 NXG     -0.132300
      3 N1         -1.9460    1.5230    3.5730 n3        1 NXG     -0.733600
      4 O1          0.7330   -0.6100    4.0190 oh        1 NXG     -0.508100
      5 C02         1.5320   -0.4440    0.4110 ca        1 NXG     -0.033000
      6 C2         -1.7680    0.1500    3.1060 c3        1 NXG      0.229100
      7 N2         -2.5210    5.0930    5.9770 nx        1 NXG     -0.689400
      8 C03        -0.8250    2.0090    4.3640 c3        1 NXG      0.168300
      9 C3         -0.7640    0.2250    0.8100 ca        1 NXG     -0.042000
     10 C4          1.7150   -0.6780    1.7740 ca        1 NXG     -0.064100
     11 C7          0.6460   -0.4530    2.6560 ca        1 NXG      0.165100
     12 C8         -0.9760    3.4850    4.7400 c3        1 NXG     -0.098900
     13 C10        -2.2920    3.6720    5.4990 c3        1 NXG      0.124500
     14 C11        -2.2360    6.1040    4.9060 c3        1 NXG      0.107800
     15 C12        -2.9340    7.4300    5.1250 c3        1 NXG     -0.133600
     16 C13        -1.7300    5.3840    7.2190 c3        1 NXG      0.107800
     17 C14        -2.3580    4.8300    8.4810 c3        1 NXG     -0.133600
     18 C15        -3.4600    3.1710    4.6430 c3        1 NXG     -0.098900
     19 C16        -3.2150    1.7080    4.2600 c3        1 NXG      0.168300
     20 C17         0.1320    0.2640   -1.4540 cg        1 NXG     -0.119000
     21 C18        -0.0160    0.4790   -2.6240 c1        1 NXG     -0.133100
     22 C19        -0.1740    0.7510   -4.0310 c3        1 NXG      0.204500
     23 O2         -1.5290    0.7780   -4.4390 oh        1 NXG     -0.582800
     24 I2          3.5250   -1.3370    2.3890 i         1 NXG     -0.113900
     25 H02         2.3600   -0.6170   -0.2970 ha        1 NXG      0.163000
     26 H3         -1.7350    0.5780    0.4270 ha        1 NXG      0.153000
     27 H21C       -2.7100   -0.1390    2.5550 h1        1 NXG      0.058200
     28 H22C       -1.6390   -0.5640    3.9740 h1        1 NXG      0.058200
     29 H031       -0.6770    1.4030    5.3060 h1        1 NXG      0.059450
     30 H032        0.1100    1.8930    3.7420 h1        1 NXG      0.059450
     31 H161       -3.2910    1.0750    5.1940 h1        1 NXG      0.059450
     32 H162       -4.0410    1.3900    3.5610 h1        1 NXG      0.059450
     33 H1          1.5620   -1.0730    4.2260 ho        1 NXG      0.440000
     34 H10        -2.2510    3.0410    6.4410 hx        1 NXG      0.098700
     35 H111       -2.5760    5.6640    3.9230 hx        1 NXG      0.103200
     36 H112       -1.1190    6.2500    4.8600 hx        1 NXG      0.103200
     37 H131       -0.6950    4.9580    7.0780 hx        1 NXG      0.103200
     38 H132       -1.6400    6.5050    7.3120 hx        1 NXG      0.103200
     39 H81C       -0.1010    3.7790    5.3750 hc        1 NXG      0.068200
     40 H82C       -0.9620    4.1090    3.8080 hc        1 NXG      0.068200
     41 H151       -3.5640    3.7870    3.7120 hc        1 NXG      0.068200
     42 H152       -4.4240    3.2260    5.2130 hc        1 NXG      0.068200
     43 H121       -2.5830    7.9450    6.0520 hc        1 NXG      0.075867
     44 H122       -4.0440    7.3110    5.1760 hc        1 NXG      0.075867
     45 H123       -2.6960    8.0910    4.2510 hc        1 NXG      0.075867
     46 H141       -1.7200    5.1400    9.3480 hc        1 NXG      0.075867
     47 H142       -2.4090    3.7140    8.4710 hc        1 NXG      0.075867
     48 H143       -3.3860    5.2370    8.6440 hc        1 NXG      0.075867
     49 H191        0.3990   -0.0130   -4.6300 h1        1 NXG      0.072200
     50 H192        0.2110    1.7830   -4.2760 h1        1 NXG      0.072200
     51 H2         -1.8980   -0.1010   -4.2900 ho        1 NXG      0.406000
     52 H21        -3.5190    5.1680    6.2170 hn        1 NXG      0.440800
@<TRIPOS>BOND
     1    1    5 ar  
     2    1    9 ar  
     3    1   20 1   
     4    2    6 1   
     5    2    9 ar  
     6    2   11 ar  
     7    3    6 1   
     8    3    8 1   
     9    3   19 1   
    10    4   11 1   
    11    4   33 1   
    12    5   10 ar  
    13    5   25 1   
    14    6   27 1   
    15    6   28 1   
    16    7   13 1   
    17    7   14 1   
    18    7   16 1   
    19    7   52 1   
    20    8   12 1   
    21    8   29 1   
    22    8   30 1   
    23    9   26 1   
    24   10   11 ar  
    25   10   24 1   
    26   12   13 1   
    27   12   39 1   
    28   12   40 1   
    29   13   18 1   
    30   13   34 1   
    31   14   15 1   
    32   14   35 1   
    33   14   36 1   
    34   15   43 1   
    35   15   44 1   
    36   15   45 1   
    37   16   17 1   
    38   16   37 1   
    39   16   38 1   
    40   17   46 1   
    41   17   47 1   
    42   17   48 1   
    43   18   19 1   
    44   18   41 1   
    45   18   42 1   
    46   19   31 1   
    47   19   32 1   
    48   20   21 3   
    49   21   22 1   
    50   22   23 1   
    51   22   49 1   
    52   22   50 1   
    53   23   51 1   
@<TRIPOS>SUBSTRUCTURE
     1 NXG         1 TEMP              0 ****  ****    0 ROOT
