@<TRIPOS>MOLECULE
NXG
   52    53     1     0     0
SMALL
bcc


@<TRIPOS>ATOM
      1 C01         0.0110   -0.0710   -0.2790 ca        1 NXG     -0.006000
      2 C1         -0.0810    0.1970    2.1360 ca        1 NXG     -0.201300
      3 N1         -0.8840    1.4580    4.1190 n3        1 NXG     -0.750600
      4 O1          2.0190    0.6190    3.3120 oh        1 NXG     -0.480100
      5 C02         1.4020    0.1220   -0.2420 ca        1 NXG     -0.033000
      6 C2         -0.9010    0.1910    3.3910 c3        1 NXG      0.221100
      7 N2         -1.7660    5.1990    6.1300 n4        1 NXG     -0.689400
      8 C03        -1.6520    1.3990    5.3520 c3        1 NXG      0.169300
      9 C3         -0.7200   -0.0320    0.9160 ca        1 NXG     -0.051000
     10 C4          2.0620    0.3490    0.9620 ca        1 NXG     -0.019100
     11 C7          1.3170    0.3820    2.1580 ca        1 NXG      0.190100
     12 C8         -1.5080    2.6740    6.1880 c3        1 NXG     -0.102400
     13 C10        -1.9170    3.8990    5.3610 c3        1 NXG      0.128500
     14 C11        -2.4690    6.3240    5.4270 c3        1 NXG      0.107800
     15 C12        -2.0300    7.6990    5.8880 c3        1 NXG     -0.129600
     16 C13        -2.2020    5.1050    7.5620 c3        1 NXG      0.107800
     17 C14        -3.6570    4.7500    7.7820 c3        1 NXG     -0.129600
     18 C15        -1.0830    3.9250    4.0710 c3        1 NXG     -0.102400
     19 C16        -1.2560    2.6080    3.3120 c3        1 NXG      0.169300
     20 C17        -0.6450   -0.2980   -1.5020 cg        1 NXG     -0.120000
     21 C18        -1.2070   -0.4900   -2.5420 c1        1 NXG     -0.135100
     22 C19        -1.8890   -0.7450   -3.7860 c3        1 NXG      0.204500
     23 O2         -2.4680    0.4180   -4.3480 oh        1 NXG     -0.583800
     24 I2          4.0660    0.6140    0.9020 i         1 NXG     -0.094900
     25 H02         1.9700    0.0870   -1.1880 ha        1 NXG      0.164000
     26 H3         -1.8100   -0.1900    0.8870 ha        1 NXG      0.146000
     27 H21C       -0.4880   -0.5930    4.0930 h1        1 NXG      0.054200
     28 H22C       -1.9600   -0.1160    3.1350 h1        1 NXG      0.054200
     29 H031       -2.7510    1.2190    5.1590 h1        1 NXG      0.060200
     30 H032       -1.2650    0.5360    5.9660 h1        1 NXG      0.060200
     31 H161       -2.3230    2.5410    2.9460 h1        1 NXG      0.060200
     32 H162       -0.5800    2.6310    2.4080 h1        1 NXG      0.060200
     33 H1          1.4410    0.4690    4.0740 ho        1 NXG      0.434000
     34 H10        -3.0140    3.8140    5.0980 hx        1 NXG      0.100700
     35 H111       -3.5770    6.1910    5.5890 hx        1 NXG      0.101200
     36 H112       -2.2640    6.2270    4.3220 hx        1 NXG      0.101200
     37 H131       -1.9910    6.1100    8.0330 hx        1 NXG      0.101200
     38 H132       -1.5400    4.3430    8.0670 hx        1 NXG      0.101200
     39 H81C       -2.1690    2.5560    7.0860 hc        1 NXG      0.070950
     40 H82C       -0.4470    2.7780    6.5360 hc        1 NXG      0.070950
     41 H151        0.0020    4.0770    4.3150 hc        1 NXG      0.070950
     42 H152       -1.4090    4.7490    3.3860 hc        1 NXG      0.070950
     43 H121       -2.5230    8.4560    5.2250 hc        1 NXG      0.075867
     44 H122       -2.3430    7.9080    6.9390 hc        1 NXG      0.075867
     45 H123       -0.9240    7.8330    5.8040 hc        1 NXG      0.075867
     46 H141       -3.9540    3.8220    7.2360 hc        1 NXG      0.075867
     47 H142       -4.3370    5.5810    7.4760 hc        1 NXG      0.075867
     48 H143       -3.8030    4.5720    8.8790 hc        1 NXG      0.075867
     49 H191       -2.7640   -1.4380   -3.6190 h1        1 NXG      0.073200
     50 H192       -1.1750   -1.2180   -4.5190 h1        1 NXG      0.073200
     51 H2         -1.7530    1.0330   -4.5510 ho        1 NXG      0.405000
     52 H21        -0.7600    5.4220    6.1440 hn        1 NXG      0.442800
@<TRIPOS>BOND
     1    1    5 ar  
     2    1    9 ar  
     3    1   20 1   
     4    2    6 1   
     5    2    9 ar  
     6    2   11 ar  
     7    3    6 1   
     8    3    8 1   
     9    3   19 1   
    10    4   11 1   
    11    4   33 1   
    12    5   10 ar  
    13    5   25 1   
    14    6   27 1   
    15    6   28 1   
    16    7   13 1   
    17    7   14 1   
    18    7   16 1   
    19    7   52 1   
    20    8   12 1   
    21    8   29 1   
    22    8   30 1   
    23    9   26 1   
    24   10   11 ar  
    25   10   24 1   
    26   12   13 1   
    27   12   39 1   
    28   12   40 1   
    29   13   18 1   
    30   13   34 1   
    31   14   15 1   
    32   14   35 1   
    33   14   36 1   
    34   15   43 1   
    35   15   44 1   
    36   15   45 1   
    37   16   17 1   
    38   16   37 1   
    39   16   38 1   
    40   17   46 1   
    41   17   47 1   
    42   17   48 1   
    43   18   19 1   
    44   18   41 1   
    45   18   42 1   
    46   19   31 1   
    47   19   32 1   
    48   20   21 3   
    49   21   22 1   
    50   22   23 1   
    51   22   49 1   
    52   22   50 1   
    53   23   51 1   
@<TRIPOS>SUBSTRUCTURE
     1 NXG         1 TEMP              0 ****  ****    0 ROOT
