@<TRIPOS>MOLECULE
NXL
   31    31     1     0     0
SMALL
bcc


@<TRIPOS>ATOM
      1 OAC         1.2070   -3.0090   -0.1600 o         1 NXL     -0.504100
      2 CAN         1.9080   -2.0230    0.0700 c         1 NXL      0.627900
      3 N           1.6980   -1.2050    1.2070 n         1 NXL     -0.459800
      4 CAJ         0.8770   -1.7230    2.2880 c3        1 NXL      0.038000
      5 CA          2.8160   -0.4350    1.7230 c3        1 NXL     -0.015300
      6 C           3.4280    0.4760    0.6680 c         1 NXL      0.555100
      7 O           4.4180    0.3150   -0.0240 o         1 NXL     -0.402100
      8 NAA         2.6890    1.7780    0.5180 n4        1 NXL     -0.751400
      9 CB          3.8570   -1.2860    2.4540 c3        1 NXL     -0.094400
     10 CAH         3.1490   -2.2790    3.3660 c3        1 NXL     -0.087400
     11 CAO         1.6520   -2.0460    3.5940 c3        1 NXL      0.099500
     12 NAK         1.3480   -1.0420    4.7000 n4        1 NXL     -0.440500
     13 OAL         1.7480    0.1850    4.4420 os        1 NXL     -0.448000
     14 SAR         0.6420    1.6560    4.0660 s6        1 NXL      1.744300
     15 OAD        -0.4660    0.8550    3.9440 o         1 NXL     -0.705867
     16 OAE         1.2900    1.9820    2.8790 o         1 NXL     -0.705867
     17 OAG         0.8720    2.4010    5.1710 o         1 NXL     -0.705867
     18 H1          2.7000   -1.6490   -0.6180 h5        1 NXL      0.049200
     19 H2          0.0650   -0.9590    2.4880 h1        1 NXL      0.118700
     20 H3          0.3750   -2.6760    1.9410 h1        1 NXL      0.118700
     21 H4          2.3890    0.2690    2.5140 h1        1 NXL      0.151700
     22 H5          2.7370    2.3040    1.4140 hn        1 NXL      0.487133
     23 H6          1.6900    1.5870    0.3620 hn        1 NXL      0.487133
     24 H7          4.5160   -0.6070    3.0570 hc        1 NXL      0.085200
     25 H8          4.5110   -1.8350    1.7270 hc        1 NXL      0.085200
     26 H9          3.2340   -3.3080    2.9160 hc        1 NXL      0.086700
     27 H10         3.6870   -2.3110    4.3510 hc        1 NXL      0.086700
     28 H11         1.2200   -3.0120    4.0070 hx        1 NXL      0.104700
     29 H12         0.3130   -1.0510    4.8510 hn        1 NXL      0.453800
     30 HAA3        3.0700    2.3440   -0.2430 hn        1 NXL      0.487133
     31 HAK2        1.8290   -1.3610    5.5620 hn        1 NXL      0.453800
@<TRIPOS>BOND
     1    1    2 2   
     2    2    3 1   
     3    2   18 1   
     4    3    4 1   
     5    3    5 1   
     6    4   11 1   
     7    4   19 1   
     8    4   20 1   
     9    5    6 1   
    10    5    9 1   
    11    5   21 1   
    12    6    7 2   
    13    6    8 1   
    14    8   22 1   
    15    8   23 1   
    16    8   30 1   
    17    9   10 1   
    18    9   24 1   
    19    9   25 1   
    20   10   11 1   
    21   10   26 1   
    22   10   27 1   
    23   11   12 1   
    24   11   28 1   
    25   12   13 1   
    26   12   29 1   
    27   12   31 1   
    28   13   14 1   
    29   14   15 1   
    30   14   16 1   
    31   14   17 1   
@<TRIPOS>SUBSTRUCTURE
     1 NXL         1 TEMP              0 ****  ****    0 ROOT
