@<TRIPOS>MOLECULE
NXL
   31    31     1     0     0
SMALL
bcc


@<TRIPOS>ATOM
      1 OAC         1.5790   -3.2540   -0.3970 o         1 NXL     -0.523100
      2 CAN         2.0860   -2.1520   -0.1720 c         1 NXL      0.635900
      3 N           1.5980   -1.3190    0.8580 n         1 NXL     -0.460800
      4 CAJ         0.6250   -1.8600    1.7940 c3        1 NXL      0.060000
      5 CA          2.4500   -0.3530    1.5210 c3        1 NXL      0.013700
      6 C           3.2860    0.5320    0.6080 c         1 NXL      0.555100
      7 O           3.7630    0.3130   -0.4930 o         1 NXL     -0.414100
      8 NAA         3.5690    1.8880    1.1940 nz        1 NXL     -0.747400
      9 CB          3.3740   -0.9770    2.5870 c3        1 NXL     -0.115400
     10 CAH         2.7060   -2.1750    3.2380 c3        1 NXL     -0.096400
     11 CAO         1.1780   -2.1150    3.2240 c3        1 NXL      0.098500
     12 NAK         0.6300   -1.1390    4.2560 ny        1 NXL     -0.443500
     13 OAL         0.6850    0.1190    3.8690 os        1 NXL     -0.448000
     14 SAR         1.6340    1.4880    4.7160 s6        1 NXL      1.745300
     15 OAD         2.2670    0.6150    5.5660 o         1 NXL     -0.709867
     16 OAE         0.6070    2.2740    5.1110 o         1 NXL     -0.709867
     17 OAG         2.3560    1.8340    3.5770 o         1 NXL     -0.709867
     18 H1          2.8910   -1.7010   -0.7960 h5        1 NXL      0.073200
     19 H2         -0.2410   -1.1360    1.8350 h1        1 NXL      0.110200
     20 H3          0.2450   -2.8450    1.3890 h1        1 NXL      0.110200
     21 H4          1.7200    0.3500    2.0580 h1        1 NXL      0.149700
     22 H5          4.1860    2.4360    0.5900 hn        1 NXL      0.485800
     23 H6          2.6800    2.3900    1.3490 hn        1 NXL      0.485800
     24 H7          3.5870   -0.1930    3.3650 hc        1 NXL      0.081200
     25 H8          4.3470   -1.3020    2.1380 hc        1 NXL      0.081200
     26 H9          2.9920   -3.1140    2.6870 hc        1 NXL      0.094700
     27 H10         3.0920   -2.2820    4.2880 hc        1 NXL      0.094700
     28 H11         0.7840   -3.1190    3.5730 hx        1 NXL      0.106700
     29 H12        -0.3670   -1.3770    4.4220 hn        1 NXL      0.454800
     30 HAA3        3.9820    1.7780    2.1370 hn        1 NXL      0.485800
     31 HAK2        1.1710   -1.2650    5.1420 hn        1 NXL      0.454800
@<TRIPOS>BOND
     1    1    2 2   
     2    2    3 1   
     3    2   18 1   
     4    3    4 1   
     5    3    5 1   
     6    4   11 1   
     7    4   19 1   
     8    4   20 1   
     9    5    6 1   
    10    5    9 1   
    11    5   21 1   
    12    6    7 2   
    13    6    8 1   
    14    8   22 1   
    15    8   23 1   
    16    8   30 1   
    17    9   10 1   
    18    9   24 1   
    19    9   25 1   
    20   10   11 1   
    21   10   26 1   
    22   10   27 1   
    23   11   12 1   
    24   11   28 1   
    25   12   13 1   
    26   12   29 1   
    27   12   31 1   
    28   13   14 1   
    29   14   15 1   
    30   14   16 1   
    31   14   17 1   
@<TRIPOS>SUBSTRUCTURE
     1 NXL         1 TEMP              0 ****  ****    0 ROOT
