@<TRIPOS>MOLECULE
NXL
   31    31     1     0     0
SMALL
bcc


@<TRIPOS>ATOM
      1 OAC         1.6070   -3.1210   -0.1660 o         1 NXL     -0.504100
      2 CAN         2.1890   -2.0640    0.0840 c         1 NXL      0.627900
      3 N           1.8350   -1.2590    1.1940 n         1 NXL     -0.459800
      4 CAJ         1.0150   -1.8470    2.2390 c3        1 NXL      0.038000
      5 CA          2.8380   -0.3710    1.7540 c3        1 NXL     -0.015300
      6 C           3.4090    0.5870    0.7180 c         1 NXL      0.555100
      7 O           4.4460    0.5200    0.0810 o         1 NXL     -0.402100
      8 NAA         2.5490    1.8030    0.5080 n4        1 NXL     -0.751400
      9 CB          3.9210   -1.1010    2.5540 c3        1 NXL     -0.094400
     10 CAH         3.2710   -2.1510    3.4440 c3        1 NXL     -0.087400
     11 CAO         1.7480   -2.0730    3.5890 c3        1 NXL      0.099500
     12 NAK         1.2820   -1.0930    4.6610 n4        1 NXL     -0.440500
     13 OAL         1.5670    0.1660    4.4030 os        1 NXL     -0.448000
     14 SAR         0.3370    1.5100    3.9460 s6        1 NXL      1.744300
     15 OAD        -0.6740    0.5960    3.7790 o         1 NXL     -0.705867
     16 OAE         1.0110    1.8870    2.7890 o         1 NXL     -0.705867
     17 OAG         0.4290    2.2870    5.0490 o         1 NXL     -0.705867
     18 H1          2.9740   -1.6170   -0.5680 h5        1 NXL      0.049200
     19 H2          0.6330   -2.8510    1.8830 h1        1 NXL      0.118700
     20 H3          0.1180   -1.1700    2.3840 h1        1 NXL      0.118700
     21 H4          2.2980    0.2930    2.5100 h1        1 NXL      0.151700
     22 H5          1.5850    1.5080    0.3040 hn        1 NXL      0.487133
     23 H6          2.9100    2.3970   -0.2420 hn        1 NXL      0.487133
     24 H7          4.4720   -0.3500    3.1780 hc        1 NXL      0.085200
     25 H8          4.6660   -1.5870    1.8720 hc        1 NXL      0.085200
     26 H9          3.7560   -2.1160    4.4570 hc        1 NXL      0.086700
     27 H10         3.4860   -3.1710    3.0160 hc        1 NXL      0.086700
     28 H11         1.3960   -3.0740    3.9960 hx        1 NXL      0.104700
     29 H12         1.7470   -1.3510    5.5520 hn        1 NXL      0.453800
     30 HAA3        2.4940    2.3420    1.3960 hn        1 NXL      0.487133
     31 HAK2        0.2480   -1.2080    4.7570 hn        1 NXL      0.453800
@<TRIPOS>BOND
     1    1    2 2   
     2    2    3 1   
     3    2   18 1   
     4    3    4 1   
     5    3    5 1   
     6    4   11 1   
     7    4   19 1   
     8    4   20 1   
     9    5    6 1   
    10    5    9 1   
    11    5   21 1   
    12    6    7 2   
    13    6    8 1   
    14    8   22 1   
    15    8   23 1   
    16    8   30 1   
    17    9   10 1   
    18    9   24 1   
    19    9   25 1   
    20   10   11 1   
    21   10   26 1   
    22   10   27 1   
    23   11   12 1   
    24   11   28 1   
    25   12   13 1   
    26   12   29 1   
    27   12   31 1   
    28   13   14 1   
    29   14   15 1   
    30   14   16 1   
    31   14   17 1   
@<TRIPOS>SUBSTRUCTURE
     1 NXL         1 TEMP              0 ****  ****    0 ROOT
