@<TRIPOS>MOLECULE
NXL
   29    27     1     0     0
SMALL
bcc


@<TRIPOS>ATOM
      1 OAC        -2.3130   -0.9390   -2.1070 o         1 NXL     -0.375000
      2 CAN        -1.1000   -0.9390   -2.1470 c1        1 NXL      0.268000
      3 N          -0.3520   -0.9090   -0.9420 n2        1 NXL     -0.312000
      4 CAJ        -0.9800   -0.8770    0.3750 c3        1 NXL     -0.029000
      5 CA          1.1340   -0.9080   -0.9190 c3        1 NXL      0.029000
      6 C           1.6780   -2.2410   -0.4720 c2        1 NXL      0.264000
      7 O           1.1330   -2.8490    0.4290 o         1 NXL     -0.368000
      8 NAA         2.8320   -2.7970   -1.1150 n         1 NXL     -0.431000
      9 CB          1.6260    0.2780   -0.0220 c3        1 NXL     -0.180000
     10 CAH         0.9840    0.2940    1.3120 c3        1 NXL     -0.198000
     11 CAO        -0.4760    0.2480    1.2320 c3        1 NXL     -0.094000
     12 NAK        -0.9620    1.5280    0.6700 n3        1 NXL     -0.034000
     13 OAL        -2.2320    1.7850    1.1440 os        1 NXL     -0.691000
     14 SAR        -2.6040    3.1940    0.7340 s4        1 NXL      2.064800
     15 OAD        -2.4990    3.3470   -0.7640 os        1 NXL     -1.040000
     16 OAE        -3.9870    3.5630    1.2280 o         1 NXL     -0.688900
     17 OAG        -1.7540    4.2160    1.4500 o         1 NXL     -0.688900
     18 H1         -0.6400   -1.0230   -3.0050 ha        1 NXL      0.105000
     19 H2         -1.9480   -0.7770    0.2600 h1        1 NXL      0.105000
     20 H3         -0.8010   -1.7220    0.8290 h1        1 NXL      0.105000
     21 H4          1.5090   -0.8420   -1.8200 h1        1 NXL      0.099000
     22 H5          3.1910   -3.5850   -0.8120 hn        1 NXL      0.211000
     23 H6          3.2270   -2.3510   -1.8110 hn        1 NXL      0.211000
     24 H7          1.4260    1.1210   -0.4780 hc        1 NXL      0.115000
     25 H8          2.5930    0.2040    0.0940 hc        1 NXL      0.115000
     26 H9          1.2970   -0.4790    1.8220 hc        1 NXL      0.106500
     27 H10         1.2500    1.1100    1.7800 hc        1 NXL      0.106500
     28 H11        -0.8360    0.1430    2.1310 h1        1 NXL      0.111000
     29 H12        -0.3970    2.2080    0.9230 hn        1 NXL      0.113000
@<TRIPOS>BOND
     1    1    2 1   
     2    2   18 1   
     3    3    4 1   
     4    3    5 1   
     5    4   11 1   
     6    4   19 1   
     7    4   20 1   
     8    5    6 1   
     9    5    9 1   
    10    5   21 1   
    11    6    7 1   
    12    6    8 1   
    13    8   22 1   
    14    8   23 1   
    15    9   10 1   
    16    9   24 1   
    17    9   25 1   
    18   10   11 1   
    19   10   26 1   
    20   10   27 1   
    21   11   12 1   
    22   11   28 1   
    23   12   13 1   
    24   12   29 1   
    25   13   14 1   
    26   14   16 1   
    27   14   17 1   
@<TRIPOS>SUBSTRUCTURE
     1 NXL         1 TEMP              0 ****  ****    0 ROOT
