@<TRIPOS>MOLECULE
NXL
   29    29     1     0     0
SMALL
bcc


@<TRIPOS>ATOM
      1 OAC        -2.0940    2.6130   -1.1080 o         1 NXL     -0.582100
      2 CAN        -2.5740    1.6140   -0.5510 c         1 NXL      0.642900
      3 N          -2.2080    0.3110   -0.8830 n         1 NXL     -0.458800
      4 CAJ        -0.8730    0.0560   -1.4030 c3        1 NXL      0.074000
      5 CA         -2.7350   -0.8020   -0.1060 c3        1 NXL      0.018700
      6 C          -4.1740   -0.5920    0.3920 c         1 NXL      0.647100
      7 O          -4.4960   -0.7330    1.5870 o         1 NXL     -0.610100
      8 NAA        -5.1350   -0.3060   -0.5480 n         1 NXL     -0.681000
      9 CB         -1.8150   -1.2110    1.0530 c3        1 NXL     -0.087400
     10 CAH        -0.4540   -1.5630    0.4970 c3        1 NXL     -0.101400
     11 CAO         0.1380   -0.4130   -0.3250 c3        1 NXL      0.075500
     12 NAK         1.4470   -0.7180   -0.9680 n3        1 NXL     -0.461700
     13 OAL         2.3100   -1.1550   -0.0730 os        1 NXL     -0.440000
     14 SAR         3.4900   -0.0100    0.6060 s6        1 NXL      1.704300
     15 OAD         2.6540    0.9480    1.1720 o         1 NXL     -0.744200
     16 OAE         4.1040   -0.8840    1.4960 o         1 NXL     -0.744200
     17 OAG         4.2520    0.3880   -0.4820 o         1 NXL     -0.744200
     18 H1         -3.3990    1.7000    0.1970 h5        1 NXL      0.020200
     19 H2         -0.9760   -0.7340   -2.2000 h1        1 NXL      0.065700
     20 H3         -0.4910    1.0030   -1.8790 h1        1 NXL      0.065700
     21 H4         -2.7800   -1.6830   -0.8240 h1        1 NXL      0.070700
     22 H5         -4.8890   -0.1370   -1.4890 hn        1 NXL      0.311000
     23 H6         -6.0720   -0.1680   -0.2660 hn        1 NXL      0.311000
     24 H7         -1.7370   -0.3770    1.7960 hc        1 NXL      0.060700
     25 H8         -2.2690   -2.0890    1.5790 hc        1 NXL      0.060700
     26 H9          0.2530   -1.8000    1.3360 hc        1 NXL      0.055200
     27 H10        -0.5360   -2.4820   -0.1410 hc        1 NXL      0.055200
     28 H11         0.3530    0.4480    0.3780 h1        1 NXL      0.109700
     29 H12         1.2690   -1.5000   -1.6070 hn        1 NXL      0.306800
@<TRIPOS>BOND
     1    1    2 2   
     2    2    3 1   
     3    2   18 1   
     4    3    4 1   
     5    3    5 1   
     6    4   11 1   
     7    4   19 1   
     8    4   20 1   
     9    5    6 1   
    10    5    9 1   
    11    5   21 1   
    12    6    7 2   
    13    6    8 1   
    14    8   22 1   
    15    8   23 1   
    16    9   10 1   
    17    9   24 1   
    18    9   25 1   
    19   10   11 1   
    20   10   26 1   
    21   10   27 1   
    22   11   12 1   
    23   11   28 1   
    24   12   13 1   
    25   12   29 1   
    26   13   14 1   
    27   14   15 1   
    28   14   16 1   
    29   14   17 1   
@<TRIPOS>SUBSTRUCTURE
     1 NXL         1 TEMP              0 ****  ****    0 ROOT
