@<TRIPOS>MOLECULE
NXN
   28    28     1     0     0
SMALL
bcc


@<TRIPOS>ATOM
      1 O17         2.3930   -2.5050    0.5850 o         1 NXN     -0.399100
      2 C12         2.7460   -1.4230    0.1470 c         1 NXN      0.507100
      3 N1          2.1680   -0.1820    0.7700 n4        1 NXN     -0.690800
      4 C14         1.0470   -0.4490    1.7190 c3        1 NXN      0.104800
      5 C15         0.5430    0.8090    2.4060 c3        1 NXN     -0.060300
      6 S19        -0.9510    0.4330    3.2460 sh        1 NXN     -0.252900
      7 C9          3.7650   -1.2070   -0.9620 c3        1 NXN      0.058400
      8 O18         3.7170    0.1190   -1.4620 os        1 NXN     -0.332900
      9 C10         3.1120    0.2490   -2.7140 ca        1 NXN      0.044100
     10 C6          3.7380   -0.2850   -3.8470 ca        1 NXN     -0.114000
     11 C5          3.1990   -0.0490   -5.1080 ca        1 NXN     -0.092000
     12 C8          1.9460    1.0210   -2.8410 ca        1 NXN      0.010400
     13 CL4         1.1660    1.7080   -1.4840 cl        1 NXN     -0.083400
     14 C11         1.4110    1.2650   -4.1080 ca        1 NXN     -0.093000
     15 C16         2.0370    0.7240   -5.2380 ca        1 NXN      0.036400
     16 CL3         1.3840    1.0120   -6.7670 cl        1 NXN     -0.018400
     17 H1          2.9250    0.3130    1.2540 hn        1 NXN      0.469300
     18 H141        0.2110   -0.9330    1.1330 hx        1 NXN      0.119700
     19 H142        1.4110   -1.1960    2.4830 hx        1 NXN      0.119700
     20 H151        1.3190    1.2350    3.0870 h1        1 NXN      0.097200
     21 H152        0.2720    1.5990    1.6570 h1        1 NXN      0.097200
     22 H19        -0.4660    0.0410    4.4140 hs        1 NXN      0.211800
     23 H91         4.7930   -1.3260   -0.5090 h1        1 NXN      0.131700
     24 H92         3.5940   -1.9860   -1.7540 h1        1 NXN      0.131700
     25 H6          4.6620   -0.8750   -3.7360 ha        1 NXN      0.165000
     26 H5          3.6940   -0.4640   -6.0030 ha        1 NXN      0.179000
     27 H11         0.5020    1.8830   -4.2180 ha        1 NXN      0.185000
     28 H12         1.8390    0.4440   -0.0100 hn        1 NXN      0.469300
@<TRIPOS>BOND
     1    1    2 2   
     2    2    3 1   
     3    2    7 1   
     4    3    4 1   
     5    3   17 1   
     6    3   28 1   
     7    4    5 1   
     8    4   18 1   
     9    4   19 1   
    10    5    6 1   
    11    5   20 1   
    12    5   21 1   
    13    6   22 1   
    14    7    8 1   
    15    7   23 1   
    16    7   24 1   
    17    8    9 1   
    18    9   10 ar  
    19    9   12 ar  
    20   10   11 ar  
    21   10   25 1   
    22   11   15 ar  
    23   11   26 1   
    24   12   13 1   
    25   12   14 ar  
    26   14   15 ar  
    27   14   27 1   
    28   15   16 1   
@<TRIPOS>SUBSTRUCTURE
     1 NXN         1 TEMP              0 ****  ****    0 ROOT
