@<TRIPOS>MOLECULE
NXN
   27    24     1     0     0
SMALL
bcc


@<TRIPOS>ATOM
      1 O17        -1.6950   -0.7990    1.3140 o         1 NXN     -0.364000
      2 C12        -0.5850   -0.3720    1.2470 c1        1 NXN      0.296000
      3 N1         -0.0010    0.2960    2.3810 n2        1 NXN     -0.352000
      4 C14        -0.8630    1.0810    3.3080 c3        1 NXN     -0.035000
      5 C15        -0.1480    1.2550    4.6460 c3        1 NXN     -0.296000
      6 S19        -0.8970    2.6320    5.5520 sh        1 NXN     -0.006000
      7 C9          0.2430   -0.5980   -0.0100 c3        1 NXN     -0.045000
      8 O18        -0.5920   -1.1450   -1.0430 os        1 NXN     -0.229000
      9 C10        -0.0760   -0.9800   -2.3430 c2        1 NXN      0.050000
     10 C6          0.8380   -1.8890   -2.8440 c1        1 NXN     -0.133000
     11 C5          1.3080   -1.7540   -4.1180 c1        1 NXN     -0.111000
     12 C8         -0.5130    0.0590   -3.1250 c2        1 NXN     -0.061000
     13 CL4        -1.7480    1.1260   -2.5320 cl        1 NXN      0.020000
     14 C11        -0.0380    0.1980   -4.4210 c1        1 NXN     -0.113000
     15 C16         0.8650   -0.6990   -4.9160 c1        1 NXN     -0.059000
     16 CL3         1.4620   -0.5260   -6.5350 cl        1 NXN      0.002000
     17 H1          0.8840    0.1430    2.5960 hn        1 NXN      0.234000
     18 H141       -1.7040    0.6080    3.4480 h1        1 NXN      0.112000
     19 H142       -1.0470    1.9700    2.9160 h1        1 NXN      0.112000
     20 H151        0.7920    1.4430    4.4900 h1        1 NXN      0.120500
     21 H152       -0.2340    0.4300    5.1730 h1        1 NXN      0.120500
     22 H19        -0.6040    2.5610    6.6930 hs        1 NXN      0.033000
     23 H91         0.6230    0.2660   -0.3140 h1        1 NXN      0.113500
     24 H92         0.9700   -1.2230    0.1860 h1        1 NXN      0.113500
     25 H6          1.1540   -2.6390   -2.2770 ha        1 NXN      0.153000
     26 H5          1.9620   -2.4060   -4.4770 ha        1 NXN      0.156000
     27 H11        -0.3580    0.9600   -4.9950 ha        1 NXN      0.166000
@<TRIPOS>BOND
     1    1    2 1   
     2    2    7 1   
     3    3    4 1   
     4    3   17 1   
     5    4    5 1   
     6    4   18 1   
     7    4   19 1   
     8    5    6 1   
     9    5   20 1   
    10    5   21 1   
    11    6   22 1   
    12    7    8 1   
    13    7   23 1   
    14    7   24 1   
    15    8    9 1   
    16    9   10 1   
    17    9   12 1   
    18   10   25 1   
    19   11   15 1   
    20   11   26 1   
    21   12   13 1   
    22   12   14 1   
    23   14   27 1   
    24   15   16 1   
@<TRIPOS>SUBSTRUCTURE
     1 NXN         1 TEMP              0 ****  ****    0 ROOT
