@<TRIPOS>MOLECULE
NXN
   27    27     1     0     0
SMALL
bcc


@<TRIPOS>ATOM
      1 O17         1.3830   -2.0080    2.6310 o         1 NXN     -0.611100
      2 C12         1.3670   -0.9070    2.0420 c         1 NXN      0.627100
      3 N1          0.4550    0.0740    2.3460 n         1 NXN     -0.558900
      4 C14        -0.4920   -0.0550    3.4170 c3        1 NXN      0.089000
      5 C15        -0.0900    0.6540    4.7070 c3        1 NXN     -0.030300
      6 S19        -1.3540    0.5320    5.9290 sh        1 NXN     -0.360900
      7 C9          2.3970   -0.6490    0.9440 c3        1 NXN      0.055400
      8 O18         2.1240    0.4870    0.1310 os        1 NXN     -0.324900
      9 C10         1.2240    0.2940   -0.9080 ca        1 NXN      0.105100
     10 C6          1.3730   -0.7560   -1.8240 ca        1 NXN     -0.149000
     11 C5          0.5140   -0.8610   -2.9130 ca        1 NXN     -0.099000
     12 C8          0.2140    1.2570   -1.0980 ca        1 NXN      0.008400
     13 CL4         0.0090    2.5670   -0.0350 cl        1 NXN     -0.070400
     14 C11        -0.6420    1.1530   -2.1990 ca        1 NXN     -0.103000
     15 C16        -0.4930    0.0930   -3.0960 ca        1 NXN      0.009400
     16 CL3        -1.5430   -0.0330   -4.4240 cl        1 NXN     -0.076400
     17 H1          0.5410    0.9610    1.9040 hn        1 NXN      0.326500
     18 H141       -0.6380   -1.1540    3.6350 h1        1 NXN      0.071200
     19 H142       -1.4770    0.3700    3.0650 h1        1 NXN      0.071200
     20 H151        0.0400    1.7520    4.5360 h1        1 NXN      0.079700
     21 H152        0.8760    0.2460    5.0910 h1        1 NXN      0.079700
     22 H19        -1.3070   -0.7670    6.1700 hs        1 NXN      0.204800
     23 H91         3.3760   -0.3870    1.4350 h1        1 NXN      0.091200
     24 H92         2.5090   -1.5860    0.3400 h1        1 NXN      0.091200
     25 H6          2.1770   -1.4960   -1.6910 ha        1 NXN      0.152000
     26 H5          0.6320   -1.6900   -3.6280 ha        1 NXN      0.157000
     27 H11        -1.4320    1.9060   -2.3530 ha        1 NXN      0.166000
@<TRIPOS>BOND
     1    1    2 2   
     2    2    3 1   
     3    2    7 1   
     4    3    4 1   
     5    3   17 1   
     6    4    5 1   
     7    4   18 1   
     8    4   19 1   
     9    5    6 1   
    10    5   20 1   
    11    5   21 1   
    12    6   22 1   
    13    7    8 1   
    14    7   23 1   
    15    7   24 1   
    16    8    9 1   
    17    9   10 ar  
    18    9   12 ar  
    19   10   11 ar  
    20   10   25 1   
    21   11   15 ar  
    22   11   26 1   
    23   12   13 1   
    24   12   14 ar  
    25   14   15 ar  
    26   14   27 1   
    27   15   16 1   
@<TRIPOS>SUBSTRUCTURE
     1 NXN         1 TEMP              0 ****  ****    0 ROOT
