@<TRIPOS>MOLECULE
NXN
   28    28     1     0     0
SMALL
bcc


@<TRIPOS>ATOM
      1 O17         2.3180   -2.5450    0.5350 o         1 NXN     -0.399100
      2 C12         2.7110   -1.4740    0.1010 c         1 NXN      0.507100
      3 N1          2.2190   -0.2160    0.7620 n4        1 NXN     -0.690800
      4 C14         1.1180   -0.4420    1.7450 c3        1 NXN      0.104800
      5 C15         0.7030    0.8280    2.4690 c3        1 NXN     -0.060300
      6 S19        -0.7790    0.5150    3.3540 sh        1 NXN     -0.252900
      7 C9          3.7010   -1.2920   -1.0390 c3        1 NXN      0.058400
      8 O18         3.7040    0.0430   -1.5170 os        1 NXN     -0.332900
      9 C10         3.0650    0.2260   -2.7450 ca        1 NXN      0.044100
     10 C6          3.6220   -0.3220   -3.9070 ca        1 NXN     -0.114000
     11 C5          3.0530   -0.0370   -5.1450 ca        1 NXN     -0.092000
     12 C8          1.9370    1.0580   -2.8190 ca        1 NXN      0.010400
     13 CL4         1.2410    1.7620   -1.4250 cl        1 NXN     -0.083400
     14 C11         1.3720    1.3510   -4.0620 ca        1 NXN     -0.093000
     15 C16         1.9300    0.7970   -5.2210 ca        1 NXN      0.036400
     16 CL3         1.2400    1.1450   -6.7230 cl        1 NXN     -0.018400
     17 H1          1.8970    0.4380    0.0050 hn        1 NXN      0.469300
     18 H141        1.4680   -1.2200    2.4850 hx        1 NXN      0.119700
     19 H142        0.2380   -0.8720    1.1800 hx        1 NXN      0.119700
     20 H151        0.4500    1.6440    1.7420 h1        1 NXN      0.097200
     21 H152        1.5230    1.2010    3.1290 h1        1 NXN      0.097200
     22 H19        -0.2770    0.0770    4.4970 hs        1 NXN      0.211800
     23 H91         3.4640   -2.0480   -1.8370 h1        1 NXN      0.131700
     24 H92         4.7360   -1.4720   -0.6250 h1        1 NXN      0.131700
     25 H6          4.5170   -0.9600   -3.8380 ha        1 NXN      0.165000
     26 H5          3.4940   -0.4610   -6.0630 ha        1 NXN      0.179000
     27 H11         0.4940    2.0170   -4.1300 ha        1 NXN      0.185000
     28 H12         3.0170    0.2300    1.2290 hn        1 NXN      0.469300
@<TRIPOS>BOND
     1    1    2 2   
     2    2    3 1   
     3    2    7 1   
     4    3    4 1   
     5    3   17 1   
     6    3   28 1   
     7    4    5 1   
     8    4   18 1   
     9    4   19 1   
    10    5    6 1   
    11    5   20 1   
    12    5   21 1   
    13    6   22 1   
    14    7    8 1   
    15    7   23 1   
    16    7   24 1   
    17    8    9 1   
    18    9   10 ar  
    19    9   12 ar  
    20   10   11 ar  
    21   10   25 1   
    22   11   15 ar  
    23   11   26 1   
    24   12   13 1   
    25   12   14 ar  
    26   14   15 ar  
    27   14   27 1   
    28   15   16 1   
@<TRIPOS>SUBSTRUCTURE
     1 NXN         1 TEMP              0 ****  ****    0 ROOT
