@<TRIPOS>MOLECULE
NXN
   28    28     1     0     0
SMALL
bcc


@<TRIPOS>ATOM
      1 O17         1.7640   -2.6120    0.3690 o         1 NXN     -0.397100
      2 C12         2.3870   -1.6130    0.0480 c         1 NXN      0.506100
      3 N1          2.0970   -0.3290    0.7760 ny        1 NXN     -0.689800
      4 C14         0.9910   -0.4360    1.7730 c3        1 NXN      0.104800
      5 C15         0.7230    0.8700    2.5010 c3        1 NXN     -0.061300
      6 S19        -0.3820    0.5630    3.8280 sh        1 NXN     -0.249900
      7 C9          3.4750   -1.5480   -1.0130 c3        1 NXN      0.057400
      8 O18         3.7240   -0.2110   -1.4160 os        1 NXN     -0.331900
      9 C10         3.1970    0.1290   -2.6650 ca        1 NXN      0.044100
     10 C6          3.7390   -0.4390   -3.8240 ca        1 NXN     -0.113000
     11 C5          3.3000   -0.0090   -5.0730 ca        1 NXN     -0.092000
     12 C8          2.2150    1.1280   -2.7530 ca        1 NXN      0.011400
     13 Cl4         1.5440    1.8610   -1.3610 cl        1 NXN     -0.087400
     14 C11         1.7800    1.5650   -4.0060 ca        1 NXN     -0.094000
     15 C16         2.3220    0.9910   -5.1630 ca        1 NXN      0.036400
     16 Cl3         1.7900    1.5140   -6.6770 cl        1 NXN     -0.018400
     17 H1          1.8720    0.4000    0.0540 hn        1 NXN      0.469300
     18 H141        1.2690   -1.2420    2.5150 hx        1 NXN      0.119200
     19 H142        0.0680   -0.7780    1.2210 hx        1 NXN      0.119200
     20 H151        0.3390    1.6500    1.7990 h1        1 NXN      0.097700
     21 H152        1.6570    1.2680    2.9780 h1        1 NXN      0.097700
     22 H19        -1.5390    0.7070    3.2030 hs        1 NXN      0.209800
     23 H91         3.1800   -2.2200   -1.8650 h1        1 NXN      0.131700
     24 H92         4.4360   -1.9090   -0.5420 h1        1 NXN      0.131700
     25 H6          4.5210   -1.2100   -3.7420 ha        1 NXN      0.165000
     26 H5          3.7300   -0.4500   -5.9880 ha        1 NXN      0.179000
     27 H11         1.0190    2.3610   -4.0840 ha        1 NXN      0.184000
     28 H12         2.9590   -0.0290    1.2460 hn        1 NXN      0.469300
@<TRIPOS>BOND
     1    1    2 2   
     2    2    3 1   
     3    2    7 1   
     4    3    4 1   
     5    3   17 1   
     6    3   28 1   
     7    4    5 1   
     8    4   18 1   
     9    4   19 1   
    10    5    6 1   
    11    5   20 1   
    12    5   21 1   
    13    6   22 1   
    14    7    8 1   
    15    7   23 1   
    16    7   24 1   
    17    8    9 1   
    18    9   10 ar  
    19    9   12 ar  
    20   10   11 ar  
    21   10   25 1   
    22   11   15 ar  
    23   11   26 1   
    24   12   13 1   
    25   12   14 ar  
    26   14   15 ar  
    27   14   27 1   
    28   15   16 1   
@<TRIPOS>SUBSTRUCTURE
     1 NXN         1 TEMP              0 ****  ****    0 ROOT
