@<TRIPOS>MOLECULE
NXP
   45    47     1     0     0
SMALL
bcc


@<TRIPOS>ATOM
      1 NAB         0.2300    0.2790   -0.1260 n         1 NXP     -0.425100
      2 CAP         1.5810    0.1960   -0.1350 ca        1 NXP      0.240600
      3 CAU         2.2670   -0.3970    0.9910 ca        1 NXP     -0.221500
      4 CAT         3.6280   -0.5000    1.0240 ca        1 NXP      0.005500
      5 CAS         4.4510   -0.0370   -0.0520 ca        1 NXP     -0.287900
      6 CAR         3.7680    0.5320   -1.1760 ca        1 NXP      0.005500
      7 CAQ         2.4090    0.6520   -1.2220 ca        1 NXP     -0.221500
      8 CAV         5.8590   -0.1610   -0.0470 ce        1 NXP      0.590900
      9 CAW         6.6010    0.2800   -1.2720 c3        1 NXP     -0.221400
     10 NAC         6.4660   -0.6840    1.0640 n2        1 NXP     -0.750400
     11 NAD         7.7900   -1.0180    1.0840 n4        1 NXP     -0.353100
     12 CAX         8.7400    0.0320    1.7220 c2        1 NXP      0.572100
     13 NAF         9.8880    0.2230    1.2180 n2        1 NXP     -0.642100
     14 NAE         8.1290    0.7260    2.9180 n4        1 NXP     -0.848600
     15 OAY        -0.0990    1.6330   -1.9680 o         1 NXP     -0.536100
     16 CAO        -0.6220    0.9190   -1.1040 c         1 NXP      0.731300
     17 CAN        -2.0370    0.6800   -0.9590 cc        1 NXP     -0.265400
     18 CAM        -2.7120   -0.2690   -0.1620 cd        1 NXP     -0.029100
     19 NAA        -4.0710   -0.1550   -0.3470 na        1 NXP     -0.140400
     20 CAJ        -4.3210    0.8720   -1.2750 ca        1 NXP     -0.066200
     21 CAI        -5.5300    1.3650   -1.7890 ca        1 NXP     -0.118000
     22 CAH        -5.4560    2.4000   -2.7090 ca        1 NXP     -0.099000
     23 CAG        -4.2220    2.9400   -3.1170 ca        1 NXP     -0.118000
     24 CAL        -3.0200    2.4610   -2.6160 ca        1 NXP     -0.091000
     25 CAK        -3.0530    1.4210   -1.6860 ca        1 NXP     -0.044800
     26 HAU         1.6750   -0.7760    1.8410 ha        1 NXP      0.187500
     27 HAQ         1.9360    1.1050   -2.1150 ha        1 NXP      0.187500
     28 HAT         4.0950   -0.9680    1.9080 ha        1 NXP      0.151500
     29 HAR         4.3460    0.8890   -2.0460 ha        1 NXP      0.151500
     30 HAW1        6.2950   -0.3590   -2.1430 hc        1 NXP      0.090033
     31 HAW2        7.7140    0.2350   -1.1920 hc        1 NXP      0.090033
     32 HAW3        6.3350    1.3430   -1.5140 hc        1 NXP      0.090033
     33 HAF        10.5760    0.8640    1.5620 hn        1 NXP      0.514400
     34 HAE1        7.3760    1.3560    2.6030 hn        1 NXP      0.488133
     35 HAE2        8.8350    1.2760    3.4240 hn        1 NXP      0.488133
     36 HAM        -2.3060   -1.0280    0.5120 h4        1 NXP      0.165000
     37 HAA        -4.7660   -0.7160    0.0790 hn        1 NXP      0.321700
     38 HAI        -6.4970    0.9470   -1.4760 ha        1 NXP      0.152000
     39 HAH        -6.3860    2.8120   -3.1340 ha        1 NXP      0.154000
     40 HAG        -4.2170    3.7600   -3.8530 ha        1 NXP      0.151000
     41 HAL        -2.0540    2.8780   -2.9390 ha        1 NXP      0.158000
     42 HAD         7.8500   -1.8490    1.7060 hn        1 NXP      0.483800
     43 HAB        -0.2420   -0.1090    0.6680 hn        1 NXP      0.336500
     44 HAD2        8.2100   -1.2580    0.1610 hn        1 NXP      0.483800
     45 HAE3        7.7210    0.0370    3.5660 hn        1 NXP      0.488133
@<TRIPOS>BOND
     1    1    2 1   
     2    1   16 1   
     3    1   43 1   
     4    2    3 ar  
     5    2    7 ar  
     6    3    4 ar  
     7    3   26 1   
     8    4    5 ar  
     9    4   28 1   
    10    5    6 ar  
    11    5    8 1   
    12    6    7 ar  
    13    6   29 1   
    14    7   27 1   
    15    8    9 1   
    16    8   10 2   
    17    9   30 1   
    18    9   31 1   
    19    9   32 1   
    20   10   11 1   
    21   11   12 1   
    22   11   42 1   
    23   11   44 1   
    24   12   13 2   
    25   12   14 1   
    26   13   33 1   
    27   14   34 1   
    28   14   35 1   
    29   14   45 1   
    30   15   16 2   
    31   16   17 1   
    32   17   18 2   
    33   17   25 1   
    34   18   19 1   
    35   18   36 1   
    36   19   20 1   
    37   19   37 1   
    38   20   21 ar  
    39   20   25 ar  
    40   21   22 ar  
    41   21   38 1   
    42   22   23 ar  
    43   22   39 1   
    44   23   24 ar  
    45   23   40 1   
    46   24   25 ar  
    47   24   41 1   
@<TRIPOS>SUBSTRUCTURE
     1 NXP         1 TEMP              0 ****  ****    0 ROOT
