@<TRIPOS>MOLECULE
NXP
   46    48     1     0     0
SMALL
bcc


@<TRIPOS>ATOM
      1 NAB         0.0150   -0.6550    0.0520 n4        1 NXP     -0.591200
      2 CAP         1.4720   -0.5870    0.0140 ca        1 NXP      0.050600
      3 CAU         2.1600    0.2750    0.8870 ca        1 NXP     -0.089500
      4 CAT         3.5510    0.3640    0.8230 ca        1 NXP     -0.055500
      5 CAS         4.2680   -0.3870   -0.1170 ca        1 NXP     -0.186900
      6 CAR         3.5780   -1.2580   -0.9800 ca        1 NXP     -0.055500
      7 CAQ         2.1910   -1.3620   -0.9170 ca        1 NXP     -0.089500
      8 CAV         5.7320   -0.2640   -0.2680 ce        1 NXP      0.630900
      9 CAW         6.2310   -0.2540   -1.6770 c3        1 NXP     -0.250400
     10 NAC         6.4740   -0.2040    0.8290 n2        1 NXP     -0.628400
     11 NAD         7.8770   -0.1680    0.7550 n4        1 NXP     -0.427100
     12 CAX         8.4690    0.8690    1.7120 c2        1 NXP      0.641100
     13 NAF         9.2370    1.7490    1.2180 n2        1 NXP     -0.607100
     14 NAE         8.0270    0.6890    3.1390 n4        1 NXP     -0.844600
     15 OAY         0.0010    1.6760   -0.2050 o         1 NXP     -0.468100
     16 CAO        -0.6970    0.6890   -0.3920 c         1 NXP      0.629300
     17 CAN        -1.9980    0.5180   -0.8950 cc        1 NXP     -0.311400
     18 CAM        -2.8060   -0.6500   -1.0460 cd        1 NXP     -0.000100
     19 NAA        -4.0160   -0.3140   -1.5670 na        1 NXP     -0.081400
     20 CAJ        -4.0640    1.0810   -1.7830 ca        1 NXP     -0.083200
     21 CAI        -5.0900    1.8870   -2.2960 ca        1 NXP     -0.087000
     22 CAH        -4.8400    3.2510   -2.3870 ca        1 NXP     -0.092000
     23 CAG        -3.6120    3.8050   -1.9830 ca        1 NXP     -0.082000
     24 CAL        -2.5880    3.0130   -1.4730 ca        1 NXP     -0.107000
     25 CAK        -2.8040    1.6410   -1.3680 ca        1 NXP     -0.032800
     26 HAU         1.6110    0.9120    1.6060 ha        1 NXP      0.190000
     27 HAQ         1.6790   -2.0520   -1.6130 ha        1 NXP      0.190000
     28 HAT         4.0650    1.0620    1.5030 ha        1 NXP      0.166500
     29 HAR         4.1240   -1.8740   -1.7160 ha        1 NXP      0.166500
     30 HAW1        7.0380    0.5040   -1.8480 hc        1 NXP      0.118700
     31 HAW2        5.3990    0.0040   -2.3890 hc        1 NXP      0.118700
     32 HAW3        6.6130   -1.2710   -1.9630 hc        1 NXP      0.118700
     33 HAF         9.7160    2.4780    1.7160 hn        1 NXP      0.550400
     34 HAE1        7.0070    0.8380    3.2200 hn        1 NXP      0.502467
     35 HAE2        8.5080    1.3730    3.7480 hn        1 NXP      0.502467
     36 HAM        -2.5730   -1.6920   -0.7970 h4        1 NXP      0.173000
     37 HAA        -4.7660   -0.9390   -1.7620 hn        1 NXP      0.343700
     38 HAI        -6.0540    1.4610   -2.6130 ha        1 NXP      0.171000
     39 HAH        -5.6250    3.9180   -2.7850 ha        1 NXP      0.175000
     40 HAG        -3.4630    4.8950   -2.0730 ha        1 NXP      0.167000
     41 HAL        -1.6310    3.4530   -1.1570 ha        1 NXP      0.156000
     42 HAD         8.2310   -1.1020    1.0490 hn        1 NXP      0.493800
     43 HAB        -0.3110   -1.4130   -0.5530 hn        1 NXP      0.458300
     44 HAB2       -0.2830   -0.8500    1.0150 hn        1 NXP      0.458300
     45 HAD2        8.2640    0.0340   -0.1980 hn        1 NXP      0.493800
     46 HAE3        8.2510   -0.2590    3.4820 hn        1 NXP      0.502467
@<TRIPOS>BOND
     1    1    2 1   
     2    1   16 1   
     3    1   43 1   
     4    1   44 1   
     5    2    3 ar  
     6    2    7 ar  
     7    3    4 ar  
     8    3   26 1   
     9    4    5 ar  
    10    4   28 1   
    11    5    6 ar  
    12    5    8 1   
    13    6    7 ar  
    14    6   29 1   
    15    7   27 1   
    16    8    9 1   
    17    8   10 2   
    18    9   30 1   
    19    9   31 1   
    20    9   32 1   
    21   10   11 1   
    22   11   12 1   
    23   11   42 1   
    24   11   45 1   
    25   12   13 2   
    26   12   14 1   
    27   13   33 1   
    28   14   34 1   
    29   14   35 1   
    30   14   46 1   
    31   15   16 2   
    32   16   17 1   
    33   17   18 2   
    34   17   25 1   
    35   18   19 1   
    36   18   36 1   
    37   19   20 1   
    38   19   37 1   
    39   20   21 ar  
    40   20   25 ar  
    41   21   22 ar  
    42   21   38 1   
    43   22   23 ar  
    44   22   39 1   
    45   23   24 ar  
    46   23   40 1   
    47   24   25 ar  
    48   24   41 1   
@<TRIPOS>SUBSTRUCTURE
     1 NXP         1 TEMP              0 ****  ****    0 ROOT
