@<TRIPOS>MOLECULE
NXP
   43    36     1     0     0
SMALL
bcc


@<TRIPOS>ATOM
      1 NAB        -1.9910    0.7500   -0.4640 n         1 NXP     -0.331000
      2 CAP        -0.5490    0.8950   -0.4490 c2        1 NXP      0.096000
      3 CAU         0.1330    0.8730    0.7660 c2        1 NXP     -0.157000
      4 CAT         1.5260    0.7860    0.7840 c1        1 NXP     -0.087000
      5 CAS         2.2380    0.7210   -0.4140 c1        1 NXP     -0.128000
      6 CAR         1.5650    0.7420   -1.6250 c1        1 NXP     -0.078000
      7 CAQ         0.1670    0.8300   -1.6470 c1        1 NXP     -0.194000
      8 CAV         3.7750    0.5040   -0.3870 c2        1 NXP     -0.046000
      9 CAW         4.3390   -0.8200   -0.6980 c3        1 NXP     -0.164000
     10 NAC         4.5860    1.5150   -0.0790 n1        1 NXP     -0.089000
     11 NAD         4.0600    2.7670    0.2160 n2        1 NXP     -0.213000
     12 CAX         4.7570    3.9570   -0.2130 c2        1 NXP      0.176000
     13 NAF         5.1450    4.0770   -1.4670 n1        1 NXP     -0.330000
     14 NAE         5.0790    4.9860    0.7410 n3        1 NXP     -0.351000
     15 OAY        -1.8710   -1.4940    0.1020 o         1 NXP     -0.348000
     16 CAO        -2.5880   -0.5240   -0.1660 c2        1 NXP      0.392000
     17 CAN        -4.0860   -0.6950   -0.2570 c2        1 NXP     -0.207000
     18 CAM        -4.2430   -1.1990   -1.5400 c1        1 NXP     -0.034000
     19 NAA        -4.4110   -2.5510   -1.4450 n2        1 NXP     -0.202000
     20 CAJ        -4.3590   -2.8990   -0.0970 c1        1 NXP     -0.013000
     21 CAI        -4.4370   -4.1500    0.5640 c1        1 NXP     -0.118250
     22 CAH        -4.3110   -4.2140    1.9460 c1        1 NXP     -0.118250
     23 CAG        -4.1080   -3.0490    2.6810 c1        1 NXP     -0.118250
     24 CAL        -4.0310   -1.8190    2.0300 c1        1 NXP     -0.118250
     25 CAK        -4.1590   -1.7520    0.6280 c1        1 NXP     -0.043000
     26 HAU        -0.3700    0.9190    1.6180 ha        1 NXP      0.177000
     27 HAQ        -0.3080    0.8460   -2.5010 ha        1 NXP      0.129000
     28 HAT         2.0000    0.7710    1.6280 ha        1 NXP      0.148000
     29 HAR         2.0760    0.6950   -2.4810 ha        1 NXP      0.135000
     30 HAW1        4.8920   -1.1180    0.0460 hc        1 NXP      0.091667
     31 HAW2        4.8830   -0.7600   -1.5020 hc        1 NXP      0.091667
     32 HAW3        3.6200   -1.4510   -0.8400 hc        1 NXP      0.091667
     33 HAF         5.5840    4.8260   -1.7380 DU        1 NXP      0.193333
     34 HAE1        5.7990    5.5510    0.5890 hn        1 NXP      0.192500
     35 HAE2        4.5820    5.0750    1.5050 hn        1 NXP      0.192500
     36 HAM        -4.3020   -0.6610   -2.3730 DU        1 NXP      0.193333
     37 HAA        -4.5350   -3.1320   -2.1500 DU        1 NXP      0.193333
     38 HAI        -4.5820   -4.9690    0.0460 ha        1 NXP      0.141500
     39 HAH        -4.3660   -5.0890    2.4090 ha        1 NXP      0.141500
     40 HAG        -4.0170   -3.0940    3.6550 ha        1 NXP      0.141500
     41 HAL        -3.8870   -0.9930    2.5520 ha        1 NXP      0.141500
     42 HAD         3.2500    2.8360    0.6070 hn        1 NXP      0.204000
     43 HAB        -2.5400    1.5120   -0.5800 hn        1 NXP      0.225000
@<TRIPOS>BOND
     1    1    2 1   
     2    1   16 1   
     3    1   43 1   
     4    2    3 1   
     5    2    7 1   
     6    3    4 1   
     7    3   26 1   
     8    4   28 1   
     9    5    6 1   
    10    5    8 1   
    11    6   29 1   
    12    7   27 1   
    13    8    9 1   
    14    8   10 1   
    15    9   30 1   
    16    9   31 1   
    17    9   32 1   
    18   11   12 1   
    19   11   42 1   
    20   12   13 1   
    21   12   14 1   
    22   14   34 1   
    23   14   35 1   
    24   15   16 1   
    25   16   17 1   
    26   17   18 1   
    27   17   25 1   
    28   18   19 1   
    29   19   20 1   
    30   20   25 1   
    31   21   22 1   
    32   21   38 1   
    33   22   39 1   
    34   23   24 1   
    35   23   40 1   
    36   24   41 1   
@<TRIPOS>SUBSTRUCTURE
     1 NXP         1 TEMP              0 ****  ****    0 ROOT
