@<TRIPOS>MOLECULE
NXP
   45    47     1     0     0
SMALL
bcc


@<TRIPOS>ATOM
      1 NAB         0.2310    0.2600   -0.1490 ns        1 NXP     -0.425100
      2 CAP         1.5830    0.1870   -0.1480 ca        1 NXP      0.240600
      3 CAU         2.2630   -0.4290    0.9670 ca        1 NXP     -0.221500
      4 CAT         3.6250   -0.5230    1.0100 ca        1 NXP      0.005500
      5 CAS         4.4540   -0.0270   -0.0470 ca        1 NXP     -0.287900
      6 CAR         3.7750    0.5660   -1.1620 ca        1 NXP      0.005500
      7 CAQ         2.4160    0.6760   -1.2170 ca        1 NXP     -0.221500
      8 CAV         5.8620   -0.1390   -0.0330 ce        1 NXP      0.590900
      9 CAW         6.6110    0.3380   -1.2400 c3        1 NXP     -0.221400
     10 NAC         6.4640   -0.6860    1.0690 n2        1 NXP     -0.750400
     11 NAD         7.7900   -1.0090    1.0930 ny        1 NXP     -0.353100
     12 CAX         8.7260    0.0320    1.7660 c2        1 NXP      0.572100
     13 NAF         9.8770    0.2450    1.2780 n2        1 NXP     -0.642100
     14 NAE         8.0990    0.6900    2.9740 nz        1 NXP     -0.848600
     15 OAY        -0.0930    1.6590   -1.9580 o         1 NXP     -0.536100
     16 CAO        -0.6180    0.9190   -1.1170 c         1 NXP      0.731300
     17 CAN        -2.0320    0.6650   -0.9910 cc        1 NXP     -0.265400
     18 CAM        -2.7070   -0.3090   -0.2250 cd        1 NXP     -0.029100
     19 NAA        -4.0640   -0.2010   -0.4180 na        1 NXP     -0.140400
     20 CAJ        -4.3150    0.8480   -1.3220 ca        1 NXP     -0.066200
     21 CAI        -5.5230    1.3450   -1.8330 ca        1 NXP     -0.118000
     22 CAH        -5.4500    2.4050   -2.7250 ca        1 NXP     -0.099000
     23 CAG        -4.2160    2.9640   -3.1080 ca        1 NXP     -0.118000
     24 CAL        -3.0150    2.4820   -2.6100 ca        1 NXP     -0.091000
     25 CAK        -3.0480    1.4170   -1.7070 ca        1 NXP     -0.044800
     26 HAU         1.6670   -0.8340    1.8030 ha        1 NXP      0.187500
     27 HAQ         1.9470    1.1490   -2.1020 ha        1 NXP      0.187500
     28 HAT         4.0880   -1.0090    1.8850 ha        1 NXP      0.151500
     29 HAR         4.3580    0.9490   -2.0180 ha        1 NXP      0.151500
     30 HAW1        6.3170   -0.2810   -2.1300 hc        1 NXP      0.090033
     31 HAW2        6.3380    1.4050   -1.4570 hc        1 NXP      0.090033
     32 HAW3        7.7230    0.3000   -1.1510 hc        1 NXP      0.090033
     33 HAF        10.5560    0.8830    1.6440 hn        1 NXP      0.514400
     34 HAE1        8.7960    1.2330    3.5000 hn        1 NXP      0.488133
     35 HAE2        7.6910   -0.0190    3.6000 hn        1 NXP      0.488133
     36 HAM        -2.3000   -1.0830    0.4330 h4        1 NXP      0.165000
     37 HAA        -4.7590   -0.7780   -0.0130 hn        1 NXP      0.321700
     38 HAI        -6.4890    0.9120   -1.5380 ha        1 NXP      0.152000
     39 HAH        -6.3790    2.8200   -3.1470 ha        1 NXP      0.154000
     40 HAG        -4.2120    3.8030   -3.8230 ha        1 NXP      0.151000
     41 HAL        -2.0490    2.9140   -2.9130 ha        1 NXP      0.158000
     42 HAD         7.8520   -1.8550    1.6950 hn        1 NXP      0.483800
     43 HAB        -0.2450   -0.1520    0.6310 hn        1 NXP      0.336500
     44 HAD2        8.2200   -1.2220    0.1680 hn        1 NXP      0.483800
     45 HAE3        7.3430    1.3220    2.6680 hn        1 NXP      0.488133
@<TRIPOS>BOND
     1    1    2 1   
     2    1   16 1   
     3    1   43 1   
     4    2    3 ar  
     5    2    7 ar  
     6    3    4 ar  
     7    3   26 1   
     8    4    5 ar  
     9    4   28 1   
    10    5    6 ar  
    11    5    8 1   
    12    6    7 ar  
    13    6   29 1   
    14    7   27 1   
    15    8    9 1   
    16    8   10 2   
    17    9   30 1   
    18    9   31 1   
    19    9   32 1   
    20   10   11 1   
    21   11   12 1   
    22   11   42 1   
    23   11   44 1   
    24   12   13 2   
    25   12   14 1   
    26   13   33 1   
    27   14   34 1   
    28   14   35 1   
    29   14   45 1   
    30   15   16 2   
    31   16   17 1   
    32   17   18 2   
    33   17   25 1   
    34   18   19 1   
    35   18   36 1   
    36   19   20 1   
    37   19   37 1   
    38   20   21 ar  
    39   20   25 ar  
    40   21   22 ar  
    41   21   38 1   
    42   22   23 ar  
    43   22   39 1   
    44   23   24 ar  
    45   23   40 1   
    46   24   25 ar  
    47   24   41 1   
@<TRIPOS>SUBSTRUCTURE
     1 NXP         1 TEMP              0 ****  ****    0 ROOT
