@<TRIPOS>MOLECULE
NXP
   43    45     1     0     0
SMALL
bcc


@<TRIPOS>ATOM
      1 NAB         1.1700   -0.5810    0.3420 n         1 NXP     -0.475100
      2 CAP        -0.1750   -0.1950    0.4280 ca        1 NXP      0.085600
      3 CAU        -1.1710   -1.2000    0.3320 ca        1 NXP     -0.178500
      4 CAT        -2.5170   -0.8750    0.4350 ca        1 NXP     -0.079500
      5 CAS        -2.9170    0.4500    0.6420 ca        1 NXP     -0.152900
      6 CAR        -1.9400    1.4480    0.7310 ca        1 NXP     -0.079500
      7 CAQ        -0.5880    1.1410    0.6280 ca        1 NXP     -0.178500
      8 CAV        -4.3430    0.8050    0.7730 ce        1 NXP      0.402900
      9 CAW        -4.6750    1.7210    1.9110 c3        1 NXP     -0.172400
     10 NAC        -5.1890    0.3140   -0.1020 n2        1 NXP     -0.465400
     11 NAD        -6.4800    0.6740   -0.1170 nh        1 NXP     -0.482300
     12 CAX        -7.3710   -0.2770   -0.8020 c2        1 NXP      0.770100
     13 NAF        -8.3980   -0.7280   -0.1330 n2        1 NXP     -0.867100
     14 NAE        -7.0980   -0.5030   -2.1820 nh        1 NXP     -0.912800
     15 OAY         2.1880    1.4920    0.1840 o         1 NXP     -0.590100
     16 CAO         2.2850    0.2510    0.2190 c         1 NXP      0.717300
     17 CAN         3.5830   -0.4280    0.1360 cc        1 NXP     -0.213400
     18 CAM         3.9090   -1.7400    0.4990 cd        1 NXP     -0.062100
     19 NAA         5.2570   -1.9780    0.2640 na        1 NXP     -0.180400
     20 CAJ         5.8340   -0.8090   -0.2510 ca        1 NXP     -0.058200
     21 CAI         7.1520   -0.5310   -0.6450 ca        1 NXP     -0.143000
     22 CAH         7.4230    0.7420   -1.1220 ca        1 NXP     -0.109000
     23 CAG         6.4220    1.7280   -1.2100 ca        1 NXP     -0.150000
     24 CAL         5.1150    1.4680   -0.8250 ca        1 NXP     -0.071000
     25 CAK         4.8010    0.1950   -0.3430 ca        1 NXP     -0.054800
     26 HAU        -0.8890   -2.2510    0.1720 ha        1 NXP      0.151500
     27 HAQ         0.1530    1.9540    0.6980 ha        1 NXP      0.151500
     28 HAT        -3.2720   -1.6720    0.3530 ha        1 NXP      0.139000
     29 HAR        -2.2420    2.4960    0.8800 ha        1 NXP      0.139000
     30 HAW1       -4.9920    2.7210    1.5220 hc        1 NXP      0.055367
     31 HAW2       -5.5060    1.3010    2.5310 hc        1 NXP      0.055367
     32 HAW3       -3.7870    1.8640    2.5740 hc        1 NXP      0.055367
     33 HAF        -9.0500   -1.2750   -0.6500 hn        1 NXP      0.403400
     34 HAE1       -6.2610   -0.0850   -2.5270 hn        1 NXP      0.399300
     35 HAE2       -7.1760   -1.4630   -2.4410 hn        1 NXP      0.399300
     36 HAM         3.2770   -2.5240    0.9240 h4        1 NXP      0.166000
     37 HAA         5.7420   -2.8110    0.4670 hn        1 NXP      0.304700
     38 HAI         7.9390   -1.2940   -0.5770 ha        1 NXP      0.134000
     39 HAH         8.4470    0.9920   -1.4390 ha        1 NXP      0.132000
     40 HAG         6.6890    2.7240   -1.5920 ha        1 NXP      0.135000
     41 HAL         4.3270    2.2350   -0.8820 ha        1 NXP      0.164000
     42 HAD        -6.8770    0.9750    0.7660 hn        1 NXP      0.401800
     43 HAB         1.3250   -1.5600    0.2470 hn        1 NXP      0.310500
@<TRIPOS>BOND
     1    1    2 1   
     2    1   16 1   
     3    1   43 1   
     4    2    3 ar  
     5    2    7 ar  
     6    3    4 ar  
     7    3   26 1   
     8    4    5 ar  
     9    4   28 1   
    10    5    6 ar  
    11    5    8 1   
    12    6    7 ar  
    13    6   29 1   
    14    7   27 1   
    15    8    9 1   
    16    8   10 2   
    17    9   30 1   
    18    9   31 1   
    19    9   32 1   
    20   10   11 1   
    21   11   12 1   
    22   11   42 1   
    23   12   13 2   
    24   12   14 1   
    25   13   33 1   
    26   14   34 1   
    27   14   35 1   
    28   15   16 2   
    29   16   17 1   
    30   17   18 2   
    31   17   25 1   
    32   18   19 1   
    33   18   36 1   
    34   19   20 1   
    35   19   37 1   
    36   20   21 ar  
    37   20   25 ar  
    38   21   22 ar  
    39   21   38 1   
    40   22   23 ar  
    41   22   39 1   
    42   23   24 ar  
    43   23   40 1   
    44   24   25 ar  
    45   24   41 1   
@<TRIPOS>SUBSTRUCTURE
     1 NXP         1 TEMP              0 ****  ****    0 ROOT
