@<TRIPOS>MOLECULE
NXU
   48    50     1     0     0
SMALL
bcc


@<TRIPOS>ATOM
      1 O2          0.0970    1.1060    0.6990 o         1 NXU     -0.617100
      2 C11         1.2980    0.7660    0.6920 c         1 NXU      0.680700
      3 N1          2.1110    0.9180    1.8140 n         1 NXU     -0.527900
      4 C12         1.5320    0.8390    3.1450 c3        1 NXU      0.059700
      5 C13         2.4920    0.2300    4.2140 c3        1 NXU      0.288600
      6 S1          1.4560   -0.7170    5.4070 ss        1 NXU     -0.518200
      7 C15         2.1360   -2.3480    4.8970 c3        1 NXU      0.088100
      8 C19         0.9890   -3.2820    4.6080 c3        1 NXU     -0.075100
      9 C20         3.0050   -2.8720    6.0090 c3        1 NXU     -0.075100
     10 C16         2.9270   -2.0190    3.6070 c3        1 NXU      0.019500
     11 C21         4.0350   -3.0520    3.2150 c         1 NXU      0.937600
     12 O5          3.9160   -3.5780    2.0690 o         1 NXU     -0.826800
     13 O4          4.9790   -3.2700    4.0130 o         1 NXU     -0.826800
     14 N2          3.4840   -0.6750    3.6810 n3        1 NXU     -0.788200
     15 C14         1.0580    2.2190    3.6490 c3        1 NXU      0.121400
     16 O3          2.1050    3.1520    3.8280 oh        1 NXU     -0.613800
     17 C1          1.9890    0.2500   -0.5290 ca        1 NXU     -0.210600
     18 C2          2.5810   -1.0130   -0.4840 ca        1 NXU      0.197100
     19 C3          3.3200   -1.5100   -1.5980 ca        1 NXU     -0.194000
     20 O1          2.3820   -1.7580    0.6340 oh        1 NXU     -0.515100
     21 C9          2.0650    1.0220   -1.7190 ca        1 NXU      0.037000
     22 C8          1.4350    2.2940   -1.8370 ca        1 NXU     -0.120000
     23 C7          1.5400    3.0240   -2.9940 ca        1 NXU     -0.129000
     24 C6          2.2770    2.5240   -4.0950 ca        1 NXU     -0.153000
     25 C5          2.8880    1.2970   -4.0130 ca        1 NXU     -0.108000
     26 C10         2.7950    0.5180   -2.8280 ca        1 NXU     -0.085000
     27 C4          3.4230   -0.7550   -2.7350 ca        1 NXU     -0.078000
     28 H1          3.0120    0.4890    1.7300 hn        1 NXU      0.324500
     29 H2          0.6060    0.1840    3.1020 h1        1 NXU      0.084700
     30 H3          2.9740    1.0720    4.7780 h2        1 NXU      0.087700
     31 H4          1.3840   -4.2260    4.1550 hc        1 NXU      0.042700
     32 H5          0.4430   -3.5370    5.5480 hc        1 NXU      0.042700
     33 H6          0.2700   -2.8180    3.8910 hc        1 NXU      0.042700
     34 H7          2.4200   -2.9650    6.9560 hc        1 NXU      0.042700
     35 H8          3.4150   -3.8740    5.7240 hc        1 NXU      0.042700
     36 H9          3.8760   -2.1940    6.1790 hc        1 NXU      0.042700
     37 H10         2.1710   -2.0150    2.7640 h1        1 NXU      0.078700
     38 H12         4.3210   -0.6750    4.2370 hn        1 NXU      0.386800
     39 H14         0.6060    2.0990    4.6700 h1        1 NXU      0.055700
     40 H15         0.2930    2.6320    2.9370 h1        1 NXU      0.055700
     41 H16         2.5830    3.2130    2.9920 ho        1 NXU      0.406000
     42 H17         3.8000   -2.4970   -1.5110 ha        1 NXU      0.153000
     43 H18         3.0610   -2.4690    0.7180 ho        1 NXU      0.500000
     44 H19         0.8480    2.6670   -0.9810 ha        1 NXU      0.156000
     45 H20         1.0500    4.0040   -3.0820 ha        1 NXU      0.123000
     46 H21         2.3480    3.1270   -5.0110 ha        1 NXU      0.120000
     47 H22         3.4590    0.8950   -4.8620 ha        1 NXU      0.121000
     48 H23         3.9950   -1.1230   -3.6000 ha        1 NXU      0.126000
@<TRIPOS>BOND
     1    1    2 2   
     2    2    3 1   
     3    2   17 1   
     4    3    4 1   
     5    3   28 1   
     6    4    5 1   
     7    4   15 1   
     8    4   29 1   
     9    5    6 1   
    10    5   14 1   
    11    5   30 1   
    12    6    7 1   
    13    7    8 1   
    14    7    9 1   
    15    7   10 1   
    16    8   31 1   
    17    8   32 1   
    18    8   33 1   
    19    9   34 1   
    20    9   35 1   
    21    9   36 1   
    22   10   11 1   
    23   10   14 1   
    24   10   37 1   
    25   11   12 1   
    26   11   13 1   
    27   14   38 1   
    28   15   16 1   
    29   15   39 1   
    30   15   40 1   
    31   16   41 1   
    32   17   18 ar  
    33   17   21 ar  
    34   18   19 ar  
    35   18   20 1   
    36   19   27 ar  
    37   19   42 1   
    38   20   43 1   
    39   21   22 ar  
    40   21   26 ar  
    41   22   23 ar  
    42   22   44 1   
    43   23   24 ar  
    44   23   45 1   
    45   24   25 ar  
    46   24   46 1   
    47   25   26 ar  
    48   25   47 1   
    49   26   27 ar  
    50   27   48 1   
@<TRIPOS>SUBSTRUCTURE
     1 NXU         1 TEMP              0 ****  ****    0 ROOT
