@<TRIPOS>MOLECULE
NXU
   49    51     1     0     0
SMALL
bcc


@<TRIPOS>ATOM
      1 O2          0.0290    1.1010    0.2700 o         1 NXU     -0.469100
      2 C11         1.1950    0.7260    0.2910 c         1 NXU      0.614700
      3 N1          1.8800    0.6380    1.6260 n4        1 NXU     -0.692800
      4 C12         0.9910    0.6000    2.8520 c3        1 NXU      0.138500
      5 C13         1.5320   -0.5640    3.6870 c3        1 NXU      0.194600
      6 S1          1.3500   -0.7730    5.4830 ss        1 NXU     -0.479200
      7 C15         2.1960   -2.4490    5.2810 c3        1 NXU      0.107100
      8 C19         3.6100   -2.3390    5.7740 c3        1 NXU     -0.092100
      9 C20         1.3880   -3.4260    6.0920 c3        1 NXU     -0.092100
     10 C16         2.1270   -2.7830    3.7520 c3        1 NXU      0.021500
     11 C21         3.5150   -2.6920    3.0180 c         1 NXU      0.935600
     12 O5          4.2820   -3.6720    3.1200 o         1 NXU     -0.827800
     13 O4          3.7840   -1.6590    2.3080 o         1 NXU     -0.827800
     14 N2          1.1940   -1.8570    3.1090 n3        1 NXU     -0.764200
     15 C14         1.0360    1.9210    3.6390 c3        1 NXU      0.107400
     16 O3          2.3580    2.3880    3.7900 oh        1 NXU     -0.606800
     17 C1          2.0790    0.3750   -0.8300 ca        1 NXU     -0.267600
     18 C2          2.7790   -0.8360   -0.8160 ca        1 NXU      0.236100
     19 C3          3.7180   -1.1470   -1.8400 ca        1 NXU     -0.201000
     20 O1          2.4700   -1.7250    0.1650 oh        1 NXU     -0.509100
     21 C9          2.2290    1.2710   -1.9330 ca        1 NXU      0.041000
     22 C8          1.4970    2.4830   -2.0410 ca        1 NXU     -0.153000
     23 C7          1.6880    3.3260   -3.1110 ca        1 NXU     -0.089000
     24 C6          2.6190    3.0020   -4.1220 ca        1 NXU     -0.138000
     25 C5          3.3380    1.8330   -4.0450 ca        1 NXU     -0.092000
     26 C10         3.1590    0.9430   -2.9540 ca        1 NXU     -0.081000
     27 C4          3.9000   -0.2710   -2.8760 ca        1 NXU     -0.029000
     28 H1          2.4840   -0.2400    1.6250 hn        1 NXU      0.499800
     29 H2         -0.0710    0.4190    2.5120 hx        1 NXU      0.121700
     30 H3          2.6750   -0.4510    3.6540 h2        1 NXU      0.134700
     31 H4          4.1510   -3.3000    5.5680 hc        1 NXU      0.053533
     32 H5          4.1530   -1.5240    5.2340 hc        1 NXU      0.053533
     33 H6          3.6340   -2.1300    6.8700 hc        1 NXU      0.053533
     34 H7          1.3430   -3.1080    7.1620 hc        1 NXU      0.053533
     35 H8          1.8640   -4.4380    6.0450 hc        1 NXU      0.053533
     36 H9          0.3460   -3.5030    5.6990 hc        1 NXU      0.053533
     37 H10         1.7640   -3.8400    3.6260 h1        1 NXU      0.091700
     38 H12         0.2380   -2.0980    3.3070 hn        1 NXU      0.363800
     39 H14         0.5030    2.7320    3.0740 h1        1 NXU      0.083700
     40 H15         0.5370    1.7520    4.6310 h1        1 NXU      0.083700
     41 H16         2.7710    1.8800    4.5040 ho        1 NXU      0.432000
     42 H17         4.2780   -2.0920   -1.7720 ha        1 NXU      0.166000
     43 H18         3.2720   -2.2200    0.4570 ho        1 NXU      0.506000
     44 H19         0.7540    2.7340   -1.2670 ha        1 NXU      0.142000
     45 H20         1.1120    4.2610   -3.1900 ha        1 NXU      0.141000
     46 H21         2.7570    3.6920   -4.9680 ha        1 NXU      0.142000
     47 H22         4.0640    1.5660   -4.8290 ha        1 NXU      0.140000
     48 H23         4.6250   -0.4960   -3.6760 ha        1 NXU      0.148000
     49 H121        2.5140    1.4420    1.7160 hn        1 NXU      0.499800
@<TRIPOS>BOND
     1    1    2 2   
     2    2    3 1   
     3    2   17 1   
     4    3    4 1   
     5    3   28 1   
     6    3   49 1   
     7    4    5 1   
     8    4   15 1   
     9    4   29 1   
    10    5    6 1   
    11    5   14 1   
    12    5   30 1   
    13    6    7 1   
    14    7    8 1   
    15    7    9 1   
    16    7   10 1   
    17    8   31 1   
    18    8   32 1   
    19    8   33 1   
    20    9   34 1   
    21    9   35 1   
    22    9   36 1   
    23   10   11 1   
    24   10   14 1   
    25   10   37 1   
    26   11   12 1   
    27   11   13 1   
    28   14   38 1   
    29   15   16 1   
    30   15   39 1   
    31   15   40 1   
    32   16   41 1   
    33   17   18 ar  
    34   17   21 ar  
    35   18   19 ar  
    36   18   20 1   
    37   19   27 ar  
    38   19   42 1   
    39   20   43 1   
    40   21   22 ar  
    41   21   26 ar  
    42   22   23 ar  
    43   22   44 1   
    44   23   24 ar  
    45   23   45 1   
    46   24   25 ar  
    47   24   46 1   
    48   25   26 ar  
    49   25   47 1   
    50   26   27 ar  
    51   27   48 1   
@<TRIPOS>SUBSTRUCTURE
     1 NXU         1 TEMP              0 ****  ****    0 ROOT
