@<TRIPOS>MOLECULE
NXU
   49    51     1     0     0
SMALL
bcc


@<TRIPOS>ATOM
      1 O2          0.0050    1.0200    0.2480 o         1 NXU     -0.469100
      2 C11         1.1810    0.6770    0.2840 c         1 NXU      0.614700
      3 N1          1.8520    0.6150    1.6270 ny        1 NXU     -0.692800
      4 C12         0.9510    0.5570    2.8430 c3        1 NXU      0.138500
      5 C13         1.5140   -0.5870    3.6900 c3        1 NXU      0.194600
      6 S1          1.3180   -0.7930    5.4850 ss        1 NXU     -0.479200
      7 C15         2.2110   -2.4450    5.3010 c3        1 NXU      0.107100
      8 C19         3.6160   -2.2940    5.8090 c3        1 NXU     -0.092100
      9 C20         1.4220   -3.4410    6.1070 c3        1 NXU     -0.092100
     10 C16         2.1690   -2.7880    3.7720 c3        1 NXU      0.021500
     11 C21         3.5620   -2.6630    3.0540 c         1 NXU      0.935600
     12 O5          4.3550   -3.6210    3.1690 o         1 NXU     -0.827800
     13 O4          3.8110   -1.6260    2.3420 o         1 NXU     -0.827800
     14 N2          1.2180   -1.8920    3.1140 n7        1 NXU     -0.764200
     15 C14         0.9510    1.8830    3.6250 c3        1 NXU      0.107400
     16 O3          2.2580    2.3870    3.7880 oh        1 NXU     -0.606800
     17 C1          2.0870    0.3460   -0.8250 ca        1 NXU     -0.267600
     18 C2          2.8190   -0.8450   -0.7970 ca        1 NXU      0.236100
     19 C3          3.7780   -1.1340   -1.8090 ca        1 NXU     -0.201000
     20 O1          2.5240   -1.7380    0.1840 oh        1 NXU     -0.509100
     21 C9          2.2240    1.2410   -1.9300 ca        1 NXU      0.041000
     22 C8          1.4600    2.4310   -2.0520 ca        1 NXU     -0.153000
     23 C7          1.6400    3.2750   -3.1240 ca        1 NXU     -0.089000
     24 C6          2.5910    2.9720   -4.1240 ca        1 NXU     -0.138000
     25 C5          3.3410    1.8240   -4.0330 ca        1 NXU     -0.092000
     26 C10         3.1740    0.9350   -2.9390 ca        1 NXU     -0.081000
     27 C4          3.9480   -0.2590   -2.8470 ca        1 NXU     -0.029000
     28 H1          2.4630    1.4360    1.7210 hn        1 NXU      0.499800
     29 H2         -0.1020    0.3460    2.4920 hx        1 NXU      0.121700
     30 H3          2.6540   -0.4420    3.6690 h2        1 NXU      0.134700
     31 H4          3.6220   -2.0800    6.9040 hc        1 NXU      0.053533
     32 H5          4.1850   -3.2410    5.6140 hc        1 NXU      0.053533
     33 H6          4.1430   -1.4680    5.2710 hc        1 NXU      0.053533
     34 H7          1.9250   -4.4390    6.0700 hc        1 NXU      0.053533
     35 H8          1.3560   -3.1190    7.1750 hc        1 NXU      0.053533
     36 H9          0.3860   -3.5480    5.7030 hc        1 NXU      0.053533
     37 H10         1.8370   -3.8560    3.6470 h1        1 NXU      0.091700
     38 H12         0.2670   -2.1570    3.3030 hn        1 NXU      0.363800
     39 H14         0.4460    1.7050    4.6120 h1        1 NXU      0.083700
     40 H15         0.4020    2.6770    3.0500 h1        1 NXU      0.083700
     41 H16         2.6770    1.8940    4.5090 ho        1 NXU      0.432000
     42 H17         4.3630   -2.0640   -1.7300 ha        1 NXU      0.166000
     43 H18         3.3360   -2.2090    0.4880 ho        1 NXU      0.506000
     44 H19         0.7020    2.6650   -1.2880 ha        1 NXU      0.142000
     45 H20         1.0400    4.1930   -3.2150 ha        1 NXU      0.141000
     46 H21         2.7200    3.6620   -4.9710 ha        1 NXU      0.142000
     47 H22         4.0830    1.5740   -4.8070 ha        1 NXU      0.140000
     48 H23         4.6870   -0.4670   -3.6380 ha        1 NXU      0.148000
     49 H121        2.4800   -0.2460    1.6370 hn        1 NXU      0.499800
@<TRIPOS>BOND
     1    1    2 2   
     2    2    3 1   
     3    2   17 1   
     4    3    4 1   
     5    3   28 1   
     6    3   49 1   
     7    4    5 1   
     8    4   15 1   
     9    4   29 1   
    10    5    6 1   
    11    5   14 1   
    12    5   30 1   
    13    6    7 1   
    14    7    8 1   
    15    7    9 1   
    16    7   10 1   
    17    8   31 1   
    18    8   32 1   
    19    8   33 1   
    20    9   34 1   
    21    9   35 1   
    22    9   36 1   
    23   10   11 1   
    24   10   14 1   
    25   10   37 1   
    26   11   12 1   
    27   11   13 1   
    28   14   38 1   
    29   15   16 1   
    30   15   39 1   
    31   15   40 1   
    32   16   41 1   
    33   17   18 ar  
    34   17   21 ar  
    35   18   19 ar  
    36   18   20 1   
    37   19   27 ar  
    38   19   42 1   
    39   20   43 1   
    40   21   22 ar  
    41   21   26 ar  
    42   22   23 ar  
    43   22   44 1   
    44   23   24 ar  
    45   23   45 1   
    46   24   25 ar  
    47   24   46 1   
    48   25   26 ar  
    49   25   47 1   
    50   26   27 ar  
    51   27   48 1   
@<TRIPOS>SUBSTRUCTURE
     1 NXU         1 TEMP              0 ****  ****    0 ROOT
