@<TRIPOS>MOLECULE
NXV
   37    39     1     0     0
SMALL
bcc


@<TRIPOS>ATOM
      1 C1          0.4790    0.1760   -0.0640 ca        1 NXV      0.021000
      2 C2          1.8490    0.3810    0.1640 ca        1 NXV     -0.169000
      3 C3          2.3240    0.4920    1.4720 ca        1 NXV     -0.068000
      4 C4          1.4440    0.3980    2.5390 ca        1 NXV     -0.173600
      5 C5          0.0550    0.1900    2.3280 ca        1 NXV      0.183500
      6 C6         -0.4130    0.0820    1.0160 ca        1 NXV     -0.144000
      7 C7         -0.0070    0.0630   -1.3820 cg        1 NXV     -0.062000
      8 C8         -0.4240   -0.0350   -2.5020 c1        1 NXV     -0.192100
      9 C9         -0.9080   -0.1470   -3.8420 c3        1 NXV      0.014700
     10 S10        -0.7940    0.1120    3.7760 s4        1 NXV     -0.490000
     11 C11        -2.5080   -0.1370    3.1970 c3        1 NXV      0.011200
     12 C12        -3.3930   -0.2200    4.3600 ca        1 NXV      0.036700
     13 C13        -3.8810    0.9470    4.9740 ca        1 NXV     -0.144000
     14 C14        -4.7290    0.8740    6.0720 ca        1 NXV     -0.110000
     15 C15        -5.1160   -0.3700    6.5810 ca        1 NXV     -0.019600
     16 C16        -4.6310   -1.5400    5.9830 ca        1 NXV      0.035400
     17 C17        -3.7760   -1.4650    4.8830 ca        1 NXV     -0.145000
     18 Cl18       -5.0760   -3.0750    6.5770 cl        1 NXV     -0.110400
     19 Cl19       -6.1680   -0.4290    7.9200 cl        1 NXV     -0.114400
     20 C20         1.8320    0.5010    3.9790 c         1 NXV      0.735200
     21 O21         0.8260    0.3790    4.8020 os        1 NXV     -0.368900
     22 O22         2.9980    0.6870    4.3850 o         1 NXV     -0.738500
     23 C23        -2.3520   -0.6380   -3.8690 c3        1 NXV      0.131400
     24 O24        -2.7330   -0.7160   -5.2360 oh        1 NXV     -0.610800
     25 H2          2.5420    0.4540   -0.6850 ha        1 NXV      0.119000
     26 H3          3.3940    0.6530    1.6730 ha        1 NXV      0.143000
     27 H6         -1.4830   -0.0790    0.8210 ha        1 NXV      0.129000
     28 H9         -0.2660   -0.8620   -4.4280 hc        1 NXV      0.061700
     29 H9A        -0.8510    0.8510   -4.3610 hc        1 NXV      0.061700
     30 H11        -2.5510   -1.0700    2.5880 h1        1 NXV      0.047200
     31 H11A       -2.7880    0.7230    2.5450 h1        1 NXV      0.047200
     32 H13        -3.5730    1.9280    4.5840 ha        1 NXV      0.142000
     33 H14        -5.0970    1.7960    6.5460 ha        1 NXV      0.135000
     34 H17        -3.3880   -2.3870    4.4230 ha        1 NXV      0.149000
     35 H23        -3.0230    0.0790   -3.3250 h1        1 NXV      0.030700
     36 H23A       -2.4330   -1.6510   -3.3910 h1        1 NXV      0.030700
     37 HO24       -3.6460   -1.0240   -5.2450 ho        1 NXV      0.396000
@<TRIPOS>BOND
     1    1    2 ar  
     2    1    6 ar  
     3    1    7 1   
     4    2    3 ar  
     5    2   25 1   
     6    3    4 ar  
     7    3   26 1   
     8    4    5 ar  
     9    4   20 1   
    10    5    6 ar  
    11    5   10 1   
    12    6   27 1   
    13    7    8 3   
    14    8    9 1   
    15    9   23 1   
    16    9   28 1   
    17    9   29 1   
    18   10   11 1   
    19   10   21 1   
    20   11   12 1   
    21   11   30 1   
    22   11   31 1   
    23   12   13 ar  
    24   12   17 ar  
    25   13   14 ar  
    26   13   32 1   
    27   14   15 ar  
    28   14   33 1   
    29   15   16 ar  
    30   15   19 1   
    31   16   17 ar  
    32   16   18 1   
    33   17   34 1   
    34   20   21 1   
    35   20   22 2   
    36   23   24 1   
    37   23   35 1   
    38   23   36 1   
    39   24   37 1   
@<TRIPOS>SUBSTRUCTURE
     1 NXV         1 TEMP              0 ****  ****    0 ROOT
