@<TRIPOS>MOLECULE
NXV
   37    39     1     0     0
SMALL
bcc


@<TRIPOS>ATOM
      1 C1          0.4800    0.1800   -0.0640 ca        1 NXV      0.021000
      2 C2          1.8490    0.3980    0.1650 ca        1 NXV     -0.169000
      3 C3          2.3210    0.5170    1.4720 ca        1 NXV     -0.068000
      4 C4          1.4410    0.4200    2.5390 ca        1 NXV     -0.173600
      5 C5          0.0550    0.1990    2.3280 ca        1 NXV      0.183500
      6 C6         -0.4110    0.0820    1.0160 ca        1 NXV     -0.144000
      7 C7         -0.0040    0.0580   -1.3820 cg        1 NXV     -0.062000
      8 C8         -0.4190   -0.0470   -2.5020 c1        1 NXV     -0.192100
      9 C9         -0.9000   -0.1680   -3.8420 c3        1 NXV      0.014700
     10 S10        -0.7950    0.1190    3.7760 s4        1 NXV     -0.490000
     11 C11        -2.5060   -0.1480    3.1960 c3        1 NXV      0.011200
     12 C12        -3.3910   -0.2340    4.3580 ca        1 NXV      0.036700
     13 C13        -3.8910    0.9300    4.9680 ca        1 NXV     -0.144000
     14 C14        -4.7390    0.8540    6.0660 ca        1 NXV     -0.110000
     15 C15        -5.1140   -0.3920    6.5790 ca        1 NXV     -0.019600
     16 C16        -4.6190   -1.5600    5.9860 ca        1 NXV      0.035400
     17 C17        -3.7630   -1.4810    4.8860 ca        1 NXV     -0.145000
     18 CL18       -5.0500   -3.0960    6.5850 cl        1 NXV     -0.110400
     19 CL19       -6.1670   -0.4550    7.9170 cl        1 NXV     -0.114400
     20 C20         1.8280    0.5320    3.9790 c         1 NXV      0.735200
     21 O21         0.8210    0.4040    4.8010 os        1 NXV     -0.368900
     22 O22         2.9910    0.7290    4.3850 o         1 NXV     -0.738500
     23 C23        -2.3580   -0.6180   -3.8660 c3        1 NXV      0.131400
     24 O24        -2.7360   -0.7080   -5.2330 oh        1 NXV     -0.610800
     25 H2          2.5410    0.4740   -0.6840 ha        1 NXV      0.119000
     26 H3          3.3900    0.6890    1.6730 ha        1 NXV      0.143000
     27 H6         -1.4800   -0.0890    0.8200 ha        1 NXV      0.129000
     28 H9         -0.2780   -0.9110   -4.4130 hc        1 NXV      0.061700
     29 H9A        -0.8130    0.8190   -4.3770 hc        1 NXV      0.061700
     30 H11        -2.5410   -1.0830    2.5910 h1        1 NXV      0.047200
     31 H11A       -2.7930    0.7070    2.5410 h1        1 NXV      0.047200
     32 H13        -3.5910    1.9130    4.5740 ha        1 NXV      0.142000
     33 H14        -5.1160    1.7740    6.5360 ha        1 NXV      0.135000
     34 H17        -3.3660   -2.4010    4.4300 ha        1 NXV      0.149000
     35 H23        -3.0100    0.1260   -3.3370 h1        1 NXV      0.030700
     36 H23A       -2.4700   -1.6200   -3.3720 h1        1 NXV      0.030700
     37 HO24       -3.6570   -0.9910   -5.2410 ho        1 NXV      0.396000
@<TRIPOS>BOND
     1    1    2 ar  
     2    1    6 ar  
     3    1    7 1   
     4    2    3 ar  
     5    2   25 1   
     6    3    4 ar  
     7    3   26 1   
     8    4    5 ar  
     9    4   20 1   
    10    5    6 ar  
    11    5   10 1   
    12    6   27 1   
    13    7    8 3   
    14    8    9 1   
    15    9   23 1   
    16    9   28 1   
    17    9   29 1   
    18   10   11 1   
    19   10   21 1   
    20   11   12 1   
    21   11   30 1   
    22   11   31 1   
    23   12   13 ar  
    24   12   17 ar  
    25   13   14 ar  
    26   13   32 1   
    27   14   15 ar  
    28   14   33 1   
    29   15   16 ar  
    30   15   19 1   
    31   16   17 ar  
    32   16   18 1   
    33   17   34 1   
    34   20   21 1   
    35   20   22 2   
    36   23   24 1   
    37   23   35 1   
    38   23   36 1   
    39   24   37 1   
@<TRIPOS>SUBSTRUCTURE
     1 NXV         1 TEMP              0 ****  ****    0 ROOT
