@<TRIPOS>MOLECULE
NXV
   37    32     1     0     0
SMALL
bcc


@<TRIPOS>ATOM
      1 C1          1.1040    0.3900   -2.2660 c1        1 NXV     -0.022000
      2 C2          2.4850    0.4580   -2.2280 c1        1 NXV     -0.116500
      3 C3          3.1500    0.4490   -0.9990 c1        1 NXV     -0.116500
      4 C4          2.4280    0.3710    0.1790 c1        1 NXV     -0.050000
      5 C5          1.0410    0.3030    0.1410 c1        1 NXV     -0.210000
      6 C6          0.3790    0.3120   -1.0830 c2        1 NXV     -0.097000
      7 C7          0.3670    0.3330   -3.6300 c1        1 NXV     -0.061000
      8 C8         -0.2030    0.2890   -4.6810 c1        1 NXV     -0.225000
      9 C9         -0.9330    0.2330   -6.0240 c2        1 NXV     -0.035000
     10 S10         0.1090    0.4060    1.6480 s         1 NXV      0.163000
     11 C11         0.1670   -1.1740    2.4950 c3        1 NXV     -0.272000
     12 C12        -0.6900   -1.1080    3.7560 c2        1 NXV     -0.038000
     13 C13        -1.3960   -2.2230    4.1710 c2        1 NXV     -0.130000
     14 C14        -2.0900   -2.1960    5.3680 c1        1 NXV     -0.136000
     15 C15        -2.0790   -1.0470    6.1530 c1        1 NXV     -0.073000
     16 C16        -1.3760    0.0650    5.7370 c1        1 NXV     -0.059000
     17 C17        -0.6790    0.0370    4.5370 c2        1 NXV     -0.087000
     18 CL18       -1.5350    1.5720    6.6140 cl        1 NXV     -0.005000
     19 CL19       -2.8900   -1.0380    7.6930 cl        1 NXV     -0.035000
     20 C20         3.1560    0.5050    1.5390 c2        1 NXV      0.347000
     21 O21         2.9720    1.5390    2.2610 o         1 NXV     -0.549500
     22 O22         3.8930   -0.4540    1.9700 o         1 NXV     -0.549500
     23 C23        -1.5860    1.5650   -6.3000 c3        1 NXV     -0.020000
     24 O24        -1.6730    1.7680   -7.7200 oh        1 NXV     -0.338000
     25 H2          3.0090    0.4090   -3.0780 ha        1 NXV      0.130500
     26 H3          4.1260    0.5230   -0.9700 ha        1 NXV      0.130500
     27 H6         -0.6140    0.2670   -1.1110 ha        1 NXV      0.132000
     28 H9         -0.2870    0.0290   -6.7410 ha        1 NXV      0.101000
     29 H9A        -1.6160   -0.4640   -5.9940 ha        1 NXV      0.101000
     30 H11         1.0930   -1.3780    2.7410 h1        1 NXV      0.148000
     31 H11A       -0.1790   -1.8850    1.8940 h1        1 NXV      0.148000
     32 H13        -1.3750   -3.0390    3.6380 ha        1 NXV      0.130000
     33 H14        -2.5130   -3.0010    5.6980 ha        1 NXV      0.133000
     34 H17        -0.1020    0.7940    4.2870 ha        1 NXV      0.231000
     35 H23        -2.4980    1.5740   -5.9090 h1        1 NXV      0.069000
     36 H23A       -1.0510    2.2800   -5.9000 h1        1 NXV      0.069000
     37 HO24       -2.1140    2.5360   -7.8880 ho        1 NXV      0.194000
@<TRIPOS>BOND
     1    1    6 1   
     2    1    7 1   
     3    2    3 1   
     4    2   25 1   
     5    3   26 1   
     6    4    5 1   
     7    4   20 1   
     8    5    6 1   
     9    6   27 1   
    10    7    8 1   
    11    9   23 1   
    12    9   28 1   
    13    9   29 1   
    14   10   11 1   
    15   11   12 1   
    16   11   30 1   
    17   11   31 1   
    18   12   13 1   
    19   12   17 1   
    20   13   14 1   
    21   13   32 1   
    22   14   33 1   
    23   15   16 1   
    24   15   19 1   
    25   16   17 1   
    26   17   34 1   
    27   20   21 1   
    28   20   22 1   
    29   23   24 1   
    30   23   35 1   
    31   23   36 1   
    32   24   37 1   
@<TRIPOS>SUBSTRUCTURE
     1 NXV         1 TEMP              0 ****  ****    0 ROOT
