@<TRIPOS>MOLECULE
NXV
   37    39     1     0     0
SMALL
bcc


@<TRIPOS>ATOM
      1 C1          3.8360   -0.2230   -0.0260 ca        1 NXV      0.021000
      2 C2          4.4470   -1.4830   -0.1290 ca        1 NXV     -0.169000
      3 C3          3.6600   -2.6350   -0.1320 ca        1 NXV     -0.068000
      4 C4          2.2810   -2.5320   -0.0330 ca        1 NXV     -0.173600
      5 C5          1.6450   -1.2670    0.0720 ca        1 NXV      0.183500
      6 C6          2.4410   -0.1180    0.0750 ca        1 NXV     -0.144000
      7 C7          4.6260    0.9450   -0.0240 cg        1 NXV     -0.062000
      8 C8          5.2950    1.9400   -0.0220 c1        1 NXV     -0.192100
      9 C9          6.1030    3.1180   -0.0200 c3        1 NXV      0.014700
     10 S10        -0.0260   -1.4110    0.1790 s4        1 NXV     -0.490000
     11 C11        -0.5490    0.3330    0.3160 c3        1 NXV      0.011200
     12 C12        -2.0070    0.3830    0.4270 ca        1 NXV      0.036700
     13 C13        -2.6390    0.2050    1.6700 ca        1 NXV     -0.144000
     14 C14        -4.0220    0.2610    1.7830 ca        1 NXV     -0.110000
     15 C15        -4.8110    0.5020    0.6520 ca        1 NXV     -0.019600
     16 C16        -4.1940    0.6740   -0.5940 ca        1 NXV      0.035400
     17 C17        -2.8040    0.6130   -0.7050 ca        1 NXV     -0.145000
     18 CL18       -5.1210    0.9660   -1.9940 cl        1 NXV     -0.110400
     19 CL19       -6.5040    0.5790    0.8230 cl        1 NXV     -0.114400
     20 C20         1.3360   -3.6910   -0.0230 c         1 NXV      0.735200
     21 O21         0.0810   -3.3410    0.0780 os        1 NXV     -0.368900
     22 O22         1.6830   -4.8870   -0.1010 o         1 NXV     -0.738500
     23 C23         5.2460    4.3770   -0.1190 c3        1 NXV      0.131400
     24 O24         6.1390    5.4820   -0.1100 oh        1 NXV     -0.610800
     25 H2          5.5400   -1.5580   -0.2080 ha        1 NXV      0.119000
     26 H3          4.1180   -3.6330   -0.2110 ha        1 NXV      0.143000
     27 H6          1.9780    0.8760    0.1550 ha        1 NXV      0.129000
     28 H9          6.7170    3.1670    0.9230 hc        1 NXV      0.061700
     29 H9A         6.8240    3.0970   -0.8830 hc        1 NXV      0.061700
     30 H11        -0.0660    0.7750    1.2190 h1        1 NXV      0.047200
     31 H11A       -0.1910    0.8890   -0.5820 h1        1 NXV      0.047200
     32 H13        -2.0240    0.0060    2.5610 ha        1 NXV      0.142000
     33 H14        -4.5020    0.1130    2.7620 ha        1 NXV      0.135000
     34 H17        -2.3250    0.7370   -1.6880 ha        1 NXV      0.149000
     35 H23         4.6510    4.3750   -1.0710 h1        1 NXV      0.030700
     36 H23A        4.5430    4.4460    0.7530 h1        1 NXV      0.030700
     37 HO24        5.5920    6.2730   -0.1720 ho        1 NXV      0.396000
@<TRIPOS>BOND
     1    1    2 ar  
     2    1    6 ar  
     3    1    7 1   
     4    2    3 ar  
     5    2   25 1   
     6    3    4 ar  
     7    3   26 1   
     8    4    5 ar  
     9    4   20 1   
    10    5    6 ar  
    11    5   10 1   
    12    6   27 1   
    13    7    8 3   
    14    8    9 1   
    15    9   23 1   
    16    9   28 1   
    17    9   29 1   
    18   10   11 1   
    19   10   21 1   
    20   11   12 1   
    21   11   30 1   
    22   11   31 1   
    23   12   13 ar  
    24   12   17 ar  
    25   13   14 ar  
    26   13   32 1   
    27   14   15 ar  
    28   14   33 1   
    29   15   16 ar  
    30   15   19 1   
    31   16   17 ar  
    32   16   18 1   
    33   17   34 1   
    34   20   21 1   
    35   20   22 2   
    36   23   24 1   
    37   23   35 1   
    38   23   36 1   
    39   24   37 1   
@<TRIPOS>SUBSTRUCTURE
     1 NXV         1 TEMP              0 ****  ****    0 ROOT
