@<TRIPOS>MOLECULE
NXW
   60    50     1     0     0
SMALL
bcc


@<TRIPOS>ATOM
      1 C1         -1.0410   -0.6190   -1.9590 c1        1 NXW     -0.111500
      2 C2          0.1130   -0.6080   -1.5950 c1        1 NXW     -0.111500
      3 C3         -4.5690   -0.4660   -3.5570 c1        1 NXW     -0.136500
      4 C4         -3.2050   -0.7620   -3.5550 c1        1 NXW     -0.125000
      5 C5          1.8800   -0.8310    0.2080 c1        1 NXW     -0.125000
      6 C6          3.2040   -0.7540    0.6450 c1        1 NXW     -0.121000
      7 C7          8.7890   -1.6960   -2.0410 c1        1 NXW     -0.087000
      8 C8         -5.1890   -0.0390   -2.3860 c1        1 NXW     -0.136500
      9 C9         10.1210   -1.8770   -2.4010 c1        1 NXW     -0.123500
     10 C10        -3.0980   -0.2080   -1.2350 c1        1 NXW     -0.170000
     11 C11         2.5800   -0.2820   -2.0240 c1        1 NXW     -0.087000
     12 C12         8.4270   -0.4270   -4.0360 c1        1 NXW     -0.123500
     13 C13        -2.4800   -0.6350   -2.4090 c1        1 NXW      0.029000
     14 C14         1.5740   -0.5940   -1.1300 c1        1 NXW      0.029000
     15 C15         4.2210   -0.4390   -0.2580 c1        1 NXW     -0.041000
     16 C16         7.9470   -0.9730   -2.8570 c1        1 NXW     -0.038000
     17 C17        -4.4600    0.0890   -1.2330 c1        1 NXW      0.064000
     18 C18         3.9170   -0.2040   -1.5830 c2        1 NXW     -0.217000
     19 C19        10.5990   -1.3350   -3.5710 c1        1 NXW     -0.069500
     20 C20         9.7520   -0.6080   -4.3940 c1        1 NXW     -0.069500
     21 C21         5.2730   -0.3580    0.8790 c1        1 NXW      0.347000
     22 C22        -6.4560    0.5260    0.2880 c1        1 NXW      0.303000
     23 C23        -5.6260    1.8760    7.1420 c3        1 NXW     -0.125000
     24 C24         6.4940   -1.3300   -2.5450 c3        1 NXW     -0.273000
     25 C25        -7.0600    0.6490    1.7010 c2        1 NXW     -0.102000
     26 C26        -5.8050    1.9850    4.7770 c3        1 NXW     -0.082000
     27 C27        -6.9480    1.8260    3.7540 c3        1 NXW     -0.077000
     28 N28        -5.0640    0.1400    0.1250 n3        1 NXW     -0.307000
     29 N29        -6.1000    1.1850    5.9600 n3        1 NXW     -0.304000
     30 N30        -6.3920    1.7140    2.4180 n3        1 NXW     -0.311000
     31 O31         5.5850    0.7620    1.3720 o         1 NXW     -0.549500
     32 O32        -7.1170    0.8050   -0.6740 o         1 NXW     -0.363000
     33 O33         5.8690   -1.3920    1.2510 o         1 NXW     -0.549500
     34 S34         5.5320    0.1980   -2.3120 ss        1 NXW      0.166000
     35 CL35       12.2920   -1.4850   -3.9740 cl        1 NXW     -0.033000
     36 CL36       10.7200    0.1110   -5.6480 cl        1 NXW     -0.033000
     37 H3         -5.1050   -0.6210   -4.3710 ha        1 NXW      0.148000
     38 H4         -2.7560   -0.8840   -4.4230 ha        1 NXW      0.131000
     39 H5          1.1750   -1.0950    0.8310 ha        1 NXW      0.131000
     40 H6          3.0220   -0.5530    1.5860 ha        1 NXW      0.142000
     41 H7          8.4480   -2.0860   -1.2010 ha        1 NXW      0.221000
     42 H8         -6.1390   -0.0090   -2.6390 ha        1 NXW      0.148000
     43 H9         10.7110   -2.3830   -1.8280 ha        1 NXW      0.145500
     44 H10        -2.5460   -0.3410   -0.4260 ha        1 NXW      0.138000
     45 H11         2.4590   -0.1690   -3.0030 ha        1 NXW      0.135000
     46 H12         7.8320    0.1000   -4.6110 ha        1 NXW      0.145500
     47 H23        -5.7370    1.2930    7.9300 h1        1 NXW      0.070333
     48 H23A       -6.1430    2.7000    7.2680 h1        1 NXW      0.070333
     49 H23B       -4.6930    2.0960    7.0340 h1        1 NXW      0.070333
     50 H24         6.4590   -1.8760   -1.7090 h1        1 NXW      0.147000
     51 H24A        6.1190   -1.8420   -3.2840 h1        1 NXW      0.147000
     52 H25        -6.9390   -0.1950    2.1830 h4        1 NXW      0.101000
     53 H25A       -8.0390    0.8570    1.6300 h4        1 NXW      0.101000
     54 H26        -5.7220    2.9340    5.0330 h1        1 NXW      0.078000
     55 H26A       -4.9640    1.6790    4.3770 h1        1 NXW      0.078000
     56 H27        -7.4560    1.0280    3.9590 h1        1 NXW      0.077500
     57 H27A       -7.5230    2.5920    3.7970 h1        1 NXW      0.077500
     58 HN28       -4.5490   -0.0640    0.8710 hn        1 NXW      0.245000
     59 HN29       -5.6800    0.3740    5.8920 hn        1 NXW      0.152000
     60 HN30       -6.5110    2.5210    1.9600 hn        1 NXW      0.164000
@<TRIPOS>BOND
     1    1    2 1   
     2    3    8 1   
     3    3   37 1   
     4    4   13 1   
     5    4   38 1   
     6    5   14 1   
     7    5   39 1   
     8    6   15 1   
     9    6   40 1   
    10    7   16 1   
    11    7   41 1   
    12    8   42 1   
    13    9   19 1   
    14    9   43 1   
    15   10   17 1   
    16   10   44 1   
    17   11   18 1   
    18   11   45 1   
    19   12   20 1   
    20   12   46 1   
    21   15   18 1   
    22   16   24 1   
    23   17   28 1   
    24   18   34 1   
    25   19   35 1   
    26   20   36 1   
    27   21   31 1   
    28   21   33 1   
    29   22   28 1   
    30   22   32 1   
    31   23   29 1   
    32   23   47 1   
    33   23   48 1   
    34   23   49 1   
    35   24   34 1   
    36   24   50 1   
    37   24   51 1   
    38   25   30 1   
    39   25   52 1   
    40   25   53 1   
    41   26   27 1   
    42   26   29 1   
    43   26   54 1   
    44   26   55 1   
    45   27   30 1   
    46   27   56 1   
    47   27   57 1   
    48   28   58 1   
    49   29   59 1   
    50   30   60 1   
@<TRIPOS>SUBSTRUCTURE
     1 NXW         1 TEMP              0 ****  ****    0 ROOT
