@<TRIPOS>MOLECULE
NXW
   60    63     1     0     0
SMALL
bcc


@<TRIPOS>ATOM
      1 C1         -2.4250   -3.5010    0.0370 cg        1 NXW     -0.185000
      2 C2         -1.2240   -3.5400    0.0590 ch        1 NXW     -0.026000
      3 C3         -5.9640   -4.5760    0.1750 ca        1 NXW     -0.110000
      4 C4         -4.5740   -4.6330    0.1850 ca        1 NXW     -0.143000
      5 C5          0.8370   -4.8310    0.1510 ca        1 NXW     -0.165000
      6 C6          2.2310   -4.8760    0.1850 ca        1 NXW     -0.070000
      7 C7          3.7010    1.9670   -1.2360 ca        1 NXW     -0.143000
      8 C8         -6.6280   -3.3680    0.0000 ca        1 NXW     -0.192000
      9 C9          4.4740    3.1200   -1.2680 ca        1 NXW     -0.110000
     10 C10        -4.4850   -2.2270   -0.1620 ca        1 NXW     -0.138000
     11 C11         0.9220   -2.3970    0.0660 ca        1 NXW     -0.137000
     12 C12         3.4070    2.2180    1.1490 ca        1 NXW     -0.144000
     13 C13        -3.8290   -3.4550    0.0170 ca        1 NXW      0.086000
     14 C14         0.1820   -3.5900    0.0910 ca        1 NXW      0.012000
     15 C15         2.9630   -3.6990    0.1630 ca        1 NXW     -0.148000
     16 C16         3.1520    1.4980   -0.0290 ca        1 NXW      0.035700
     17 C17        -5.8920   -2.1710   -0.1710 ca        1 NXW      0.060600
     18 C18         2.3200   -2.4350    0.1030 ca        1 NXW     -0.247000
     19 C19         4.7160    3.8380   -0.0920 ca        1 NXW     -0.018600
     20 C20         4.1810    3.3790    1.1180 ca        1 NXW      0.034400
     21 C21         4.4560   -3.6220    0.1960 c2        1 NXW      0.438100
     22 C22        -6.1160    0.2520   -0.7580 c         1 NXW      0.617100
     23 C23        -3.7010    6.2820    0.5590 c3        1 NXW      0.152100
     24 C24         2.3290    0.2880   -0.0030 c3        1 NXW      0.011200
     25 C25        -7.1530    1.3930   -0.8480 c3        1 NXW      0.093800
     26 C26        -5.1780    4.5700   -0.2830 c3        1 NXW      0.158800
     27 C27        -5.9410    3.2780    0.0740 c3        1 NXW      0.146800
     28 N28        -6.6050   -0.9660   -0.3190 n         1 NXW     -0.470100
     29 N29        -4.5620    5.1750    0.8820 n3        1 NXW     -0.826200
     30 N30        -6.6160    2.7080   -1.0810 n3        1 NXW     -0.798200
     31 O31         4.9170   -2.4010    0.1670 os        1 NXW     -0.368900
     32 O32        -4.9290    0.4440   -1.0750 o         1 NXW     -0.587100
     33 O33         5.2130   -4.6130    0.2450 o         1 NXW     -0.463000
     34 S34         3.4220   -1.1680    0.0880 s4        1 NXW     -0.058500
     35 CL35        5.6570    5.2560   -0.1640 cl        1 NXW     -0.114400
     36 CL36        4.4550    4.2250    2.5720 cl        1 NXW     -0.110400
     37 H3         -6.5490   -5.4990    0.3060 ha        1 NXW      0.126000
     38 H4         -4.0560   -5.5930    0.3240 ha        1 NXW      0.141000
     39 H5          0.2520   -5.7600    0.1690 ha        1 NXW      0.119000
     40 H6          2.7650   -5.8380    0.2320 ha        1 NXW      0.144000
     41 H8         -7.7280   -3.3550   -0.0010 ha        1 NXW      0.121000
     42 H10        -3.8800   -1.3150   -0.3000 ha        1 NXW      0.179000
     43 H11         0.3940   -1.4340    0.0180 ha        1 NXW      0.133000
     44 H12         2.9980    1.8540    2.1040 ha        1 NXW      0.149000
     45 H23        -2.8550    6.0150   -0.1320 h1        1 NXW      0.030700
     46 H23A       -4.3090    7.0880    0.0690 h1        1 NXW      0.030700
     47 H23B       -3.2690    6.6860    1.5120 h1        1 NXW      0.030700
     48 H24         1.6450    0.2830    0.8780 h1        1 NXW      0.048700
     49 H24A        1.7100    0.2090   -0.9270 h1        1 NXW      0.048700
     50 H25        -7.8370    1.1520   -1.7120 h1        1 NXW      0.070200
     51 H25A       -7.7630    1.4150    0.0990 h1        1 NXW      0.070200
     52 H26        -4.4190    4.3330   -1.0880 h1        1 NXW      0.036200
     53 H26A       -5.8980    5.3230   -0.7120 h1        1 NXW      0.036200
     54 H27        -5.2180    2.5420    0.5360 h1        1 NXW      0.045200
     55 H27A       -6.7310    3.5140    0.8420 h1        1 NXW      0.045200
     56 HN28       -7.5840   -1.0280   -0.1490 hn        1 NXW      0.310500
     57 HN29       -4.0620    4.4840    1.4110 hn        1 NXW      0.360800
     58 HN30       -5.9920    2.6890   -1.8700 hn        1 NXW      0.375800
     59 H7          3.5210    1.4010   -2.1620 ha        1 NXW      0.142000
     60 H9          4.9020    3.4700   -2.2200 ha        1 NXW      0.135000
@<TRIPOS>BOND
     1    1    2 3   
     2    1   13 1   
     3    2   14 1   
     4    3    4 ar  
     5    3    8 ar  
     6    3   37 1   
     7    4   13 ar  
     8    4   38 1   
     9    5    6 ar  
    10    5   14 ar  
    11    5   39 1   
    12    6   15 ar  
    13    6   40 1   
    14    7    9 ar  
    15    7   16 ar  
    16    7   59 1   
    17    8   17 ar  
    18    8   41 1   
    19    9   19 ar  
    20    9   60 1   
    21   10   13 ar  
    22   10   17 ar  
    23   10   42 1   
    24   11   14 ar  
    25   11   18 ar  
    26   11   43 1   
    27   12   16 ar  
    28   12   20 ar  
    29   12   44 1   
    30   15   18 ar  
    31   15   21 2   
    32   16   24 1   
    33   17   28 1   
    34   18   34 2   
    35   19   20 ar  
    36   19   35 1   
    37   20   36 1   
    38   21   31 1   
    39   21   33 1   
    40   22   25 1   
    41   22   28 1   
    42   22   32 2   
    43   23   29 1   
    44   23   45 1   
    45   23   46 1   
    46   23   47 1   
    47   24   34 1   
    48   24   48 1   
    49   24   49 1   
    50   25   30 1   
    51   25   50 1   
    52   25   51 1   
    53   26   27 1   
    54   26   29 1   
    55   26   52 1   
    56   26   53 1   
    57   27   30 1   
    58   27   54 1   
    59   27   55 1   
    60   28   56 1   
    61   29   57 1   
    62   30   58 1   
    63   31   34 1   
@<TRIPOS>SUBSTRUCTURE
     1 NXW         1 TEMP              0 ****  ****    0 ROOT
