@<TRIPOS>MOLECULE
NXW
   62    61     1     0     0
SMALL
bcc


@<TRIPOS>ATOM
      1 C1          3.5100    0.0010    1.2150 c1        1 NXW     -0.153000
      2 C2          4.6840    0.0200    1.2270 c1        1 NXW     -0.139000
      3 C3          0.0000    0.0000    0.0000 ca        1 NXW     -0.096000
      4 C4          1.3790    0.0000    0.0000 ca        1 NXW     -0.062000
      5 C5          6.6400    0.8280    0.8560 ca        1 NXW      0.003000
      6 C6          8.0930    0.3370    0.1720 ca        1 NXW     -0.105000
      7 C7          5.2600   -5.4820    0.8500 c2        1 NXW     -0.108000
      8 C8         -0.6960    0.0050    1.1950 ca        1 NXW     -0.061000
      9 C9          4.5170   -5.5370    1.6350 c2        1 NXW     -0.073000
     10 C10         1.3740    0.0000    2.4170 ca        1 NXW     -0.161000
     11 C11         5.9840   -1.3650   -0.0130 ca        1 NXW     -0.076000
     12 C12         3.9740   -6.1190   -0.8010 c2        1 NXW     -0.076000
     13 C13         2.0780    0.0000    1.2110 ca        1 NXW      0.124000
     14 C14         5.8450   -0.4820    0.4600 ca        1 NXW      0.067000
     15 C15         8.1620   -0.6380   -0.3250 ca        1 NXW      0.023000
     16 C16         4.9810   -5.7820   -0.4090 c1        1 NXW     -0.082000
     17 C17        -0.0120    0.0060    2.4050 ca        1 NXW     -0.157000
     18 C18         7.2060   -1.8400   -0.6190 ca        1 NXW     -0.151000
     19 C19         3.0370   -6.0070    1.1970 c1        1 NXW     -0.116000
     20 C20         2.9300   -6.2470    0.0170 c2        1 NXW     -0.039000
     21 C21         9.4420   -0.6910   -0.8990 c2        1 NXW      0.292000
     22 C22        -0.2440   -0.6690    4.6750 c2        1 NXW      0.239000
     23 C23        -0.1070   -2.7990   11.3830 c3        1 NXW     -0.383000
     24 C24         6.6310   -4.6100   -1.4360 c1        1 NXW      0.040000
     25 C25        -1.0580   -0.7560    5.9400 c3        1 NXW     -0.348000
     26 C26        -0.3580   -1.9400    9.3850 c3        1 NXW     -0.461000
     27 C27        -1.0410   -1.9330    7.8840 c3        1 NXW     -0.411000
     28 N28        -0.7220    0.0050    3.6110 ns        1 NXW      0.112000
     29 N29        -0.8640   -2.7260   10.3370 ny        1 NXW      0.962000
     30 N30        -0.3220   -1.5390    6.9420 ny        1 NXW      0.806000
     31 O31         9.6830   -0.4650   -2.4600 o         1 NXW     -0.366000
     32 O32         0.8430   -1.2060    4.6130 o         1 NXW     -0.366000
     33 O33        10.6770   -1.2110   -0.6150 o         1 NXW     -0.366000
     34 S34         7.5670   -3.4480    0.0530 s         1 NXW      0.017000
     35 Cl35        3.0380   -7.2750    2.7310 cl        1 NXW     -0.002000
     36 Cl36        2.3780   -8.0980    0.0670 cl        1 NXW     -0.018000
     37 H3         -0.5800    0.1400   -0.9040 ha        1 NXW      0.121000
     38 H4          1.5390    0.0750   -1.0690 ha        1 NXW      0.137000
     39 H5          6.4890    1.5730    1.6290 ha        1 NXW      0.147000
     40 H6          8.7020    1.2280    0.2680 ha        1 NXW      0.129000
     41 H8         -1.7530   -0.1510    1.3720 ha        1 NXW      0.114000
     42 H10         1.8760   -0.5690    3.1890 ha        1 NXW      0.163000
     43 H11         5.3540   -2.1980    0.2770 ha        1 NXW      0.127000
     44 H23         0.9670   -2.8550   11.2550 hx        1 NXW      0.120000
     45 H23A       -0.6080   -3.2110   12.2500 hx        1 NXW      0.120000
     46 H23B       -0.1790   -1.7500   11.6460 hx        1 NXW      0.120000
     47 H24         6.1000   -4.0990   -2.2300 ha        1 NXW      0.076000
     48 H24A        7.3980   -5.3080   -1.7510 ha        1 NXW      0.076000
     49 H25        -1.2290    0.2540    6.2910 hx        1 NXW      0.121000
     50 H25A       -2.0170   -1.2550    5.9990 hx        1 NXW      0.121000
     51 H26         0.6670   -2.1710    9.1200 hx        1 NXW      0.140000
     52 H26A       -0.5940   -0.8850    9.4400 hx        1 NXW      0.140000
     53 H27        -1.3820   -2.9470    7.7110 hx        1 NXW      0.119500
     54 H27A       -1.9560   -1.3830    8.0710 hx        1 NXW      0.119500
     55 HN28       -0.4570    0.7620    4.2100 hn        1 NXW      0.070000
     56 HN29       -1.8460   -2.6270   10.5070 hn        1 NXW     -0.016000
     57 HN30        0.2880   -2.0440    6.3300 hn        1 NXW      0.030000
     58 H7          6.2460   -5.1700    1.1750 ha        1 NXW      0.143000
     59 H9          4.7000   -5.5400    2.7020 ha        1 NXW      0.110000
     60 H292       -1.2320   -3.6540   10.4090 hn        1 NXW     -0.016000
     61 H302        0.4600   -0.9200    7.0270 hn        1 NXW      0.030000
     62 H12         3.6210   -6.3650   -1.7950 ha        1 NXW      0.129000
@<TRIPOS>BOND
     1    1    2 1   
     2    1   13 1   
     3    2   14 1   
     4    3    4 1   
     5    3    8 1   
     6    3   37 1   
     7    4   13 1   
     8    4   38 1   
     9    5    6 1   
    10    5   14 1   
    11    5   39 1   
    12    6   15 1   
    13    6   40 1   
    14    7    9 1   
    15    7   16 1   
    16    7   58 1   
    17    8   17 1   
    18    8   41 1   
    19    9   19 1   
    20    9   59 1   
    21   10   13 1   
    22   10   17 1   
    23   10   42 1   
    24   11   14 1   
    25   11   18 1   
    26   11   43 1   
    27   12   16 1   
    28   12   20 1   
    29   12   62 1   
    30   15   18 1   
    31   15   21 1   
    32   17   28 1   
    33   18   34 1   
    34   19   20 1   
    35   20   36 1   
    36   21   31 1   
    37   21   33 1   
    38   22   25 1   
    39   22   28 1   
    40   22   32 1   
    41   23   29 1   
    42   23   44 1   
    43   23   45 1   
    44   23   46 1   
    45   24   47 1   
    46   24   48 1   
    47   25   30 1   
    48   25   49 1   
    49   25   50 1   
    50   26   27 1   
    51   26   29 1   
    52   26   51 1   
    53   26   52 1   
    54   27   30 1   
    55   27   53 1   
    56   27   54 1   
    57   28   55 1   
    58   29   56 1   
    59   29   60 1   
    60   30   57 1   
    61   30   61 1   
@<TRIPOS>SUBSTRUCTURE
     1 NXW         1 TEMP              0 ****  ****    0 ROOT
