@<TRIPOS>MOLECULE
NXW
   60    62     1     0     0
SMALL
bcc


@<TRIPOS>ATOM
      1 C1          3.9120   -0.1720    1.0460 cg        1 NXW     -0.190000
      2 C2          5.0720    0.1230    0.9410 ch        1 NXW     -0.019000
      3 C3          0.3950   -0.8600    0.1240 ca        1 NXW     -0.108000
      4 C4          1.7360   -0.5070    0.0140 ca        1 NXW     -0.145000
      5 C5          6.9600    0.7610   -0.4650 ca        1 NXW     -0.112000
      6 C6          8.3020    1.0910   -0.5860 ca        1 NXW     -0.119000
      7 C7         12.2360    1.4630    5.2370 ca        1 NXW     -0.130000
      8 C8         -0.1480   -1.2270    1.3500 ca        1 NXW     -0.195000
      9 C9         13.0070    2.4340    5.8710 ca        1 NXW     -0.136000
     10 C10         2.0220   -0.8870    2.4000 ca        1 NXW     -0.140000
     11 C11         7.2680    0.5090    1.9230 ca        1 NXW     -0.089000
     12 C12        12.3340    2.7140    3.1640 ca        1 NXW     -0.086000
     13 C13         2.5560   -0.5200    1.1550 ca        1 NXW      0.090000
     14 C14         6.4280    0.4660    0.8040 ca        1 NXW     -0.035000
     15 C15         9.1460    1.1480    0.5340 ca        1 NXW     -0.065600
     16 C16        11.8940    1.5950    3.8850 ca        1 NXW     -0.045300
     17 C17         0.6640   -1.2450    2.5100 ca        1 NXW      0.061600
     18 C18         8.6230    0.8580    1.7980 ca        1 NXW      0.012900
     19 C19        13.4470    3.5500    5.1550 ca        1 NXW      0.006400
     20 C20        13.1100    3.6880    3.8000 ca        1 NXW      0.019400
     21 C21        10.5970    1.5270    0.2700 c         1 NXW      0.897200
     22 C22         0.6130   -1.5680    4.9950 c         1 NXW      0.619100
     23 C23         0.4270    1.8910   10.7570 c3        1 NXW      0.154100
     24 C24        11.0900    0.5470    3.2180 c3        1 NXW     -0.005000
     25 C25        -0.2770   -2.1140    6.1330 c3        1 NXW      0.094800
     26 C26         0.3700    0.1330    9.1030 c3        1 NXW      0.155800
     27 C27        -0.3150   -0.3650    7.8130 c3        1 NXW      0.151800
     28 N28         0.0720   -1.6420    3.7240 n         1 NXW     -0.469100
     29 N29        -0.1760    1.4000    9.5480 n3        1 NXW     -0.823200
     30 N30         0.1010   -1.7140    7.4630 n3        1 NXW     -0.805200
     31 O31        11.4140    0.5890    0.0410 o         1 NXW     -0.813300
     32 O32         1.7510   -1.1300    5.2400 o         1 NXW     -0.585100
     33 O33        10.9070    2.7490    0.2820 o         1 NXW     -0.813300
     34 S34         9.3680    0.9520    3.3340 ss        1 NXW     -0.241000
     35 CL35       14.3920    4.7190    5.9560 cl        1 NXW     -0.113400
     36 CL36       13.6380    5.0370    2.9110 cl        1 NXW     -0.083400
     37 H3         -0.2470   -0.8490   -0.7690 ha        1 NXW      0.126000
     38 H4          2.1580   -0.2170   -0.9590 ha        1 NXW      0.141000
     39 H5          6.3110    0.7260   -1.3510 ha        1 NXW      0.120000
     40 H6          8.7280    1.3220   -1.5750 ha        1 NXW      0.141000
     41 H8         -1.2110   -1.5010    1.4050 ha        1 NXW      0.120000
     42 H10         2.6810   -0.8840    3.2840 ha        1 NXW      0.180000
     43 H11         6.8610    0.2680    2.9180 ha        1 NXW      0.137000
     44 H12        12.0550    2.8210    2.0900 ha        1 NXW      0.230000
     45 H23         0.3200    1.1940   11.6350 h1        1 NXW      0.029367
     46 H23A        1.5220    2.0610   10.5790 h1        1 NXW      0.029367
     47 H23B       -0.0510    2.8710   11.0210 h1        1 NXW      0.029367
     48 H24        11.4230    0.4100    2.1510 h1        1 NXW      0.108200
     49 H24A       11.2200   -0.4350    3.7400 h1        1 NXW      0.108200
     50 H25        -0.1980   -3.2390    6.0890 h1        1 NXW      0.069200
     51 H25A       -1.3500   -1.8240    5.9560 h1        1 NXW      0.069200
     52 H26         0.2860   -0.6640    9.9000 h1        1 NXW      0.038700
     53 H26A        1.4670    0.2890    8.8960 h1        1 NXW      0.038700
     54 H27        -0.0980    0.3730    6.9870 h1        1 NXW      0.041200
     55 H27A       -1.4310   -0.3940    7.9620 h1        1 NXW      0.041200
     56 HN28       -0.8630   -1.9730    3.6490 hn        1 NXW      0.309500
     57 HN29       -1.1720    1.3350    9.6470 hn        1 NXW      0.353800
     58 HN30        1.0950   -1.8160    7.5850 hn        1 NXW      0.381800
     59 H7         11.8930    0.5870    5.8060 ha        1 NXW      0.130000
     60 H9         13.2680    2.3230    6.9330 ha        1 NXW      0.133000
@<TRIPOS>BOND
     1    1    2 3   
     2    1   13 1   
     3    2   14 1   
     4    3    4 ar  
     5    3    8 ar  
     6    3   37 1   
     7    4   13 ar  
     8    4   38 1   
     9    5    6 ar  
    10    5   14 ar  
    11    5   39 1   
    12    6   15 ar  
    13    6   40 1   
    14    7    9 ar  
    15    7   16 ar  
    16    7   59 1   
    17    8   17 ar  
    18    8   41 1   
    19    9   19 ar  
    20    9   60 1   
    21   10   13 ar  
    22   10   17 ar  
    23   10   42 1   
    24   11   14 ar  
    25   11   18 ar  
    26   11   43 1   
    27   12   16 ar  
    28   12   20 ar  
    29   12   44 1   
    30   15   18 ar  
    31   15   21 1   
    32   16   24 1   
    33   17   28 1   
    34   18   34 1   
    35   19   20 ar  
    36   19   35 1   
    37   20   36 1   
    38   21   31 1   
    39   21   33 1   
    40   22   25 1   
    41   22   28 1   
    42   22   32 2   
    43   23   29 1   
    44   23   45 1   
    45   23   46 1   
    46   23   47 1   
    47   24   34 1   
    48   24   48 1   
    49   24   49 1   
    50   25   30 1   
    51   25   50 1   
    52   25   51 1   
    53   26   27 1   
    54   26   29 1   
    55   26   52 1   
    56   26   53 1   
    57   27   30 1   
    58   27   54 1   
    59   27   55 1   
    60   28   56 1   
    61   29   57 1   
    62   30   58 1   
@<TRIPOS>SUBSTRUCTURE
     1 NXW         1 TEMP              0 ****  ****    0 ROOT
