@<TRIPOS>MOLECULE
NXY
   25    20     1     0     0
SMALL
bcc


@<TRIPOS>ATOM
      1 C1          0.5670    2.2470   -0.9290 c1        1 NXY     -0.218500
      2 C2         -0.1590    2.9950   -1.9390 c1        1 NXY     -0.401000
      3 S3         -0.1350    1.0740    0.1980 s         1 NXY      0.194000
      4 C4          2.1020    2.6640   -1.0050 c1        1 NXY     -0.218500
      5 S5          0.8570    3.8990   -2.6850 ss        1 NXY      0.546000
      6 C6         -1.6530    2.9530   -2.1740 c1        1 NXY      0.377000
      7 C7          0.0130   -0.5570   -0.4780 c3        1 NXY     -0.278000
      8 C8          2.2550    3.6500   -2.0590 c1        1 NXY     -0.401000
      9 O9         -2.4400    3.4140   -1.3050 o         1 NXY     -0.546500
     10 O10        -2.1100    2.4590   -3.2390 o         1 NXY     -0.546500
     11 C11        -0.1990   -1.5780    0.6170 c2        1 NXY     -0.029000
     12 C12        -1.4130   -1.6380    1.2830 c2        1 NXY     -0.086000
     13 C13         0.8200   -2.4570    0.9510 c1        1 NXY     -0.133000
     14 C14        -1.6090   -2.5780    2.2820 c1        1 NXY     -0.060000
     15 C15         0.6240   -3.3970    1.9500 c1        1 NXY     -0.136000
     16 C16        -0.5910   -3.4580    2.6160 c2        1 NXY     -0.074000
     17 CL17       -3.1230   -2.6310    3.1440 cl        1 NXY     -0.007000
     18 CL18       -0.8460   -4.6570    3.8560 cl        1 NXY     -0.037000
     19 H4          2.8180    2.3150   -0.4400 DU        1 NXY      0.142500
     20 H7         -0.6610   -0.6830   -1.1760 h1        1 NXY      0.141500
     21 H7A         0.9050   -0.6710   -0.8620 h1        1 NXY      0.141500
     22 H8          3.0890    4.0800   -2.3260 DU        1 NXY      0.142500
     23 H12        -2.1290   -1.0190    1.0480 ha        1 NXY      0.227000
     24 H13         1.6770   -2.4090    0.4870 ha        1 NXY      0.130000
     25 H15         1.3400   -4.0160    2.1850 ha        1 NXY      0.132000
@<TRIPOS>BOND
     1    1    2 1   
     2    1    4 1   
     3    2    5 1   
     4    3    7 1   
     5    4    8 1   
     6    5    8 1   
     7    6    9 1   
     8    6   10 1   
     9    7   11 1   
    10    7   20 1   
    11    7   21 1   
    12   11   12 1   
    13   11   13 1   
    14   12   14 1   
    15   12   23 1   
    16   13   24 1   
    17   14   16 1   
    18   15   16 1   
    19   15   25 1   
    20   16   18 1   
@<TRIPOS>SUBSTRUCTURE
     1 NXY         1 TEMP              0 ****  ****    0 ROOT
