@<TRIPOS>MOLECULE
NXY
   25    27     1     0     0
SMALL
bcc


@<TRIPOS>ATOM
      1 C1         -0.1530   -0.0000    0.1430 cc        1 NXY      0.133500
      2 C2          1.2470    0.0520    0.0550 cd        1 NXY     -0.230700
      3 S3         -0.9240    0.0180   -1.3350 s4        1 NXY     -0.482000
      4 C4         -0.5760   -0.0570    1.5080 cc        1 NXY     -0.150000
      5 S5          1.9620    0.0300    1.5540 ss        1 NXY      0.036200
      6 C6          1.7710    0.1150   -1.3300 c         1 NXY      0.771200
      7 C7         -2.6680   -0.0430   -0.7820 c3        1 NXY      0.017200
      8 C8          0.5020   -0.0460    2.3680 cd        1 NXY     -0.195100
      9 O9          0.8190    0.1070   -2.2250 os        1 NXY     -0.369900
     10 O10         2.9780    0.1730   -1.6470 o         1 NXY     -0.752500
     11 C11        -3.5440   -0.0310   -1.9530 ca        1 NXY      0.038700
     12 C12        -4.0540   -1.2290   -2.4800 ca        1 NXY     -0.146000
     13 C13        -3.8960    1.1800   -2.5750 ca        1 NXY     -0.145000
     14 C14        -4.9010   -1.2120   -3.5890 ca        1 NXY      0.035400
     15 C15        -4.7350    1.1980   -3.6820 ca        1 NXY     -0.110000
     16 C16        -5.2490    0.0020   -4.1940 ca        1 NXY     -0.021600
     17 CL17       -5.5040   -2.6900   -4.1870 cl        1 NXY     -0.112400
     18 CL18       -6.2870    0.0560   -5.5440 cl        1 NXY     -0.116400
     19 H4         -1.6240   -0.1030    1.8060 ha        1 NXY      0.138000
     20 H7         -2.8160   -0.9630   -0.1710 h1        1 NXY      0.046200
     21 H7A        -2.8570    0.8430   -0.1320 h1        1 NXY      0.046200
     22 H8          0.4380   -0.0820    3.4520 h4        1 NXY      0.144000
     23 H12        -3.7740   -2.1860   -2.0150 ha        1 NXY      0.149000
     24 H13        -3.4860    2.1230   -2.1820 ha        1 NXY      0.142000
     25 H15        -4.9950    2.1540   -4.1610 ha        1 NXY      0.134000
@<TRIPOS>BOND
     1    1    2 2   
     2    1    3 1   
     3    1    4 1   
     4    2    5 1   
     5    2    6 1   
     6    3    7 1   
     7    3    9 1   
     8    4    8 2   
     9    4   19 1   
    10    5    8 1   
    11    6    9 1   
    12    6   10 2   
    13    7   11 1   
    14    7   20 1   
    15    7   21 1   
    16    8   22 1   
    17   11   12 ar  
    18   11   13 ar  
    19   12   14 ar  
    20   12   23 1   
    21   13   15 ar  
    22   13   24 1   
    23   14   16 ar  
    24   14   17 1   
    25   15   16 ar  
    26   15   25 1   
    27   16   18 1   
@<TRIPOS>SUBSTRUCTURE
     1 NXY         1 TEMP              0 ****  ****    0 ROOT
