@<TRIPOS>MOLECULE
NXY
   25    27     1     0     0
SMALL
bcc


@<TRIPOS>ATOM
      1 C1         -0.1520   -0.0020    0.1420 cc        1 NXY      0.133500
      2 C2          1.2480    0.0510    0.0530 cd        1 NXY     -0.230700
      3 S3         -0.9240    0.0160   -1.3350 s4        1 NXY     -0.482000
      4 C4         -0.5740   -0.0590    1.5080 cc        1 NXY     -0.150000
      5 S5          1.9630    0.0300    1.5520 ss        1 NXY      0.036200
      6 C6          1.7710    0.1140   -1.3320 c         1 NXY      0.771200
      7 C7         -2.6680   -0.0450   -0.7820 c3        1 NXY      0.017200
      8 C8          0.5040   -0.0470    2.3670 cd        1 NXY     -0.195100
      9 O9          0.8180    0.1050   -2.2260 os        1 NXY     -0.369900
     10 O10         2.9780    0.1720   -1.6490 o         1 NXY     -0.752500
     11 C11        -3.5450   -0.0320   -1.9520 ca        1 NXY      0.038700
     12 C12        -4.0540   -1.2280   -2.4820 ca        1 NXY     -0.146000
     13 C13        -3.8970    1.1810   -2.5710 ca        1 NXY     -0.145000
     14 C14        -4.9010   -1.2100   -3.5910 ca        1 NXY      0.035400
     15 C15        -4.7370    1.2010   -3.6770 ca        1 NXY     -0.110000
     16 C16        -5.2510    0.0060   -4.1920 ca        1 NXY     -0.021600
     17 Cl17       -5.5040   -2.6870   -4.1920 cl        1 NXY     -0.112400
     18 Cl18       -6.2890    0.0620   -5.5420 cl        1 NXY     -0.116400
     19 H4         -1.6230   -0.1060    1.8060 ha        1 NXY      0.138000
     20 H7         -2.8150   -0.9670   -0.1720 h1        1 NXY      0.046200
     21 H7A        -2.8560    0.8390   -0.1300 h1        1 NXY      0.046200
     22 H8          0.4400   -0.0830    3.4510 h4        1 NXY      0.144000
     23 H12        -3.7730   -2.1860   -2.0200 ha        1 NXY      0.149000
     24 H13        -3.4880    2.1230   -2.1760 ha        1 NXY      0.142000
     25 H15        -4.9980    2.1580   -4.1540 ha        1 NXY      0.134000
@<TRIPOS>BOND
     1    1    2 2   
     2    1    3 1   
     3    1    4 1   
     4    2    5 1   
     5    2    6 1   
     6    3    7 1   
     7    3    9 1   
     8    4    8 2   
     9    4   19 1   
    10    5    8 1   
    11    6    9 1   
    12    6   10 2   
    13    7   11 1   
    14    7   20 1   
    15    7   21 1   
    16    8   22 1   
    17   11   12 ar  
    18   11   13 ar  
    19   12   14 ar  
    20   12   23 1   
    21   13   15 ar  
    22   13   24 1   
    23   14   16 ar  
    24   14   17 1   
    25   15   16 ar  
    26   15   25 1   
    27   16   18 1   
@<TRIPOS>SUBSTRUCTURE
     1 NXY         1 TEMP              0 ****  ****    0 ROOT
