@<TRIPOS>MOLECULE
NXY
   25    27     1     0     0
SMALL
bcc


@<TRIPOS>ATOM
      1 C1         -2.6780   -0.6850   -0.0120 cc        1 NXY      0.133500
      2 C2         -3.8110    0.1440   -0.0170 cd        1 NXY     -0.230700
      3 S3         -1.2410    0.1350   -0.2110 s4        1 NXY     -0.482000
      4 C4         -3.0500   -2.0540    0.1650 cc        1 NXY     -0.150000
      5 S5         -5.2120   -0.7240    0.1850 ss        1 NXY      0.036200
      6 C6         -3.5140    1.5850   -0.1980 c         1 NXY      0.771200
      7 C7         -0.0670   -1.2690   -0.1660 c3        1 NXY      0.017200
      8 C8         -4.4170   -2.1920    0.2840 cd        1 NXY     -0.195100
      9 O9         -2.2340    1.8200   -0.3180 os        1 NXY     -0.369900
     10 O10        -4.3630    2.5010   -0.2380 o         1 NXY     -0.752500
     11 C11         1.2950   -0.7630   -0.3310 ca        1 NXY      0.038700
     12 C12         2.1120   -0.5230    0.7860 ca        1 NXY     -0.146000
     13 C13         1.8170   -0.5090   -1.6120 ca        1 NXY     -0.145000
     14 C14         3.4160   -0.0530    0.6240 ca        1 NXY      0.035400
     15 C15         3.1120   -0.0370   -1.7750 ca        1 NXY     -0.110000
     16 C16         3.9250    0.1890   -0.6580 ca        1 NXY     -0.021600
     17 CL17        4.3740    0.2140    2.0080 cl        1 NXY     -0.112400
     18 CL18        5.5150    0.7550   -0.8900 cl        1 NXY     -0.116400
     19 H4         -2.3250   -2.8690    0.1990 ha        1 NXY      0.138000
     20 H7         -0.1890   -1.8040    0.8040 h1        1 NXY      0.046200
     21 H7A        -0.3360   -1.9720   -0.9890 h1        1 NXY      0.046200
     22 H8         -4.9410   -3.1330    0.4270 h4        1 NXY      0.144000
     23 H12         1.7120   -0.7010    1.7960 ha        1 NXY      0.149000
     24 H13         1.1790   -0.6750   -2.4930 ha        1 NXY      0.142000
     25 H15         3.5030    0.1640   -2.7840 ha        1 NXY      0.134000
@<TRIPOS>BOND
     1    1    2 2   
     2    1    3 1   
     3    1    4 1   
     4    2    5 1   
     5    2    6 1   
     6    3    7 1   
     7    3    9 1   
     8    4    8 2   
     9    4   19 1   
    10    5    8 1   
    11    6    9 1   
    12    6   10 2   
    13    7   11 1   
    14    7   20 1   
    15    7   21 1   
    16    8   22 1   
    17   11   12 ar  
    18   11   13 ar  
    19   12   14 ar  
    20   12   23 1   
    21   13   15 ar  
    22   13   24 1   
    23   14   16 ar  
    24   14   17 1   
    25   15   16 ar  
    26   15   25 1   
    27   16   18 1   
@<TRIPOS>SUBSTRUCTURE
     1 NXY         1 TEMP              0 ****  ****    0 ROOT
