@<TRIPOS>MOLECULE
NXZ
   49    52     1     0     0
SMALL
bcc


@<TRIPOS>ATOM
      1 N1          0.2130    0.7950   -0.0080 nh        1 NXZ     -0.742300
      2 C2          0.2630    0.5370    2.3740 c3        1 NXZ      0.104500
      3 C3          1.6300   -0.0090    1.8110 c3        1 NXZ      0.091700
      4 C4          1.4560    0.0720    0.2580 c3        1 NXZ      0.152800
      5 C5         -0.6710    0.6220    1.1370 c3        1 NXZ      0.153800
      6 C6         -3.6560    1.1970   -3.0780 cp        1 NXZ     -0.180500
      7 C7         -4.0470    1.9520   -4.1920 ca        1 NXZ     -0.094000
      8 C8         -5.3970    2.2320   -4.4010 ca        1 NXZ     -0.133500
      9 C9         -6.3600    1.7550   -3.5130 ca        1 NXZ     -0.101000
     10 C10        -5.9740    0.9920   -2.4100 ca        1 NXZ     -0.133500
     11 C11        -4.6270    0.7130   -2.1900 ca        1 NXZ     -0.094000
     12 C12        -2.2340    0.9030   -2.8370 cp        1 NXZ      0.541800
     13 C13        -1.7430    0.9330   -1.5090 ca        1 NXZ     -0.398600
     14 C14        -0.3660    0.6510   -1.3000 ca        1 NXZ      0.635200
     15 N15         0.4540    0.3290   -2.3540 nb        1 NXZ     -0.738000
     16 C16        -0.1280    0.3380   -3.5780 ca        1 NXZ      0.670900
     17 N17        -1.4200    0.6100   -3.8860 nb        1 NXZ     -0.688000
     18 N18         0.4510    1.8900    2.9990 nz        1 NXZ     -0.840600
     19 N19         1.9920   -1.3040    2.3410 n         1 NXZ     -0.473800
     20 C20         3.4230   -1.5720    2.3350 c3        1 NXZ      0.084000
     21 C21         3.8160   -2.9050    2.9610 c3        1 NXZ     -0.090400
     22 C22         2.9750   -4.0260    2.3970 c3        1 NXZ     -0.087400
     23 C23         1.5120   -3.7640    2.6580 c3        1 NXZ     -0.142400
     24 C24         1.0690   -2.3610    2.3140 c         1 NXZ      0.704500
     25 O25        -0.1340   -2.1120    2.0920 o         1 NXZ     -0.662500
     26 H2         -0.1870   -0.1360    3.1610 hx        1 NXZ      0.149700
     27 H3          2.4700    0.6960    2.0910 h1        1 NXZ      0.065700
     28 H4          2.3030    0.6550   -0.1970 h1        1 NXZ      0.091200
     29 H4A         1.4580   -0.9600   -0.1940 h1        1 NXZ      0.091200
     30 H5         -1.3880    1.4850    1.1890 h1        1 NXZ      0.095700
     31 H5A        -1.2660   -0.3390    1.1000 h1        1 NXZ      0.095700
     32 H7         -3.2940    2.3210   -4.9050 ha        1 NXZ      0.140000
     33 H8         -5.7010    2.8270   -5.2760 ha        1 NXZ      0.143000
     34 H9         -7.4260    1.9740   -3.6850 ha        1 NXZ      0.144000
     35 H10        -6.7340    0.6040   -1.7160 ha        1 NXZ      0.143000
     36 H11        -4.3300    0.0940   -1.3310 ha        1 NXZ      0.140000
     37 H13        -2.4240    1.1810   -0.6870 ha        1 NXZ      0.150000
     38 H16         0.5400    0.0850   -4.4310 h5        1 NXZ      0.069100
     39 HN18        0.8090    2.5490    2.2980 hn        1 NXZ      0.459800
     40 HN1A        1.1150    1.8280    3.7750 hn        1 NXZ      0.459800
     41 H20         3.9330   -0.7430    2.9060 h1        1 NXZ      0.048700
     42 H20A        3.8000   -1.5420    1.2700 h1        1 NXZ      0.048700
     43 H21         3.6950   -2.8600    4.0750 hc        1 NXZ      0.069200
     44 H21A        4.9010   -3.0830    2.7430 hc        1 NXZ      0.069200
     45 H22         3.2680   -5.0010    2.8690 hc        1 NXZ      0.068700
     46 H22A        3.1580   -4.1230    1.2940 hc        1 NXZ      0.068700
     47 H23         0.8730   -4.4750    2.0660 hc        1 NXZ      0.094200
     48 H23A        1.2750   -3.9230    3.7460 hc        1 NXZ      0.094200
     49 H183       -0.4480    2.2340    3.3470 hn        1 NXZ      0.459800
@<TRIPOS>BOND
     1    1    4 1   
     2    1    5 1   
     3    1   14 1   
     4    2    3 1   
     5    2    5 1   
     6    2   18 1   
     7    2   26 1   
     8    3    4 1   
     9    3   19 1   
    10    3   27 1   
    11    4   28 1   
    12    4   29 1   
    13    5   30 1   
    14    5   31 1   
    15    6    7 ar  
    16    6   11 ar  
    17    6   12 1   
    18    7    8 ar  
    19    7   32 1   
    20    8    9 ar  
    21    8   33 1   
    22    9   10 ar  
    23    9   34 1   
    24   10   11 ar  
    25   10   35 1   
    26   11   36 1   
    27   12   13 ar  
    28   12   17 ar  
    29   13   14 ar  
    30   13   37 1   
    31   14   15 ar  
    32   15   16 ar  
    33   16   17 ar  
    34   16   38 1   
    35   18   39 1   
    36   18   40 1   
    37   18   49 1   
    38   19   20 1   
    39   19   24 1   
    40   20   21 1   
    41   20   41 1   
    42   20   42 1   
    43   21   22 1   
    44   21   43 1   
    45   21   44 1   
    46   22   23 1   
    47   22   45 1   
    48   22   46 1   
    49   23   24 1   
    50   23   47 1   
    51   23   48 1   
    52   24   25 2   
@<TRIPOS>SUBSTRUCTURE
     1 NXZ         1 TEMP              0 ****  ****    0 ROOT
