@<TRIPOS>MOLECULE
NXZ
   49    52     1     0     0
SMALL
bcc


@<TRIPOS>ATOM
      1 N1          0.2130    0.7980   -0.0140 nh        1 NXZ     -0.742300
      2 C2          0.2800    0.5440    2.3680 c3        1 NXZ      0.104500
      3 C3          1.6430   -0.0030    1.7960 c3        1 NXZ      0.091700
      4 C4          1.4580    0.0760    0.2440 c3        1 NXZ      0.152800
      5 C5         -0.6620    0.6260    1.1380 c3        1 NXZ      0.153800
      6 C6         -3.6800    1.1870   -3.0560 cp        1 NXZ     -0.180500
      7 C7         -4.0810    1.9380   -4.1680 ca        1 NXZ     -0.094000
      8 C8         -5.4330    2.2150   -4.3680 ca        1 NXZ     -0.133500
      9 C9         -6.3890    1.7380   -3.4720 ca        1 NXZ     -0.101000
     10 C10        -5.9920    0.9780   -2.3700 ca        1 NXZ     -0.133500
     11 C11        -4.6430    0.7030   -2.1600 ca        1 NXZ     -0.094000
     12 C12        -2.2550    0.8960   -2.8250 cp        1 NXZ      0.541800
     13 C13        -1.7550    0.9300   -1.5000 ca        1 NXZ     -0.398600
     14 C14        -0.3760    0.6500   -1.3020 ca        1 NXZ      0.635200
     15 N15         0.4370    0.3280   -2.3610 nb        1 NXZ     -0.738000
     16 C16        -0.1540    0.3340   -3.5800 ca        1 NXZ      0.670900
     17 N17        -1.4490    0.6030   -3.8790 nb        1 NXZ     -0.688000
     18 N18         0.4720    1.8980    2.9890 n4        1 NXZ     -0.840600
     19 N19         2.0090   -1.2970    2.3260 n         1 NXZ     -0.473800
     20 C20         3.4390   -1.5660    2.3080 c3        1 NXZ      0.084000
     21 C21         3.8370   -2.8980    2.9330 c3        1 NXZ     -0.090400
     22 C22         2.9910   -4.0200    2.3780 c3        1 NXZ     -0.087400
     23 C23         1.5300   -3.7570    2.6510 c3        1 NXZ     -0.142400
     24 C24         1.0850   -2.3540    2.3080 c         1 NXZ      0.704500
     25 O25        -0.1190   -2.1050    2.0950 o         1 NXZ     -0.662500
     26 H2         -0.1640   -0.1270    3.1600 hx        1 NXZ      0.149700
     27 H3          2.4850    0.7020    2.0700 h1        1 NXZ      0.065700
     28 H4          2.3010    0.6590   -0.2170 h1        1 NXZ      0.091200
     29 H4A         1.4570   -0.9570   -0.2060 h1        1 NXZ      0.091200
     30 H5         -1.2580   -0.3350    1.1070 h1        1 NXZ      0.095700
     31 H5A        -1.3800    1.4900    1.1930 h1        1 NXZ      0.095700
     32 H7         -3.3340    2.3080   -4.8880 ha        1 NXZ      0.140000
     33 H8         -5.7450    2.8080   -5.2420 ha        1 NXZ      0.143000
     34 H9         -7.4560    1.9540   -3.6360 ha        1 NXZ      0.144000
     35 H10        -6.7470    0.5900   -1.6700 ha        1 NXZ      0.143000
     36 H11        -4.3390    0.0860   -1.3010 ha        1 NXZ      0.140000
     37 H13        -2.4300    1.1780   -0.6740 ha        1 NXZ      0.150000
     38 H16         0.5080    0.0810   -4.4380 h5        1 NXZ      0.069100
     39 HN18        0.8250    2.5560    2.2840 hn        1 NXZ      0.459800
     40 HN1A        1.1430    1.8380    3.7600 hn        1 NXZ      0.459800
     41 H20         3.8080   -1.5380    1.2410 h1        1 NXZ      0.048700
     42 H20A        3.9540   -0.7360    2.8740 h1        1 NXZ      0.048700
     43 H21         3.7260   -2.8510    4.0480 hc        1 NXZ      0.069200
     44 H21A        4.9200   -3.0770    2.7070 hc        1 NXZ      0.069200
     45 H22         3.2880   -4.9940    2.8500 hc        1 NXZ      0.068700
     46 H22A        3.1650   -4.1190    1.2740 hc        1 NXZ      0.068700
     47 H23         0.8860   -4.4680    2.0660 hc        1 NXZ      0.094200
     48 H23A        1.3020   -3.9140    3.7410 hc        1 NXZ      0.094200
     49 H183       -0.4240    2.2430    3.3430 hn        1 NXZ      0.459800
@<TRIPOS>BOND
     1    1    4 1   
     2    1    5 1   
     3    1   14 1   
     4    2    3 1   
     5    2    5 1   
     6    2   18 1   
     7    2   26 1   
     8    3    4 1   
     9    3   19 1   
    10    3   27 1   
    11    4   28 1   
    12    4   29 1   
    13    5   30 1   
    14    5   31 1   
    15    6    7 ar  
    16    6   11 ar  
    17    6   12 1   
    18    7    8 ar  
    19    7   32 1   
    20    8    9 ar  
    21    8   33 1   
    22    9   10 ar  
    23    9   34 1   
    24   10   11 ar  
    25   10   35 1   
    26   11   36 1   
    27   12   13 ar  
    28   12   17 ar  
    29   13   14 ar  
    30   13   37 1   
    31   14   15 ar  
    32   15   16 ar  
    33   16   17 ar  
    34   16   38 1   
    35   18   39 1   
    36   18   40 1   
    37   18   49 1   
    38   19   20 1   
    39   19   24 1   
    40   20   21 1   
    41   20   41 1   
    42   20   42 1   
    43   21   22 1   
    44   21   43 1   
    45   21   44 1   
    46   22   23 1   
    47   22   45 1   
    48   22   46 1   
    49   23   24 1   
    50   23   47 1   
    51   23   48 1   
    52   24   25 2   
@<TRIPOS>SUBSTRUCTURE
     1 NXZ         1 TEMP              0 ****  ****    0 ROOT
