@<TRIPOS>MOLECULE
NXZ
   48    51     1     0     0
SMALL
bcc


@<TRIPOS>ATOM
      1 N1          0.4460    1.0910    0.4050 nh        1 NXZ     -0.735300
      2 C2          2.1090    0.2080    1.9430 c3        1 NXZ      0.158500
      3 C3          2.8570    0.8680    0.7240 c3        1 NXZ      0.108700
      4 C4          1.7260    1.3670   -0.2300 c3        1 NXZ      0.181800
      5 C5          0.6150    0.1550    1.5040 c3        1 NXZ      0.150800
      6 C6         -4.2980   -0.1780   -0.1100 cp        1 NXZ     -0.154500
      7 C7         -5.5420    0.4470   -0.2620 ca        1 NXZ     -0.099000
      8 C8         -6.6910   -0.1540    0.2510 ca        1 NXZ     -0.138500
      9 C9         -6.6080   -1.3810    0.9090 ca        1 NXZ     -0.118000
     10 C10        -5.3720   -2.0110    1.0530 ca        1 NXZ     -0.138500
     11 C11        -4.2190   -1.4140    0.5470 ca        1 NXZ     -0.099000
     12 C12        -3.0710    0.4520   -0.6310 cp        1 NXZ      0.516800
     13 C13        -1.8960    0.3950    0.1410 ca        1 NXZ     -0.407600
     14 C14        -0.7120    1.0120   -0.3780 ca        1 NXZ      0.679200
     15 N15        -0.7380    1.6220   -1.6140 nb        1 NXZ     -0.753000
     16 C16        -1.9310    1.6140   -2.2530 ca        1 NXZ      0.661900
     17 N17        -3.1040    1.0730   -1.8430 nb        1 NXZ     -0.725000
     18 N18         2.3780    0.9110    3.1740 n3        1 NXZ     -0.907800
     19 N19         3.8190   -0.0130    0.0940 n         1 NXZ     -0.469800
     20 C20         5.1430    0.5330   -0.1080 c3        1 NXZ      0.101000
     21 C21         6.2040   -0.4860   -0.5110 c3        1 NXZ     -0.092400
     22 C22         5.6830   -1.3920   -1.6020 c3        1 NXZ     -0.081400
     23 C23         4.4520   -2.1220   -1.1240 c3        1 NXZ     -0.146400
     24 C24         3.4330   -1.2360   -0.4350 c         1 NXZ      0.699500
     25 O25         2.2560   -1.6380   -0.3130 o         1 NXZ     -0.658500
     26 H2          2.4580   -0.8560    2.0850 h1        1 NXZ      0.088700
     27 H3          3.4230    1.7790    1.0790 h1        1 NXZ      0.076700
     28 H4          1.8040    0.8760   -1.2400 h1        1 NXZ      0.066200
     29 H4A         1.8110    2.4790   -0.3710 h1        1 NXZ      0.066200
     30 H5         -0.0770    0.4540    2.3380 h1        1 NXZ      0.058200
     31 H5A         0.3690   -0.8980    1.1900 h1        1 NXZ      0.058200
     32 H7         -5.6140    1.4100   -0.7900 ha        1 NXZ      0.143000
     33 H8         -7.6650    0.3420    0.1310 ha        1 NXZ      0.133500
     34 H9         -7.5160   -1.8530    1.3110 ha        1 NXZ      0.132000
     35 H10        -5.3050   -2.9820    1.5650 ha        1 NXZ      0.133500
     36 H11        -3.2470   -1.9190    0.6520 ha        1 NXZ      0.143000
     37 H13        -1.9010   -0.1030    1.1170 ha        1 NXZ      0.153000
     38 H16        -1.9440    2.1130   -3.2450 h5        1 NXZ      0.049100
     39 HN18        2.0630    1.8610    3.1260 hn        1 NXZ      0.353800
     40 HN1A        1.9270    0.4550    3.9420 hn        1 NXZ      0.353800
     41 H20         5.0850    1.3310   -0.9070 h1        1 NXZ      0.043700
     42 H20A        5.4740    1.0320    0.8490 h1        1 NXZ      0.043700
     43 H21         7.1090    0.0720   -0.8640 hc        1 NXZ      0.055700
     44 H21A        6.5050   -1.0970    0.3790 hc        1 NXZ      0.055700
     45 H22         5.4390   -0.7850   -2.5140 hc        1 NXZ      0.052200
     46 H22A        6.4700   -2.1350   -1.8950 hc        1 NXZ      0.052200
     47 H23         3.9360   -2.6250   -1.9850 hc        1 NXZ      0.078200
     48 H23A        4.7370   -2.9200   -0.3860 hc        1 NXZ      0.078200
@<TRIPOS>BOND
     1    1    4 1   
     2    1    5 1   
     3    1   14 1   
     4    2    3 1   
     5    2    5 1   
     6    2   18 1   
     7    2   26 1   
     8    3    4 1   
     9    3   19 1   
    10    3   27 1   
    11    4   28 1   
    12    4   29 1   
    13    5   30 1   
    14    5   31 1   
    15    6    7 ar  
    16    6   11 ar  
    17    6   12 1   
    18    7    8 ar  
    19    7   32 1   
    20    8    9 ar  
    21    8   33 1   
    22    9   10 ar  
    23    9   34 1   
    24   10   11 ar  
    25   10   35 1   
    26   11   36 1   
    27   12   13 ar  
    28   12   17 ar  
    29   13   14 ar  
    30   13   37 1   
    31   14   15 ar  
    32   15   16 ar  
    33   16   17 ar  
    34   16   38 1   
    35   18   39 1   
    36   18   40 1   
    37   19   20 1   
    38   19   24 1   
    39   20   21 1   
    40   20   41 1   
    41   20   42 1   
    42   21   22 1   
    43   21   43 1   
    44   21   44 1   
    45   22   23 1   
    46   22   45 1   
    47   22   46 1   
    48   23   24 1   
    49   23   47 1   
    50   23   48 1   
    51   24   25 2   
@<TRIPOS>SUBSTRUCTURE
     1 NXZ         1 TEMP              0 ****  ****    0 ROOT
