@<TRIPOS>MOLECULE
NXZ
   48    45     1     0     0
SMALL
bcc


@<TRIPOS>ATOM
      1 N1         -0.2520    0.1050    0.1690 n3        1 NXZ     -0.247000
      2 C2          0.0760    0.2910    2.4530 c3        1 NXZ     -0.056000
      3 C3          1.4010    0.0950    1.6940 c3        1 NXZ     -0.037000
      4 C4          1.0360    0.1680    0.2030 c3        1 NXZ     -0.036000
      5 C5         -0.7620    0.6910    1.5620 c3        1 NXZ     -0.041000
      6 C6         -3.0400    0.6740   -3.7680 c1        1 NXZ     -0.050000
      7 C7         -4.3880    0.9300   -3.5610 c1        1 NXZ     -0.125500
      8 C8         -5.3270    0.4980   -4.4860 c1        1 NXZ     -0.125500
      9 C9         -4.9140   -0.1980   -5.6270 c1        1 NXZ     -0.125500
     10 C10        -3.5700   -0.4530   -5.8330 c1        1 NXZ     -0.125500
     11 C11        -2.6290   -0.0180   -4.9040 c1        1 NXZ     -0.085000
     12 C12        -2.0870    1.1830   -2.8760 c1        1 NXZ      0.086000
     13 C13        -1.6790    0.4300   -1.8010 c1        1 NXZ     -0.282000
     14 C14        -0.7540    0.9370   -0.9230 c2        1 NXZ      0.156000
     15 N15        -0.2500    2.1670   -1.1170 n2        1 NXZ     -0.230000
     16 C16        -0.6590    2.9180   -2.1940 c1        1 NXZ      0.001000
     17 N17        -1.5780    2.4150   -3.0670 n1        1 NXZ     -0.198000
     18 N18         0.2410    1.3550    3.5490 n3        1 NXZ     -0.331000
     19 N19         1.9570   -1.1440    1.9990 n         1 NXZ     -0.309000
     20 C20         3.2890   -1.5140    1.4470 c3        1 NXZ     -0.031000
     21 C21         4.3820   -1.3300    2.3760 c3        1 NXZ     -0.170000
     22 C22         4.1340   -1.9910    3.7120 c3        1 NXZ     -0.160000
     23 C23         2.8600   -1.5770    4.3320 c3        1 NXZ     -0.173000
     24 C24         1.6810   -1.7550    3.2710 c2        1 NXZ      0.301000
     25 O25         0.5150   -1.8750    3.6570 o         1 NXZ     -0.380000
     26 H2         -0.2250   -0.5670    2.8480 h1        1 NXZ      0.111000
     27 H3          2.0290    0.8100    1.9210 h1        1 NXZ      0.128000
     28 H4          1.4330   -0.6030   -0.2870 h1        1 NXZ      0.106000
     29 H4A         1.3490    1.0270   -0.1890 h1        1 NXZ      0.106000
     30 H5         -1.6640    0.3460    1.7650 h1        1 NXZ      0.096000
     31 H5A        -0.7750    1.6720    1.5290 h1        1 NXZ      0.096000
     32 H7         -4.6800    1.4230   -2.7500 ha        1 NXZ      0.134000
     33 H8         -6.2640    0.6770   -4.3420 ha        1 NXZ      0.134000
     34 H9         -5.5760   -0.5040   -6.2800 ha        1 NXZ      0.134000
     35 H10        -3.2770   -0.9440   -6.6390 ha        1 NXZ      0.134000
     36 H11        -1.6720   -0.1990   -5.0490 ha        1 NXZ      0.150000
     37 H13        -2.1310   -0.4100   -1.5990 ha        1 NXZ      0.156000
     38 H16        -0.2860    3.8250   -2.3350 ha        1 NXZ      0.188000
     39 HN18       -0.0110    2.1790    3.2200 hn        1 NXZ      0.158500
     40 HN1A        1.1230    1.3870    3.8150 hn        1 NXZ      0.158500
     41 H20         3.2640   -2.4790    1.1740 h1        1 NXZ      0.086000
     42 H20A        3.4590   -0.9750    0.6590 h1        1 NXZ      0.086000
     43 H21         5.2160   -1.7120    1.9750 hc        1 NXZ      0.096000
     44 H21A        4.5150   -0.3560    2.5230 hc        1 NXZ      0.096000
     45 H22         4.1210   -2.9600    3.5840 hc        1 NXZ      0.091500
     46 H22A        4.8620   -1.7650    4.3130 hc        1 NXZ      0.091500
     47 H23         2.7540   -0.6990    4.7780 hc        1 NXZ      0.118500
     48 H23A        2.7570   -2.1740    5.0960 hc        1 NXZ      0.118500
@<TRIPOS>BOND
     1    1    4 1   
     2    1    5 1   
     3    1   14 1   
     4    2    3 1   
     5    2    5 1   
     6    2   18 1   
     7    2   26 1   
     8    3    4 1   
     9    3   19 1   
    10    3   27 1   
    11    4   28 1   
    12    4   29 1   
    13    5   30 1   
    14    5   31 1   
    15    6   11 1   
    16    7    8 1   
    17    7   32 1   
    18    8   33 1   
    19    9   10 1   
    20    9   34 1   
    21   10   35 1   
    22   11   36 1   
    23   12   17 1   
    24   13   14 1   
    25   13   37 1   
    26   14   15 1   
    27   15   16 1   
    28   16   38 1   
    29   18   39 1   
    30   18   40 1   
    31   19   20 1   
    32   19   24 1   
    33   20   21 1   
    34   20   41 1   
    35   20   42 1   
    36   21   22 1   
    37   21   43 1   
    38   21   44 1   
    39   22   23 1   
    40   22   45 1   
    41   22   46 1   
    42   23   24 1   
    43   23   47 1   
    44   23   48 1   
    45   24   25 1   
@<TRIPOS>SUBSTRUCTURE
     1 NXZ         1 TEMP              0 ****  ****    0 ROOT
