@<TRIPOS>MOLECULE
NXZ
   49    52     1     0     0
SMALL
bcc


@<TRIPOS>ATOM
      1 N1          0.2210    0.7870   -0.0210 nh        1 NXZ     -0.742300
      2 C2          0.2800    0.5530    2.3630 c3        1 NXZ      0.104500
      3 C3          1.6390   -0.0120    1.7990 c3        1 NXZ      0.091700
      4 C4          1.4580    0.0540    0.2460 c3        1 NXZ      0.152800
      5 C5         -0.6590    0.6340    1.1300 c3        1 NXZ      0.153800
      6 C6         -3.6600    1.1900   -3.0760 cp        1 NXZ     -0.180500
      7 C7         -4.0510    1.9360   -4.1960 ca        1 NXZ     -0.094000
      8 C8         -5.3990    2.2260   -4.4020 ca        1 NXZ     -0.133500
      9 C9         -6.3620    1.7670   -3.5040 ca        1 NXZ     -0.101000
     10 C10        -5.9760    1.0120   -2.3950 ca        1 NXZ     -0.133500
     11 C11        -4.6310    0.7230   -2.1790 ca        1 NXZ     -0.094000
     12 C12        -2.2400    0.8850   -2.8400 cp        1 NXZ      0.541800
     13 C13        -1.7420    0.9260   -1.5140 ca        1 NXZ     -0.398600
     14 C14        -0.3660    0.6330   -1.3090 ca        1 NXZ      0.635200
     15 N15         0.4450    0.2930   -2.3640 nb        1 NXZ     -0.738000
     16 C16        -0.1420    0.2940   -3.5840 ca        1 NXZ      0.670900
     17 N17        -1.4340    0.5740   -3.8890 nb        1 NXZ     -0.688000
     18 N18         0.4840    1.9110    2.9720 n4        1 NXZ     -0.840600
     19 N19         1.9910   -1.3040    2.3410 n         1 NXZ     -0.473800
     20 C20         3.4190   -1.5870    2.3300 c3        1 NXZ      0.084000
     21 C21         3.8020   -2.9170    2.9680 c3        1 NXZ     -0.090400
     22 C22         2.9480   -4.0360    2.4200 c3        1 NXZ     -0.087400
     23 C23         1.4880   -3.7570    2.6870 c3        1 NXZ     -0.142400
     24 C24         1.0580   -2.3530    2.3300 c         1 NXZ      0.704500
     25 O25        -0.1440   -2.0950    2.1120 o         1 NXZ     -0.662500
     26 H2         -0.1720   -0.1060    3.1590 hx        1 NXZ      0.149700
     27 H3          2.4870    0.6880    2.0670 h1        1 NXZ      0.065700
     28 H4          2.3080    0.6250   -0.2190 h1        1 NXZ      0.091200
     29 H4A         1.4480   -0.9820   -0.1950 h1        1 NXZ      0.091200
     30 H5         -1.3680    1.5040    1.1760 h1        1 NXZ      0.095700
     31 H5A        -1.2640   -0.3220    1.1060 h1        1 NXZ      0.095700
     32 H7         -3.2980    2.2920   -4.9170 ha        1 NXZ      0.140000
     33 H8         -5.7020    2.8150   -5.2810 ha        1 NXZ      0.143000
     34 H9         -7.4260    1.9930   -3.6730 ha        1 NXZ      0.144000
     35 H10        -6.7370    0.6370   -1.6940 ha        1 NXZ      0.143000
     36 H11        -4.3350    0.1110   -1.3140 ha        1 NXZ      0.140000
     37 H13        -2.4170    1.1880   -0.6920 ha        1 NXZ      0.150000
     38 H16         0.5180    0.0260   -4.4390 h5        1 NXZ      0.069100
     39 HN18        1.1520    1.8510    3.7450 hn        1 NXZ      0.459800
     40 HN1A        0.8450    2.5590    2.2620 hn        1 NXZ      0.459800
     41 H20         3.7910   -1.5720    1.2630 h1        1 NXZ      0.048700
     42 H20A        3.9400   -0.7570    2.8900 h1        1 NXZ      0.048700
     43 H21         3.6890   -2.8580    4.0820 hc        1 NXZ      0.069200
     44 H21A        4.8850   -3.1080    2.7460 hc        1 NXZ      0.069200
     45 H22         3.2340   -5.0080    2.9010 hc        1 NXZ      0.068700
     46 H22A        3.1240   -4.1460    1.3180 hc        1 NXZ      0.068700
     47 H23         0.8400   -4.4670    2.1060 hc        1 NXZ      0.094200
     48 H23A        1.2560   -3.9020    3.7780 hc        1 NXZ      0.094200
     49 H183       -0.4100    2.2680    3.3210 hn        1 NXZ      0.459800
@<TRIPOS>BOND
     1    1    4 1   
     2    1    5 1   
     3    1   14 1   
     4    2    3 1   
     5    2    5 1   
     6    2   18 1   
     7    2   26 1   
     8    3    4 1   
     9    3   19 1   
    10    3   27 1   
    11    4   28 1   
    12    4   29 1   
    13    5   30 1   
    14    5   31 1   
    15    6    7 ar  
    16    6   11 ar  
    17    6   12 1   
    18    7    8 ar  
    19    7   32 1   
    20    8    9 ar  
    21    8   33 1   
    22    9   10 ar  
    23    9   34 1   
    24   10   11 ar  
    25   10   35 1   
    26   11   36 1   
    27   12   13 ar  
    28   12   17 ar  
    29   13   14 ar  
    30   13   37 1   
    31   14   15 ar  
    32   15   16 ar  
    33   16   17 ar  
    34   16   38 1   
    35   18   39 1   
    36   18   40 1   
    37   18   49 1   
    38   19   20 1   
    39   19   24 1   
    40   20   21 1   
    41   20   41 1   
    42   20   42 1   
    43   21   22 1   
    44   21   43 1   
    45   21   44 1   
    46   22   23 1   
    47   22   45 1   
    48   22   46 1   
    49   23   24 1   
    50   23   47 1   
    51   23   48 1   
    52   24   25 2   
@<TRIPOS>SUBSTRUCTURE
     1 NXZ         1 TEMP              0 ****  ****    0 ROOT
