@<TRIPOS>MOLECULE
NYB
   28    27     1     0     0
SMALL
bcc


@<TRIPOS>ATOM
      1 N           1.8320   -1.4520    0.7680 n3        1 NYB     -0.799200
      2 CA          1.3740   -0.3460   -0.0720 c3        1 NYB      0.031500
      3 CB          0.2180    0.4140    0.5620 c3        1 NYB      0.039700
      4 SG         -1.2770   -0.5600    0.5610 ss        1 NYB     -0.358200
      5 CD         -2.5290    0.6820    0.2790 c3        1 NYB      0.005400
      6 CE1        -2.6920    1.5800    1.4790 c3        1 NYB     -0.086100
      7 CE2        -3.8190   -0.0450   -0.0430 c3        1 NYB     -0.059400
      8 CF         -3.8350   -0.5790   -1.4530 c3        1 NYB     -0.095100
      9 CN          2.6090   -2.4200    0.0330 c3        1 NYB      0.156100
     10 C           2.4800    0.7200   -0.4130 c         1 NYB      0.893600
     11 O           3.5970    0.6310    0.1670 o         1 NYB     -0.835800
     12 OXT         2.1730    1.6050   -1.2580 o         1 NYB     -0.835800
     13 H           2.4150   -1.0560    1.4910 hn        1 NYB      0.356800
     14 HA          1.0210   -0.7680   -1.0570 h1        1 NYB      0.056700
     15 HN1         1.9550   -2.9150   -0.7320 h1        1 NYB      0.016700
     16 HN2         3.4980   -1.9770   -0.4940 h1        1 NYB      0.016700
     17 HN3         2.9730   -3.2030    0.7500 h1        1 NYB      0.016700
     18 HB1         0.4520    0.7010    1.6140 h1        1 NYB      0.067700
     19 HB2         0.0580    1.3470   -0.0360 h1        1 NYB      0.067700
     20 HD         -2.2180    1.3060   -0.6010 h1        1 NYB      0.069700
     21 HE11       -3.0410    0.9960    2.3640 hc        1 NYB      0.033033
     22 HE12       -1.7150    2.0600    1.7330 hc        1 NYB      0.033033
     23 HE13       -3.4380    2.3850    1.2700 hc        1 NYB      0.033033
     24 HE21       -3.9570   -0.8910    0.6830 hc        1 NYB      0.035700
     25 HE22       -4.6830    0.6570    0.1000 hc        1 NYB      0.035700
     26 HF1        -3.7960    0.2570   -2.1920 hc        1 NYB      0.035367
     27 HF2        -2.9510   -1.2420   -1.6240 hc        1 NYB      0.035367
     28 HF3        -4.7670   -1.1670   -1.6330 hc        1 NYB      0.035367
@<TRIPOS>BOND
     1    1    2 1   
     2    1    9 1   
     3    1   13 1   
     4    2    3 1   
     5    2   10 1   
     6    2   14 1   
     7    3    4 1   
     8    3   18 1   
     9    3   19 1   
    10    4    5 1   
    11    5    6 1   
    12    5    7 1   
    13    5   20 1   
    14    6   21 1   
    15    6   22 1   
    16    6   23 1   
    17    7    8 1   
    18    7   24 1   
    19    7   25 1   
    20    8   26 1   
    21    8   27 1   
    22    8   28 1   
    23    9   15 1   
    24    9   16 1   
    25    9   17 1   
    26   10   11 1   
    27   10   12 1   
@<TRIPOS>SUBSTRUCTURE
     1 NYB         1 TEMP              0 ****  ****    0 ROOT
