@<TRIPOS>MOLECULE
NYC
   42    44     1     0     0
SMALL
bcc


@<TRIPOS>ATOM
      1 C25        -4.4310    2.6110   -0.6850 c3        1 NYC     -0.141100
      2 C23        -3.0060    2.0940   -0.6280 c3        1 NYC      0.096100
      3 O24        -2.0700    3.0900   -1.0110 oh        1 NYC     -0.599800
      4 C22        -2.7040    1.5340    0.7960 c3        1 NYC      0.097200
      5 N26        -2.2870    2.5140    1.7820 n3        1 NYC     -0.889800
      6 C14        -1.6730    0.4250    0.6500 cc        1 NYC      0.504900
      7 N13        -0.3620    0.6310    0.4820 nd        1 NYC     -0.650300
      8 C12         0.2410   -0.6560    0.3610 cd        1 NYC      0.007400
      9 C11         1.5360   -0.9800    0.1680 ce        1 NYC     -0.025000
     10 C7          2.6270   -0.0720    0.0250 cc        1 NYC     -0.107200
     11 C8          2.5860    1.3250   -0.0810 cd        1 NYC     -0.046100
     12 N9          3.8770    1.8350   -0.2140 na        1 NYC     -0.201400
     13 C6          4.7820    0.7700   -0.2080 ca        1 NYC     -0.055200
     14 C5          6.1800    0.7510   -0.3150 ca        1 NYC     -0.150000
     15 C4          6.8140   -0.4820   -0.2710 ca        1 NYC     -0.126000
     16 C3          6.0900   -1.6770   -0.1230 ca        1 NYC     -0.164000
     17 C2          4.7050   -1.6730   -0.0150 ca        1 NYC     -0.083000
     18 C1          4.0280   -0.4560   -0.0560 ca        1 NYC     -0.075800
     19 C16        -0.8610   -1.7000    0.4820 c         1 NYC      0.671700
     20 O17        -0.7620   -2.9330    0.4530 o         1 NYC     -0.615500
     21 N15        -2.0430   -0.9460    0.6920 n         1 NYC     -0.381300
     22 C18        -3.3730   -1.4860    0.7020 c3        1 NYC     -0.036000
     23 C          -4.3920   -0.7900   -0.2470 c         1 NYC      0.893600
     24 O          -4.1320   -0.7210   -1.4770 o         1 NYC     -0.827300
     25 OXT        -5.4350   -0.3270    0.2970 o         1 NYC     -0.827300
     26 H251       -4.6190    3.0910   -1.6740 hc        1 NYC      0.053367
     27 H252       -5.1330    1.7410   -0.5610 hc        1 NYC      0.053367
     28 H253       -4.6200    3.3600    0.1190 hc        1 NYC      0.053367
     29 H23        -2.8760    1.2620   -1.3850 h1        1 NYC      0.137700
     30 H24        -2.3280    3.9110   -0.5760 ho        1 NYC      0.372000
     31 H22        -3.6730    1.0720    1.1760 h1        1 NYC      0.130700
     32 H261       -1.3970    2.9050    1.5360 hn        1 NYC      0.343300
     33 H262       -2.9650    3.2540    1.8010 hn        1 NYC      0.343300
     34 H11         1.7910   -2.0550    0.1110 ha        1 NYC      0.140000
     35 H8          1.7170    1.9920   -0.0730 h4        1 NYC      0.204000
     36 HN9         4.1130    2.7810   -0.3400 hn        1 NYC      0.293700
     37 H5          6.7520    1.6800   -0.4310 ha        1 NYC      0.123000
     38 H4          7.9100   -0.5280   -0.3530 ha        1 NYC      0.118000
     39 H3          6.6350   -2.6310   -0.0930 ha        1 NYC      0.121000
     40 H2          4.1440   -2.6110    0.1000 ha        1 NYC      0.138000
     41 H181       -3.3050   -2.5680    0.4000 h1        1 NYC      0.052700
     42 H182       -3.7680   -1.4240    1.7550 h1        1 NYC      0.052700
@<TRIPOS>BOND
     1    1    2 1   
     2    1   26 1   
     3    1   27 1   
     4    1   28 1   
     5    2    3 1   
     6    2    4 1   
     7    2   29 1   
     8    3   30 1   
     9    4    5 1   
    10    4    6 1   
    11    4   31 1   
    12    5   32 1   
    13    5   33 1   
    14    6    7 2   
    15    6   21 1   
    16    7    8 1   
    17    8    9 2   
    18    8   19 1   
    19    9   10 1   
    20    9   34 1   
    21   10   11 2   
    22   10   18 1   
    23   11   12 1   
    24   11   35 1   
    25   12   13 1   
    26   12   36 1   
    27   13   14 ar  
    28   13   18 ar  
    29   14   15 ar  
    30   14   37 1   
    31   15   16 ar  
    32   15   38 1   
    33   16   17 ar  
    34   16   39 1   
    35   17   18 ar  
    36   17   40 1   
    37   19   20 2   
    38   19   21 1   
    39   21   22 1   
    40   22   23 1   
    41   22   41 1   
    42   22   42 1   
    43   23   24 1   
    44   23   25 1   
@<TRIPOS>SUBSTRUCTURE
     1 NYC         1 TEMP              0 ****  ****    0 ROOT
