@<TRIPOS>MOLECULE
NYC
   42    37     1     0     0
SMALL
bcc


@<TRIPOS>ATOM
      1 C25        -4.3230    0.2620    0.0650 c3        1 NYC     -0.205000
      2 C23        -2.8610   -0.0540   -0.1330 c3        1 NYC      0.042000
      3 O24        -2.6550   -1.4360    0.0310 oh        1 NYC     -0.341000
      4 C22        -2.4410    0.3580   -1.5280 c3        1 NYC      0.010000
      5 N26        -2.9330   -0.5910   -2.4740 n3        1 NYC     -0.336000
      6 C14        -0.9390    0.4090   -1.6060 c2        1 NYC      0.085000
      7 N13        -0.2100    0.2770   -0.5000 n1        1 NYC     -0.256000
      8 C12         0.9930    0.9090   -0.5580 c1        1 NYC     -0.111000
      9 C11         1.9700    0.9560    0.4100 c1        1 NYC     -0.027000
     10 C7          1.7580    0.2340    1.7520 c1        1 NYC     -0.091000
     11 C8          1.0410    0.7800    2.8020 c1        1 NYC     -0.016500
     12 N9          1.3360    0.0620    3.9370 n2        1 NYC     -0.222000
     13 C6          2.2410   -0.9360    3.5930 c1        1 NYC     -0.016500
     14 C5          2.8900   -1.9310    4.3600 c1        1 NYC     -0.129500
     15 C4          3.7900   -2.8030    3.7530 c1        1 NYC     -0.129500
     16 C3          4.0530   -2.6950    2.3900 c1        1 NYC     -0.129500
     17 C2          3.4140   -1.7150    1.6310 c1        1 NYC     -0.129500
     18 C1          2.4990   -0.8290    2.2470 c1        1 NYC     -0.091000
     19 C16         1.0150    1.5750   -1.9870 c2        1 NYC      0.307000
     20 O17         1.8980    2.2450   -2.4800 o         1 NYC     -0.331000
     21 N15        -0.3120    1.1770   -2.6140 n         1 NYC     -0.257000
     22 C18        -0.9790    1.8600   -3.7030 c3        1 NYC     -0.120000
     23 C          -0.1800    1.6780   -4.9810 c2        1 NYC      0.325000
     24 O           0.3820    0.5760   -5.2200 o         1 NYC     -0.562000
     25 OXT        -0.1320    2.6060   -5.8310 o         1 NYC     -0.562000
     26 H251       -4.4910    0.4540    1.0140 hc        1 NYC      0.082000
     27 H252       -4.8640   -0.5060   -0.2140 hc        1 NYC      0.082000
     28 H253       -4.5650    1.0450   -0.4740 hc        1 NYC      0.082000
     29 H23        -2.3290    0.4350    0.5270 h1        1 NYC      0.067000
     30 H24        -3.0040   -1.6980    0.8120 ho        1 NYC      0.213000
     31 H22        -2.8070    1.2390   -1.7310 h1        1 NYC      0.145000
     32 H261       -2.2510   -0.8390   -3.0430 hn        1 NYC      0.174500
     33 H262       -3.6150   -0.2160   -2.9580 hn        1 NYC      0.174500
     34 H11         2.7960    1.4470    0.2460 ha        1 NYC      0.142000
     35 H8          0.4790    1.5790    2.7580 DU        1 NYC      0.220500
     36 HN9         0.9990    0.2140    4.7680 DU        1 NYC      0.220500
     37 H5          2.7060   -2.0080    5.3190 ha        1 NYC      0.125750
     38 H4          4.2220   -3.5130    4.2820 ha        1 NYC      0.125750
     39 H3          4.6890   -3.3110    1.9620 ha        1 NYC      0.125750
     40 H2          3.6540   -1.5920    0.6960 ha        1 NYC      0.125750
     41 H181       -1.0500    2.8140   -3.4960 h1        1 NYC      0.095000
     42 H182       -1.8840    1.4810   -3.8250 h1        1 NYC      0.095000
@<TRIPOS>BOND
     1    1    2 1   
     2    1   26 1   
     3    1   27 1   
     4    1   28 1   
     5    2    3 1   
     6    2    4 1   
     7    2   29 1   
     8    3   30 1   
     9    4    5 1   
    10    4    6 1   
    11    4   31 1   
    12    5   32 1   
    13    5   33 1   
    14    6    7 1   
    15    6   21 1   
    16    8    9 1   
    17    8   19 1   
    18    9   34 1   
    19   10   11 1   
    20   10   18 1   
    21   11   12 1   
    22   12   13 1   
    23   13   18 1   
    24   14   15 1   
    25   14   37 1   
    26   15   38 1   
    27   16   17 1   
    28   16   39 1   
    29   17   40 1   
    30   19   20 1   
    31   19   21 1   
    32   21   22 1   
    33   22   23 1   
    34   22   41 1   
    35   22   42 1   
    36   23   24 1   
    37   23   25 1   
@<TRIPOS>SUBSTRUCTURE
     1 NYC         1 TEMP              0 ****  ****    0 ROOT
