@<TRIPOS>MOLECULE
NYG
   39    40     1     0     0
SMALL
bcc


@<TRIPOS>ATOM
      1 OD1         5.3100   -1.9010   -2.5410 o         1 NYG     -0.675100
      2 CG1         4.9900   -0.7880   -3.0260 c         1 NYG      0.667100
      3 ND1         4.0160   -0.7050   -3.9790 n         1 NYG     -0.652000
      4 CB1         5.7570    0.4560   -2.6170 c3        1 NYG     -0.130400
      5 CA1         4.9320    1.7510   -2.5950 c3        1 NYG      0.133200
      6 N           5.7250    2.8620   -2.1090 n3        1 NYG     -0.905800
      7 C1          3.6430    1.5500   -1.7960 cc        1 NYG      0.437900
      8 N3          2.6120    2.5350   -1.7880 n         1 NYG     -0.382300
      9 CA3         2.4030    3.5440   -2.7890 c3        1 NYG     -0.051000
     10 C           2.4010    3.1190   -4.2860 c         1 NYG      0.910600
     11 O           2.6580    1.9230   -4.6050 o         1 NYG     -0.830300
     12 N2          3.4060    0.5020   -1.0070 nd        1 NYG     -0.632300
     13 CA2         2.1010    0.6770   -0.4610 cd        1 NYG      0.017400
     14 C2          1.5560    1.9990   -0.9940 c         1 NYG      0.664700
     15 O2          0.4740    2.5380   -0.7420 o         1 NYG     -0.601500
     16 CB2         1.4030   -0.1150    0.3740 ce        1 NYG     -0.039200
     17 CG2         1.8170   -1.3770    0.9520 ca        1 NYG     -0.088800
     18 CD2         2.8120   -2.1910    0.3890 ca        1 NYG     -0.068500
     19 CE2         3.1620   -3.3980    0.9890 ca        1 NYG     -0.196000
     20 CZ          2.5140   -3.8030    2.1630 ca        1 NYG      0.116100
     21 OH          2.8140   -4.9840    2.8080 oh        1 NYG     -0.510100
     22 CE1         1.5100   -3.0080    2.7390 ca        1 NYG     -0.196000
     23 CD1         1.1710   -1.8090    2.1270 ca        1 NYG     -0.068500
     24 OXT         2.1500    4.0420   -5.1030 o         1 NYG     -0.830300
     25 HD11        3.6420    0.1770   -4.2590 hn        1 NYG      0.328500
     26 HD12        3.4680   -1.5090   -4.1590 hn        1 NYG      0.328500
     27 HB11        6.6050    0.5860   -3.3430 hc        1 NYG      0.073700
     28 HB12        6.1960    0.2510   -1.6050 hc        1 NYG      0.073700
     29 HA1         4.6110    2.0030   -3.6600 h1        1 NYG      0.141700
     30 HN1         5.2340    3.7250   -2.2430 hn        1 NYG      0.355300
     31 HN2         5.9460    2.7520   -1.1400 hn        1 NYG      0.355300
     32 HA31        3.2030    4.3270   -2.6620 h1        1 NYG      0.055700
     33 HA32        1.4050    4.0240   -2.5800 h1        1 NYG      0.055700
     34 HB2         0.3970    0.2390    0.6730 ha        1 NYG      0.138000
     35 HD2         3.3330   -1.8950   -0.5390 ha        1 NYG      0.157000
     36 HE2         3.9450   -4.0260    0.5400 ha        1 NYG      0.139000
     37 HOH         3.5200   -5.4180    2.3080 ho        1 NYG      0.415000
     38 HE1         1.0100   -3.3420    3.6570 ha        1 NYG      0.139000
     39 HD1         0.3830   -1.1810    2.5720 ha        1 NYG      0.157000
@<TRIPOS>BOND
     1    1    2 2   
     2    2    3 1   
     3    2    4 1   
     4    3   25 1   
     5    3   26 1   
     6    4    5 1   
     7    4   27 1   
     8    4   28 1   
     9    5    6 1   
    10    5    7 1   
    11    5   29 1   
    12    6   30 1   
    13    6   31 1   
    14    7    8 1   
    15    7   12 2   
    16    8    9 1   
    17    8   14 1   
    18    9   10 1   
    19    9   32 1   
    20    9   33 1   
    21   10   11 1   
    22   10   24 1   
    23   12   13 1   
    24   13   14 1   
    25   13   16 2   
    26   14   15 2   
    27   16   17 1   
    28   16   34 1   
    29   17   18 ar  
    30   17   23 ar  
    31   18   19 ar  
    32   18   35 1   
    33   19   20 ar  
    34   19   36 1   
    35   20   21 1   
    36   20   22 ar  
    37   21   37 1   
    38   22   23 ar  
    39   22   38 1   
    40   23   39 1   
@<TRIPOS>SUBSTRUCTURE
     1 NYG         1 TEMP              0 ****  ****    0 ROOT
