@<TRIPOS>MOLECULE
NYG
   39    35     1     0     0
SMALL
bcc


@<TRIPOS>ATOM
      1 OD1        -1.5710    0.2180    5.3600 o         1 NYG     -0.450000
      2 CG1        -1.2790   -0.9070    5.0060 c1        1 NYG      0.294000
      3 ND1        -1.4400   -1.9960    5.9000 n3        1 NYG     -0.389000
      4 CB1        -0.7240   -1.1430    3.6190 c2        1 NYG     -0.231000
      5 CA1        -1.0550    0.0390    2.7360 c3        1 NYG      0.019000
      6 N          -2.4170   -0.0390    2.3310 n3        1 NYG     -0.332000
      7 C1         -0.1640    0.0210    1.5160 c2        1 NYG      0.133000
      8 N3          0.1990    1.2300    0.8910 n         1 NYG     -0.275000
      9 CA3         0.7380    2.3760    1.5390 c3        1 NYG     -0.091000
     10 C           0.6590    3.5650    0.6070 c2        1 NYG      0.307000
     11 O          -0.2820    4.3940    0.7230 o         1 NYG     -0.567500
     12 N2         -0.1850   -1.0180    0.6950 n1        1 NYG     -0.226000
     13 CA2         0.1470   -0.7120   -0.5800 c1        1 NYG     -0.087000
     14 C2          0.4330    0.8300   -0.5480 c2        1 NYG      0.312000
     15 O2          0.7670    1.5440   -1.4720 o         1 NYG     -0.331000
     16 CB2         0.2160   -1.5430   -1.6380 c1        1 NYG     -0.063000
     17 CG2         0.6100   -1.0070   -2.9980 c1        1 NYG     -0.074000
     18 CD2         1.9330   -1.0610   -3.4070 c2        1 NYG     -0.055000
     19 CE2         2.2850   -0.6240   -4.6740 c1        1 NYG     -0.160000
     20 CZ          1.3140   -0.1320   -5.5320 c1        1 NYG      0.071000
     21 OH          1.6790    0.3570   -6.8000 oh        1 NYG     -0.258000
     22 CE1        -0.0090   -0.0770   -5.1230 c1        1 NYG     -0.225000
     23 CD1        -0.3610   -0.5150   -3.8560 c1        1 NYG     -0.085000
     24 OXT         1.5490    3.7420   -0.2660 o         1 NYG     -0.567500
     25 HD11       -1.8300   -1.8640    6.7160 hn        1 NYG      0.240500
     26 HD12       -1.1580   -2.8320    5.6580 hn        1 NYG      0.240500
     27 HB11       -1.1220   -1.9530    3.2420 ha        1 NYG      0.134000
     28 HB12        0.2470   -1.2500    3.6690 ha        1 NYG      0.134000
     29 HA1        -0.9100    0.8680    3.2340 h1        1 NYG      0.161000
     30 HN1        -2.7680   -0.8440    2.5920 hn        1 NYG      0.154500
     31 HN2        -2.8900    0.6410    2.7200 hn        1 NYG      0.154500
     32 HA31        0.2240    2.5640    2.3520 h1        1 NYG      0.098000
     33 HA32        1.6740    2.2080    1.7760 h1        1 NYG      0.098000
     34 HB2         0.0130   -2.4910   -1.5280 ha        1 NYG      0.137000
     35 HD2         2.6170   -1.4080   -2.8030 ha        1 NYG      0.168000
     36 HE2         3.2170   -0.6620   -4.9620 ha        1 NYG      0.149000
     37 HOH         1.6280   -0.3010   -7.3960 ho        1 NYG      0.209000
     38 HE1        -0.6950    0.2570   -5.7320 ha        1 NYG      0.123000
     39 HD1        -1.2930   -0.4760   -3.5670 ha        1 NYG      0.130000
@<TRIPOS>BOND
     1    1    2 1   
     2    2    3 1   
     3    3   25 1   
     4    3   26 1   
     5    4    5 1   
     6    4   27 1   
     7    4   28 1   
     8    5    6 1   
     9    5    7 1   
    10    5   29 1   
    11    6   30 1   
    12    6   31 1   
    13    7    8 1   
    14    7   12 1   
    15    8    9 1   
    16    8   14 1   
    17    9   10 1   
    18    9   32 1   
    19    9   33 1   
    20   10   11 1   
    21   10   24 1   
    22   13   14 1   
    23   13   16 1   
    24   14   15 1   
    25   16   34 1   
    26   17   18 1   
    27   17   23 1   
    28   18   19 1   
    29   18   35 1   
    30   19   36 1   
    31   20   21 1   
    32   20   22 1   
    33   21   37 1   
    34   22   38 1   
    35   23   39 1   
@<TRIPOS>SUBSTRUCTURE
     1 NYG         1 TEMP              0 ****  ****    0 ROOT
