@<TRIPOS>MOLECULE
NYH
   18    16     1     0     0
SMALL
bcc


@<TRIPOS>ATOM
      1 C1A        -0.6160   -0.3120   -0.9950 c1        1 NYH     -0.153000
      2 N1A        -1.3250   -0.5090   -2.2080 n2        1 NYH      0.447400
      3 O1N        -1.4560    0.4150   -2.9970 o         1 NYH     -0.309700
      4 O2N        -1.8590   -1.7330   -2.4950 o         1 NYH     -0.309700
      5 C2A         1.0450   -0.3120   -0.9950 c1        1 NYH     -0.065000
      6 C3A         1.6650   -0.3120    0.2870 c2        1 NYH     -0.143000
      7 C4A         0.8180    0.5240    1.3800 c3        1 NYH     -0.163000
      8 C5A        -0.3740    0.2380    1.4680 c3        1 NYH     -0.156000
      9 C6A        -1.2410    0.3750    0.0980 c3        1 NYH     -0.119000
     10 H2A         1.5330   -0.6410   -1.7740 ha        1 NYH      0.162000
     11 H3A         1.8620   -1.2380    0.5210 ha        1 NYH      0.108000
     12 H3AA        2.5650    0.0640    0.2600 ha        1 NYH      0.108000
     13 H4A         0.8870    1.4720    1.1580 hc        1 NYH      0.091000
     14 H4AA        1.2290    0.3840    2.2540 hc        1 NYH      0.091000
     15 H5A        -0.7770    0.8190    2.1410 hc        1 NYH      0.092000
     16 H5AA       -0.4430   -0.6840    1.7790 hc        1 NYH      0.092000
     17 H6A        -2.1690    0.1420    0.2910 hc        1 NYH      0.113500
     18 H6AA       -1.3430    1.3080   -0.1720 hc        1 NYH      0.113500
@<TRIPOS>BOND
     1    1    5 1   
     2    1    9 1   
     3    2    3 2   
     4    2    4 2   
     5    5   10 1   
     6    6    7 1   
     7    6   11 1   
     8    6   12 1   
     9    7    8 1   
    10    7   13 1   
    11    7   14 1   
    12    8    9 1   
    13    8   15 1   
    14    8   16 1   
    15    9   17 1   
    16    9   18 1   
@<TRIPOS>SUBSTRUCTURE
     1 NYH         1 TEMP              0 ****  ****    0 ROOT
