@<TRIPOS>MOLECULE
NYH
   18    18     1     0     0
SMALL
bcc


@<TRIPOS>ATOM
      1 C1A        -0.2560    0.0220   -0.0070 c2        1 NYH     -0.184300
      2 N1A        -1.7450   -0.0290   -0.0110 no        1 NYH      0.283100
      3 O1N        -2.3670    1.0010   -0.0420 o         1 NYH     -0.214000
      4 O2N        -2.2900   -1.0990    0.0180 o         1 NYH     -0.214000
      5 C2A         0.3790    1.2110   -0.0530 c2        1 NYH     -0.069200
      6 C3A         1.8560    1.3220   -0.0550 c3        1 NYH     -0.060200
      7 C4A         2.5520    0.0330    0.3350 c3        1 NYH     -0.084400
      8 C5A         1.9020   -1.1630   -0.3260 c3        1 NYH     -0.077400
      9 C6A         0.4450   -1.2950    0.0710 c3        1 NYH     -0.036200
     10 H2A        -0.1790    2.1640   -0.1050 ha        1 NYH      0.162000
     11 H3A         2.1770    1.6310   -1.0890 hc        1 NYH      0.068700
     12 H3AA        2.1640    2.1440    0.6470 hc        1 NYH      0.068700
     13 H4A         3.6320    0.0890    0.0400 hc        1 NYH      0.051700
     14 H4AA        2.5150   -0.0910    1.4500 hc        1 NYH      0.051700
     15 H5A         1.9810   -1.0630   -1.4410 hc        1 NYH      0.052700
     16 H5AA        2.4450   -2.0990   -0.0330 hc        1 NYH      0.052700
     17 H6A         0.3640   -1.6810    1.1240 hc        1 NYH      0.074200
     18 H6AA       -0.0600   -2.0480   -0.5940 hc        1 NYH      0.074200
@<TRIPOS>BOND
     1    1    2 1   
     2    1    5 2   
     3    1    9 1   
     4    2    3 1   
     5    2    4 1   
     6    5    6 1   
     7    5   10 1   
     8    6    7 1   
     9    6   11 1   
    10    6   12 1   
    11    7    8 1   
    12    7   13 1   
    13    7   14 1   
    14    8    9 1   
    15    8   15 1   
    16    8   16 1   
    17    9   17 1   
    18    9   18 1   
@<TRIPOS>SUBSTRUCTURE
     1 NYH         1 TEMP              0 ****  ****    0 ROOT
