@<TRIPOS>MOLECULE
NYH
   18    18     1     0     0
SMALL
bcc


@<TRIPOS>ATOM
      1 C1A        -0.0010   -0.0090   -0.0230 c2        1 NYH     -0.184300
      2 N1A        -0.7440   -0.0340   -1.3140 no        1 NYH      0.283100
      3 O1N        -0.1250   -0.0240   -2.3460 o         1 NYH     -0.214000
      4 O2N        -1.9450   -0.0640   -1.2940 o         1 NYH     -0.214000
      5 C2A         1.3480    0.0110   -0.0200 c2        1 NYH     -0.069200
      6 C3A         2.1380    0.0330    1.2330 c3        1 NYH     -0.060200
      7 C4A         1.3080    0.3700    2.4560 c3        1 NYH     -0.084400
      8 C5A        -0.0190   -0.3570    2.4350 c3        1 NYH     -0.077400
      9 C6A        -0.8380    0.0140    1.2140 c3        1 NYH     -0.036200
     10 H2A         1.9290   -0.0020   -0.9600 ha        1 NYH      0.162000
     11 H3A         2.9730    0.7780    1.1270 hc        1 NYH      0.068700
     12 H3AA        2.6110   -0.9800    1.3600 hc        1 NYH      0.068700
     13 H4A         1.8790    0.0910    3.3800 hc        1 NYH      0.051700
     14 H4AA        1.1270    1.4760    2.4940 hc        1 NYH      0.051700
     15 H5A         0.1600   -1.4650    2.4450 hc        1 NYH      0.052700
     16 H5AA       -0.6050   -0.1020    3.3560 hc        1 NYH      0.052700
     17 H6A        -1.7060   -0.6930    1.1130 hc        1 NYH      0.074200
     18 H6AA       -1.2670    1.0460    1.3360 hc        1 NYH      0.074200
@<TRIPOS>BOND
     1    1    2 1   
     2    1    5 2   
     3    1    9 1   
     4    2    3 1   
     5    2    4 1   
     6    5    6 1   
     7    5   10 1   
     8    6    7 1   
     9    6   11 1   
    10    6   12 1   
    11    7    8 1   
    12    7   13 1   
    13    7   14 1   
    14    8    9 1   
    15    8   15 1   
    16    8   16 1   
    17    9   17 1   
    18    9   18 1   
@<TRIPOS>SUBSTRUCTURE
     1 NYH         1 TEMP              0 ****  ****    0 ROOT
