@<TRIPOS>MOLECULE
NYJ
   34    36     1     0     0
SMALL
bcc


@<TRIPOS>ATOM
      1 CAI        -0.0010   -0.3580    0.1840 c3        1 NYJ     -0.044900
      2 CAH         1.4510   -0.0970    0.0460 cc        1 NYJ     -0.136400
      3 CAG         2.3200   -0.0230    1.2080 ca        1 NYJ      0.031200
      4 CAB         1.8800    0.0860    2.5520 ca        1 NYJ     -0.086300
      5 CAA         0.4670    0.3110    2.9460 c3        1 NYJ     -0.052800
      6 CAC         2.8110    0.0330    3.5910 ca        1 NYJ     -0.102000
      7 CAD         4.1820   -0.0800    3.3500 ca        1 NYJ     -0.150000
      8 CAE         4.6380   -0.1030    2.0420 ca        1 NYJ     -0.070000
      9 CAF         3.7180   -0.0590    0.9840 ca        1 NYJ     -0.156600
     10 CAL         4.2730   -0.0200   -0.3820 c         1 NYJ      0.702100
     11 OAM         5.4910   -0.0390   -0.6520 o         1 NYJ     -0.643500
     12 NAK         3.3620    0.0690   -1.4330 ns        1 NYJ     -0.448100
     13 CAJ         1.9910   -0.0070   -1.2210 cd        1 NYJ      0.099400
     14 CAN         1.1580    0.0090   -2.4420 ca        1 NYJ     -0.079800
     15 CAO         0.1800    0.9970   -2.6120 ca        1 NYJ     -0.107000
     16 CAP        -0.5870    1.0250   -3.7750 ca        1 NYJ     -0.132000
     17 CAQ        -0.3860    0.0700   -4.7710 ca        1 NYJ     -0.116000
     18 CAR         0.5870   -0.9160   -4.6040 ca        1 NYJ     -0.132000
     19 CAS         1.3610   -0.9470   -3.4450 ca        1 NYJ     -0.107000
     20 HAI1       -0.1820   -1.1480    0.9550 hc        1 NYJ      0.045367
     21 HAI2       -0.4410   -0.7290   -0.7770 hc        1 NYJ      0.045367
     22 HAI3       -0.5540    0.5710    0.4690 hc        1 NYJ      0.045367
     23 HAA1        0.4050    0.6550    4.0100 hc        1 NYJ      0.045033
     24 HAA2       -0.1310   -0.6300    2.8660 hc        1 NYJ      0.045033
     25 HAA3       -0.0030    1.1020    2.3120 hc        1 NYJ      0.045033
     26 HAC         2.4580    0.0920    4.6340 ha        1 NYJ      0.132000
     27 HAD         4.8890   -0.1310    4.1900 ha        1 NYJ      0.139000
     28 HAE         5.7150   -0.1490    1.8110 ha        1 NYJ      0.160000
     29 HAK         3.7050    0.1400   -2.3650 hn        1 NYJ      0.335500
     30 HAO         0.0200    1.7460   -1.8210 ha        1 NYJ      0.142000
     31 HAS         2.1240   -1.7300   -3.3160 ha        1 NYJ      0.142000
     32 HAP        -1.3530    1.8040   -3.9060 ha        1 NYJ      0.137500
     33 HAQ        -0.9930    0.0940   -5.6890 ha        1 NYJ      0.136000
     34 HAR         0.7460   -1.6720   -5.3880 ha        1 NYJ      0.137500
@<TRIPOS>BOND
     1    1    2 1   
     2    1   20 1   
     3    1   21 1   
     4    1   22 1   
     5    2    3 1   
     6    2   13 2   
     7    3    4 ar  
     8    3    9 ar  
     9    4    5 1   
    10    4    6 ar  
    11    5   23 1   
    12    5   24 1   
    13    5   25 1   
    14    6    7 ar  
    15    6   26 1   
    16    7    8 ar  
    17    7   27 1   
    18    8    9 ar  
    19    8   28 1   
    20    9   10 1   
    21   10   11 2   
    22   10   12 1   
    23   12   13 1   
    24   12   29 1   
    25   13   14 1   
    26   14   15 ar  
    27   14   19 ar  
    28   15   16 ar  
    29   15   30 1   
    30   16   17 ar  
    31   16   32 1   
    32   17   18 ar  
    33   17   33 1   
    34   18   19 ar  
    35   18   34 1   
    36   19   31 1   
@<TRIPOS>SUBSTRUCTURE
     1 NYJ         1 TEMP              0 ****  ****    0 ROOT
