@<TRIPOS>MOLECULE
NYJ
   34    36     1     0     0
SMALL
bcc


@<TRIPOS>ATOM
      1 CAI        -0.0010   -0.3580    0.1840 c3        1 NYJ     -0.044900
      2 CAH         1.4510   -0.0980    0.0460 cc        1 NYJ     -0.136400
      3 CAG         2.3210   -0.0270    1.2080 ca        1 NYJ      0.031200
      4 CAB         1.8800    0.0780    2.5520 ca        1 NYJ     -0.086300
      5 CAA         0.4680    0.3030    2.9470 c3        1 NYJ     -0.052800
      6 CAC         2.8120    0.0210    3.5910 ca        1 NYJ     -0.102000
      7 CAD         4.1820   -0.0910    3.3490 ca        1 NYJ     -0.150000
      8 CAE         4.6380   -0.1110    2.0420 ca        1 NYJ     -0.070000
      9 CAF         3.7190   -0.0640    0.9830 ca        1 NYJ     -0.156600
     10 CAL         4.2730   -0.0210   -0.3820 c         1 NYJ      0.702100
     11 OAM         5.4910   -0.0410   -0.6530 o         1 NYJ     -0.643500
     12 NAK         3.3620    0.0700   -1.4330 n         1 NYJ     -0.448100
     13 CAJ         1.9910   -0.0050   -1.2210 cd        1 NYJ      0.099400
     14 CAN         1.1570    0.0140   -2.4420 ca        1 NYJ     -0.079800
     15 CAO         0.1810    1.0050   -2.6100 ca        1 NYJ     -0.107000
     16 CAP        -0.5860    1.0360   -3.7730 ca        1 NYJ     -0.132000
     17 CAQ        -0.3860    0.0830   -4.7710 ca        1 NYJ     -0.116000
     18 CAR         0.5850   -0.9050   -4.6060 ca        1 NYJ     -0.132000
     19 CAS         1.3590   -0.9400   -3.4470 ca        1 NYJ     -0.107000
     20 HAI1       -0.1830   -1.1490    0.9520 hc        1 NYJ      0.045367
     21 HAI2       -0.4420   -0.7250   -0.7780 hc        1 NYJ      0.045367
     22 HAI3       -0.5540    0.5710    0.4710 hc        1 NYJ      0.045367
     23 HAA1       -0.1310   -0.6370    2.8640 hc        1 NYJ      0.045033
     24 HAA2       -0.0020    1.0960    2.3160 hc        1 NYJ      0.045033
     25 HAA3        0.4070    0.6440    4.0130 hc        1 NYJ      0.045033
     26 HAC         2.4590    0.0790    4.6340 ha        1 NYJ      0.132000
     27 HAD         4.8900   -0.1450    4.1890 ha        1 NYJ      0.139000
     28 HAE         5.7160   -0.1570    1.8100 ha        1 NYJ      0.160000
     29 HAK         3.7050    0.1430   -2.3650 hn        1 NYJ      0.335500
     30 HAO         0.0220    1.7530   -1.8180 ha        1 NYJ      0.142000
     31 HAS         2.1210   -1.7240   -3.3190 ha        1 NYJ      0.142000
     32 HAP        -1.3510    1.8170   -3.9020 ha        1 NYJ      0.137500
     33 HAQ        -0.9930    0.1100   -5.6880 ha        1 NYJ      0.136000
     34 HAR         0.7420   -1.6600   -5.3910 ha        1 NYJ      0.137500
@<TRIPOS>BOND
     1    1    2 1   
     2    1   20 1   
     3    1   21 1   
     4    1   22 1   
     5    2    3 1   
     6    2   13 2   
     7    3    4 ar  
     8    3    9 ar  
     9    4    5 1   
    10    4    6 ar  
    11    5   23 1   
    12    5   24 1   
    13    5   25 1   
    14    6    7 ar  
    15    6   26 1   
    16    7    8 ar  
    17    7   27 1   
    18    8    9 ar  
    19    8   28 1   
    20    9   10 1   
    21   10   11 2   
    22   10   12 1   
    23   12   13 1   
    24   12   29 1   
    25   13   14 1   
    26   14   15 ar  
    27   14   19 ar  
    28   15   16 ar  
    29   15   30 1   
    30   16   17 ar  
    31   16   32 1   
    32   17   18 ar  
    33   17   33 1   
    34   18   19 ar  
    35   18   34 1   
    36   19   31 1   
@<TRIPOS>SUBSTRUCTURE
     1 NYJ         1 TEMP              0 ****  ****    0 ROOT
