@<TRIPOS>MOLECULE
NYL
   21    21     1     0     0
SMALL
bcc


@<TRIPOS>ATOM
      1 C1         -0.0400    0.1640    0.0020 ca        1 NYL      0.142600
      2 C2          1.3710    0.0320   -0.0050 ca        1 NYL     -0.187000
      3 C3         -0.7070    0.1570    1.2480 ca        1 NYL     -0.187000
      4 N4         -0.7240    0.3830   -1.2060 nu        1 NYL     -0.724600
      5 C5          2.0720   -0.0850    1.1890 ca        1 NYL     -0.095500
      6 C6          0.0150    0.0360    2.4310 ca        1 NYL     -0.095500
      7 C7          1.4020   -0.0850    2.4120 ca        1 NYL     -0.171000
      8 C13        -2.1250    0.0230   -1.2640 c3        1 NYL      0.213000
      9 C15        -2.6500   -0.0790   -2.6620 c2        1 NYL     -0.186200
     10 C16        -3.4080   -1.0910   -3.0760 c2        1 NYL     -0.207000
     11 HC2         1.9220    0.0300   -0.9570 ha        1 NYL      0.131000
     12 HC3        -1.8010    0.2570    1.2950 ha        1 NYL      0.131000
     13 HN4        -0.2050    0.0850   -2.0070 hn        1 NYL      0.394800
     14 HC5         3.1680   -0.1810    1.1650 ha        1 NYL      0.128500
     15 HC6        -0.5220    0.0360    3.3920 ha        1 NYL      0.128500
     16 HC7         1.9640   -0.1800    3.3510 ha        1 NYL      0.131000
     17 H131       -2.7030    0.8370   -0.7320 h1        1 NYL      0.045700
     18 H132       -2.3250   -0.9430   -0.7090 h1        1 NYL      0.045700
     19 H15        -2.3990    0.7640   -3.3270 ha        1 NYL      0.133000
     20 H161       -3.6710   -1.9420   -2.4350 ha        1 NYL      0.115500
     21 H162       -3.8220   -1.1310   -4.0920 ha        1 NYL      0.115500
@<TRIPOS>BOND
     1    1    2 ar  
     2    1    3 ar  
     3    1    4 1   
     4    2    5 ar  
     5    2   11 1   
     6    3    6 ar  
     7    3   12 1   
     8    4    8 1   
     9    4   13 1   
    10    5    7 ar  
    11    5   14 1   
    12    6    7 ar  
    13    6   15 1   
    14    7   16 1   
    15    8    9 1   
    16    8   17 1   
    17    8   18 1   
    18    9   10 2   
    19    9   19 1   
    20   10   20 1   
    21   10   21 1   
@<TRIPOS>SUBSTRUCTURE
     1 NYL         1 TEMP              0 ****  ****    0 ROOT
