@<TRIPOS>MOLECULE
NYL
   21    21     1     0     0
SMALL
bcc


@<TRIPOS>ATOM
      1 C1         -0.2600    0.2230   -0.4510 ca        1 NYL      0.142600
      2 C2         -1.2880   -0.0140   -1.3970 ca        1 NYL     -0.187000
      3 C3          1.0790    0.2200   -0.9010 ca        1 NYL     -0.187000
      4 N4         -0.5970    0.5370    0.8770 nh        1 NYL     -0.724600
      5 C5         -0.9770   -0.2270   -2.7340 ca        1 NYL     -0.095500
      6 C6          1.3690    0.0020   -2.2450 ca        1 NYL     -0.095500
      7 C7          0.3490   -0.2220   -3.1670 ca        1 NYL     -0.171000
      8 C13         0.3940    0.2850    1.9030 c3        1 NYL      0.213000
      9 C15        -0.1790    0.2740    3.2860 c2        1 NYL     -0.186200
     10 C16         0.1160   -0.6630    4.1820 c2        1 NYL     -0.207000
     11 HC2        -2.3410   -0.0220   -1.0800 ha        1 NYL      0.131000
     12 HC3         1.9050    0.4010   -0.1970 ha        1 NYL      0.131000
     13 HN4        -1.5140    0.2310    1.1300 hn        1 NYL      0.394800
     14 HC5        -1.7880   -0.4040   -3.4570 ha        1 NYL      0.128500
     15 HC6         2.4170    0.0080   -2.5780 ha        1 NYL      0.128500
     16 HC7         0.5870   -0.3930   -4.2260 ha        1 NYL      0.131000
     17 H131        1.1540    1.1200    1.8470 h1        1 NYL      0.045700
     18 H132        0.9480   -0.6830    1.7110 h1        1 NYL      0.045700
     19 H15        -0.8420    1.1210    3.5330 ha        1 NYL      0.133000
     20 H161       -0.2780   -0.6360    5.2070 ha        1 NYL      0.115500
     21 H162        0.7720   -1.5170    3.9610 ha        1 NYL      0.115500
@<TRIPOS>BOND
     1    1    2 ar  
     2    1    3 ar  
     3    1    4 1   
     4    2    5 ar  
     5    2   11 1   
     6    3    6 ar  
     7    3   12 1   
     8    4    8 1   
     9    4   13 1   
    10    5    7 ar  
    11    5   14 1   
    12    6    7 ar  
    13    6   15 1   
    14    7   16 1   
    15    8    9 1   
    16    8   17 1   
    17    8   18 1   
    18    9   10 2   
    19    9   19 1   
    20   10   20 1   
    21   10   21 1   
@<TRIPOS>SUBSTRUCTURE
     1 NYL         1 TEMP              0 ****  ****    0 ROOT
