@<TRIPOS>MOLECULE
NYL
   22    22     1     0     0
SMALL
bcc


@<TRIPOS>ATOM
      1 C1         -0.1020    0.2800    0.0810 ca        1 NYL     -0.063400
      2 C2          1.0490   -0.5270    0.0510 ca        1 NYL     -0.103000
      3 C3         -0.5200    0.8930    1.2760 ca        1 NYL     -0.103000
      4 N4         -0.8730    0.4910   -1.1470 n4        1 NYL     -0.630400
      5 C5          1.7780   -0.7110    1.2240 ca        1 NYL     -0.100500
      6 C6          0.2250    0.6940    2.4360 ca        1 NYL     -0.100500
      7 C7          1.3700   -0.1040    2.4140 ca        1 NYL     -0.070000
      8 C13        -2.0510   -0.4410   -1.2420 c3        1 NYL      0.156000
      9 C15        -2.8500   -0.1800   -2.4700 c2        1 NYL     -0.278200
     10 C16        -2.9920   -1.0810   -3.4420 c2        1 NYL     -0.102000
     11 HC2         1.3870   -1.0120   -0.8790 ha        1 NYL      0.155000
     12 HC3        -1.4210    1.5270    1.3110 ha        1 NYL      0.155000
     13 HN4        -0.2620    0.3450   -1.9600 hn        1 NYL      0.453800
     14 HC5         2.6830   -1.3410    1.2060 ha        1 NYL      0.172500
     15 HC6        -0.0960    1.1750    3.3760 ha        1 NYL      0.172500
     16 HC7         1.9540   -0.2560    3.3370 ha        1 NYL      0.173000
     17 H131       -1.6500   -1.4950   -1.2150 hx        1 NYL      0.109700
     18 H132       -2.6830   -0.2770   -0.3200 hx        1 NYL      0.109700
     19 H15        -3.3800    0.7870   -2.4990 ha        1 NYL      0.153000
     20 H161       -2.4980   -2.0640   -3.4340 ha        1 NYL      0.144000
     21 H162       -3.6380   -0.8920   -4.3140 ha        1 NYL      0.144000
     22 H42        -1.2090    1.4610   -1.1690 hn        1 NYL      0.453800
@<TRIPOS>BOND
     1    1    2 ar  
     2    1    3 ar  
     3    1    4 1   
     4    2    5 ar  
     5    2   11 1   
     6    3    6 ar  
     7    3   12 1   
     8    4    8 1   
     9    4   13 1   
    10    4   22 1   
    11    5    7 ar  
    12    5   14 1   
    13    6    7 ar  
    14    6   15 1   
    15    7   16 1   
    16    8    9 1   
    17    8   17 1   
    18    8   18 1   
    19    9   10 2   
    20    9   19 1   
    21   10   20 1   
    22   10   21 1   
@<TRIPOS>SUBSTRUCTURE
     1 NYL         1 TEMP              0 ****  ****    0 ROOT
