@<TRIPOS>MOLECULE
NYL
   21    17     1     0     0
SMALL
bcc


@<TRIPOS>ATOM
      1 C1          0.1220    0.5020    0.6640 c1        1 NYL      0.061000
      2 C2          1.5530    0.4610    0.6520 c1        1 NYL     -0.136750
      3 C3         -0.5620    0.5100    1.8770 c1        1 NYL     -0.190000
      4 N4         -0.6230    0.4560   -0.5840 n3        1 NYL     -0.280000
      5 C5          2.2530    0.4280    1.8430 c1        1 NYL     -0.136750
      6 C6          0.1350    0.4770    3.0570 c1        1 NYL     -0.136750
      7 C7          1.5710    0.4350    3.0450 c1        1 NYL     -0.136750
      8 C13        -0.5470   -0.6850   -1.4020 c3        1 NYL     -0.027000
      9 C15        -1.6210   -0.5820   -2.5360 c2        1 NYL     -0.184000
     10 C16        -1.2770   -0.8610   -3.8250 c1        1 NYL     -0.197000
     11 HC2         1.9810    0.4560   -0.1020 ha        1 NYL      0.129500
     12 HC3        -1.4850    0.5370    1.8850 ha        1 NYL      0.129000
     13 HN4        -1.2480    1.0800   -0.7500 hn        1 NYL      0.190000
     14 HC5         3.2180    0.4000    1.8370 ha        1 NYL      0.129500
     15 HC6        -0.3460    0.4820    3.9050 ha        1 NYL      0.129500
     16 HC7         2.0700    0.4120    3.8930 ha        1 NYL      0.129500
     17 H131       -0.7260   -1.5250   -0.8380 h1        1 NYL      0.086000
     18 H132        0.3490   -0.7430   -1.8040 h1        1 NYL      0.086000
     19 H15        -2.5240   -0.3230   -2.3210 ha        1 NYL      0.122000
     20 H161       -0.4100   -1.1100   -4.0300 DU        1 NYL      0.116000
     21 H162       -1.8820   -0.8040   -4.4660 ha        1 NYL      0.115000
@<TRIPOS>BOND
     1    1    3 1   
     2    1    4 1   
     3    2    5 1   
     4    2   11 1   
     5    3   12 1   
     6    4    8 1   
     7    4   13 1   
     8    5   14 1   
     9    6    7 1   
    10    6   15 1   
    11    7   16 1   
    12    8    9 1   
    13    8   17 1   
    14    8   18 1   
    15    9   10 1   
    16    9   19 1   
    17   10   21 1   
@<TRIPOS>SUBSTRUCTURE
     1 NYL         1 TEMP              0 ****  ****    0 ROOT
