@<TRIPOS>MOLECULE
NYL
   21    21     1     0     0
SMALL
bcc


@<TRIPOS>ATOM
      1 C1         -0.0400    0.1650    0.0020 ca        1 NYL      0.142600
      2 C2          1.3710    0.0350   -0.0070 ca        1 NYL     -0.187000
      3 C3         -0.7050    0.1530    1.2490 ca        1 NYL     -0.187000
      4 N4         -0.7260    0.3850   -1.2040 nh        1 NYL     -0.724600
      5 C5          2.0750   -0.0830    1.1850 ca        1 NYL     -0.095500
      6 C6          0.0190    0.0300    2.4300 ca        1 NYL     -0.095500
      7 C7          1.4060   -0.0880    2.4090 ca        1 NYL     -0.171000
      8 C13        -2.1270    0.0220   -1.2610 c3        1 NYL      0.213000
      9 C15        -2.6540   -0.0760   -2.6590 c2        1 NYL     -0.186200
     10 C16        -3.4100   -1.0890   -3.0740 c2        1 NYL     -0.207000
     11 HC2         1.9210    0.0370   -0.9610 ha        1 NYL      0.131000
     12 HC3        -1.8000    0.2510    1.2980 ha        1 NYL      0.131000
     13 HN4        -0.2080    0.0900   -2.0080 hn        1 NYL      0.394800
     14 HC5         3.1710   -0.1770    1.1590 ha        1 NYL      0.128500
     15 HC6        -0.5170    0.0280    3.3920 ha        1 NYL      0.128500
     16 HC7         1.9700   -0.1840    3.3470 ha        1 NYL      0.131000
     17 H131       -2.3240   -0.9450   -0.7090 h1        1 NYL      0.045700
     18 H132       -2.7050    0.8350   -0.7270 h1        1 NYL      0.045700
     19 H15        -2.4040    0.7680   -3.3230 ha        1 NYL      0.133000
     20 H161       -3.6720   -1.9420   -2.4340 ha        1 NYL      0.115500
     21 H162       -3.8260   -1.1280   -4.0900 ha        1 NYL      0.115500
@<TRIPOS>BOND
     1    1    2 ar  
     2    1    3 ar  
     3    1    4 1   
     4    2    5 ar  
     5    2   11 1   
     6    3    6 ar  
     7    3   12 1   
     8    4    8 1   
     9    4   13 1   
    10    5    7 ar  
    11    5   14 1   
    12    6    7 ar  
    13    6   15 1   
    14    7   16 1   
    15    8    9 1   
    16    8   17 1   
    17    8   18 1   
    18    9   10 2   
    19    9   19 1   
    20   10   20 1   
    21   10   21 1   
@<TRIPOS>SUBSTRUCTURE
     1 NYL         1 TEMP              0 ****  ****    0 ROOT
