@<TRIPOS>MOLECULE
NYM
   35    36     1     0     0
SMALL
bcc


@<TRIPOS>ATOM
      1 N1          2.4030   -1.3250    0.1550 n         1 NYM     -0.367000
      2 C6          2.0280    0.0080    0.0600 cc        1 NYM      0.059600
      3 C2          3.7690   -1.6700    0.1080 c         1 NYM      0.794500
      4 O2          4.1810   -2.8590    0.1750 o         1 NYM     -0.717500
      5 N3          4.7200   -0.6390    0.0270 n         1 NYM     -0.598500
      6 C4          4.3720    0.7270   -0.0510 c         1 NYM      0.716700
      7 O4          5.3150    1.5440   -0.1320 o         1 NYM     -0.690500
      8 C5          2.9450    1.0240   -0.0260 cd        1 NYM     -0.295400
      9 C7          2.4910    2.4270   -0.1140 c3        1 NYM     -0.043900
     10 O4'         0.6920   -2.4210   -1.1040 os        1 NYM     -0.440600
     11 N3'        -2.1350   -2.1660    1.1590 n3        1 NYM     -0.920800
     12 C1'         1.4040   -2.4080    0.1320 c3        1 NYM      0.301500
     13 C2'         0.3610   -2.3140    1.2620 c3        1 NYM     -0.105400
     14 C3'        -0.8860   -1.7060    0.5910 c3        1 NYM      0.120500
     15 C4'        -0.6720   -1.9760   -0.9220 c3        1 NYM      0.074100
     16 C5'        -0.9130   -0.7330   -1.8150 c3        1 NYM      0.220400
     17 P1         -2.0920    1.2850   -0.5250 p5        1 NYM      1.337900
     18 OP2        -2.7230    2.3540   -1.3550 o         1 NYM     -0.924500
     19 OP1        -0.6070    1.4260   -0.2360 o         1 NYM     -0.924500
     20 OP3        -2.8370    0.6990    0.6430 o         1 NYM     -0.924500
     21 HC61        0.9140    0.2510    0.0580 h4        1 NYM      0.306000
     22 HN31        5.6760   -0.9090   -0.0040 hn        1 NYM      0.318500
     23 HC71        1.3630    2.4590   -0.1960 hc        1 NYM      0.058367
     24 HC72        2.8120    2.9950    0.7940 hc        1 NYM      0.058367
     25 HC73        2.9420    2.9220   -1.0090 hc        1 NYM      0.058367
     26 H3'1       -2.7040   -1.3520    1.3640 hn        1 NYM      0.369300
     27 H3'2       -2.6310   -2.7210    0.4870 hn        1 NYM      0.369300
     28 H1'1        1.9780   -3.3820    0.1600 h2        1 NYM      0.082700
     29 H2'1        0.1720   -3.3440    1.6510 hc        1 NYM      0.048200
     30 H2'2        0.6960   -1.6740    2.1120 hc        1 NYM      0.048200
     31 HC31       -0.8520   -0.5650    0.7230 h1        1 NYM      0.148700
     32 H4'1       -1.2990   -2.8350   -1.2850 h1        1 NYM      0.025700
     33 H5'1       -0.0460   -0.0250   -1.6990 h1        1 NYM      0.001200
     34 H5'2       -0.9250   -1.1110   -2.8810 h1        1 NYM      0.001200
     35 O5'        -2.1050   -0.1270   -1.5410 os        1 NYM     -0.569200
@<TRIPOS>BOND
     1    1    2 1   
     2    1    3 1   
     3    1   12 1   
     4    2    8 2   
     5    2   21 1   
     6    3    4 2   
     7    3    5 1   
     8    5    6 1   
     9    5   22 1   
    10    6    7 2   
    11    6    8 1   
    12    8    9 1   
    13    9   23 1   
    14    9   24 1   
    15    9   25 1   
    16   10   12 1   
    17   10   15 1   
    18   11   14 1   
    19   11   26 1   
    20   11   27 1   
    21   12   13 1   
    22   12   28 1   
    23   13   14 1   
    24   13   29 1   
    25   13   30 1   
    26   14   15 1   
    27   14   31 1   
    28   15   16 1   
    29   15   32 1   
    30   16   33 1   
    31   16   34 1   
    32   16   35 1   
    33   17   18 1   
    34   17   19 1   
    35   17   20 1   
    36   17   35 1   
@<TRIPOS>SUBSTRUCTURE
     1 NYM         1 TEMP              0 ****  ****    0 ROOT
