@<TRIPOS>MOLECULE
NYM
   35    36     1     0     0
SMALL
bcc


@<TRIPOS>ATOM
      1 N1          1.3050   -0.2760    0.5910 n         1 NYM     -0.367000
      2 C6          2.6410   -0.7470    0.6490 cc        1 NYM      0.059600
      3 C2          0.6710    0.2730    1.7880 c         1 NYM      0.794500
      4 O2         -0.4330    0.7740    1.7140 o         1 NYM     -0.717500
      5 N3          1.3580    0.2070    3.0780 n         1 NYM     -0.598500
      6 C4          2.6810   -0.3010    3.1520 c         1 NYM      0.716700
      7 O4          3.2810   -0.2820    4.2080 o         1 NYM     -0.690500
      8 C5          3.3510   -0.7800    1.9350 cd        1 NYM     -0.295400
      9 C7          4.8040   -1.2000    1.9870 c3        1 NYM     -0.043900
     10 O4'        -0.4590    0.8680   -0.6810 os        1 NYM     -0.440600
     11 N3'        -1.3030   -1.5670   -2.7560 n3        1 NYM     -0.920800
     12 C1'         0.5960   -0.3100   -0.6310 c3        1 NYM      0.301500
     13 C2'        -0.0980   -1.4340   -0.7230 c3        1 NYM     -0.105400
     14 C3'        -1.3500   -1.0610   -1.4810 c3        1 NYM      0.120500
     15 C4'        -1.3680    0.5000   -1.5190 c3        1 NYM      0.074100
     16 O5'        -2.7620    2.4300   -1.1930 os        1 NYM     -0.569200
     17 C5'        -2.7400    1.0260   -1.0800 c3        1 NYM      0.220400
     18 P1         -4.1630    3.1580   -1.2600 p5        1 NYM      1.337900
     19 OP2        -4.8470    2.8150   -2.5620 o         1 NYM     -0.924500
     20 OP1        -5.0230    2.7030   -0.1050 o         1 NYM     -0.924500
     21 OP3        -3.9590    4.6520   -1.1780 o         1 NYM     -0.924500
     22 HC61        3.1070   -0.9980   -0.1720 h4        1 NYM      0.306000
     23 HN31        0.9600    0.5500    3.8230 hn        1 NYM      0.318500
     24 HC71        5.1560   -1.2730    1.0750 hc        1 NYM      0.058367
     25 HC72        5.3200   -0.5300    2.4830 hc        1 NYM      0.058367
     26 HC73        4.8780   -2.0680    2.4360 hc        1 NYM      0.058367
     27 H3'1       -2.0860   -1.3740   -3.1910 hn        1 NYM      0.369300
     28 H3'2       -1.1890   -2.4760   -2.7200 hn        1 NYM      0.369300
     29 H1'1        1.2190   -0.2370   -1.3830 h2        1 NYM      0.082700
     30 H2'1        0.4120   -2.1090   -1.2190 hc        1 NYM      0.048200
     31 H2'2       -0.3270   -1.7670    0.1690 hc        1 NYM      0.048200
     32 HC31       -2.1400   -1.3970   -1.0130 h1        1 NYM      0.148700
     33 H4'1       -1.1520    0.8200   -2.4170 h1        1 NYM      0.025700
     34 H5'1       -2.9050    0.7700   -0.1490 h1        1 NYM      0.001200
     35 H5'2       -3.4350    0.6410   -1.6530 h1        1 NYM      0.001200
@<TRIPOS>BOND
     1    1    2 1   
     2    1    3 1   
     3    1   12 1   
     4    2    8 2   
     5    2   22 1   
     6    3    4 2   
     7    3    5 1   
     8    5    6 1   
     9    5   23 1   
    10    6    7 2   
    11    6    8 1   
    12    8    9 1   
    13    9   24 1   
    14    9   25 1   
    15    9   26 1   
    16   10   12 1   
    17   10   15 1   
    18   11   14 1   
    19   11   27 1   
    20   11   28 1   
    21   12   13 1   
    22   12   29 1   
    23   13   14 1   
    24   13   30 1   
    25   13   31 1   
    26   14   15 1   
    27   14   32 1   
    28   15   17 1   
    29   15   33 1   
    30   16   17 1   
    31   16   18 1   
    32   17   34 1   
    33   17   35 1   
    34   18   19 1   
    35   18   20 1   
    36   18   21 1   
@<TRIPOS>SUBSTRUCTURE
     1 NYM         1 TEMP              0 ****  ****    0 ROOT
