@<TRIPOS>MOLECULE
NYP
   30    27     1     0     0
SMALL
bcc


@<TRIPOS>ATOM
      1 C8N        -2.1880    1.1110    0.8290 c3        1 NYP     -0.146000
      2 N8         -0.7430    1.1110    0.8290 n3        1 NYP     -0.082000
      3 C9         -0.0770    1.1110    1.9830 c1        1 NYP      0.138000
      4 C10        -0.8430    1.1110    3.3100 c1        1 NYP     -0.143500
      5 C11        -0.5620    2.0480    4.2590 c1        1 NYP     -0.143500
      6 C7         -0.0160    1.1110   -0.4300 c3        1 NYP     -0.081000
      7 C1          0.3010   -0.4260   -0.8770 c3        1 NYP     -0.122000
      8 C2         -0.2500   -0.6300   -1.9910 c3        1 NYP     -0.153000
      9 C3         -0.0170   -2.1140   -2.6410 c3        1 NYP     -0.138000
     10 C4          1.4330   -2.4850   -2.6720 c2        1 NYP     -0.136000
     11 C5          2.3810   -1.9050   -1.3800 c1        1 NYP     -0.186000
     12 C6          1.9870   -0.6500   -0.8370 c2        1 NYP     -0.126000
     13 H8N1       -2.5130    0.2460    1.1440 h1        1 NYP      0.137000
     14 H8N2       -2.5130    1.8160    1.4210 h1        1 NYP      0.137000
     15 H8N3       -2.5130    1.2710   -0.0770 h1        1 NYP      0.137000
     16 H9          0.8990    1.1110    1.9830 ha        1 NYP      0.189000
     17 H10        -1.5320    0.4390    3.4760 ha        1 NYP      0.169500
     18 H11         0.1270    2.7190    4.0930 DU        1 NYP      0.144000
     19 H111       -1.0500    2.0480    5.1040 ha        1 NYP      0.169500
     20 HC71       -0.5560    1.5450   -1.1180 h1        1 NYP      0.134500
     21 HC72        0.8230    1.5980   -0.3210 h1        1 NYP      0.134500
     22 H1         -0.1030   -1.0260   -0.2220 hc        1 NYP      0.113000
     23 H2         -1.2100   -0.4930   -1.8850 hc        1 NYP      0.093500
     24 H21         0.0860    0.0340   -2.6230 hc        1 NYP      0.093500
     25 H3         -0.3690   -2.3020   -3.5310 hc        1 NYP      0.109000
     26 H31        -0.5540   -2.7260   -2.1030 hc        1 NYP      0.109000
     27 H4          1.8560   -2.7290   -3.5170 ha        1 NYP      0.147000
     28 H5          2.9040   -2.5280   -0.8400 ha        1 NYP      0.142000
     29 H6          2.4570   -0.4950    0.0050 ha        1 NYP      0.079500
     30 H61         2.3540    0.0780   -1.3730 ha        1 NYP      0.079500
@<TRIPOS>BOND
     1    1    2 1   
     2    1   13 1   
     3    1   14 1   
     4    1   15 1   
     5    2    3 1   
     6    2    6 1   
     7    3   16 1   
     8    4    5 1   
     9    4   17 1   
    10    5   19 1   
    11    6    7 1   
    12    6   20 1   
    13    6   21 1   
    14    7    8 1   
    15    7   12 1   
    16    7   22 1   
    17    8    9 1   
    18    8   23 1   
    19    8   24 1   
    20    9   10 1   
    21    9   25 1   
    22    9   26 1   
    23   10   11 1   
    24   10   27 1   
    25   11   28 1   
    26   12   29 1   
    27   12   30 1   
@<TRIPOS>SUBSTRUCTURE
     1 NYP         1 TEMP              0 ****  ****    0 ROOT
