@<TRIPOS>MOLECULE
NYP
   30    30     1     0     0
SMALL
bcc


@<TRIPOS>ATOM
      1 C8N        -0.0920    0.3470   -0.0480 c3        1 NYP     -0.047400
      2 N8          1.3280    0.0470    0.0060 nh        1 NYP     -0.098100
      3 C9          1.9720   -0.1520    1.1370 ce        1 NYP      0.408500
      4 C10         1.4010   -0.0680    2.4650 ce        1 NYP     -0.350600
      5 C11         2.1450   -0.3150    3.5560 c2        1 NYP     -0.023000
      6 C7          2.0270   -0.0420   -1.2830 c3        1 NYP     -0.021700
      7 C1          1.8710   -1.3950   -1.9890 c3        1 NYP     -0.082700
      8 C2          2.4500   -1.2690   -3.3930 c3        1 NYP     -0.074400
      9 C3          2.2600   -2.5600   -4.1680 c3        1 NYP     -0.055200
     10 C4          2.5710   -3.7630   -3.3600 c2        1 NYP     -0.140200
     11 C5          2.7010   -3.7430   -2.0300 c2        1 NYP     -0.190200
     12 C6          2.5720   -2.5060   -1.2200 c3        1 NYP     -0.043200
     13 H8N1       -0.6580   -0.3030    0.6730 h1        1 NYP      0.097700
     14 H8N2       -0.4770    0.1550   -1.0860 h1        1 NYP      0.097700
     15 H8N3       -0.2560    1.4280    0.2140 h1        1 NYP      0.097700
     16 H9          3.0600   -0.4030    1.0650 h4        1 NYP      0.059800
     17 H10         0.3370    0.2130    2.5620 ha        1 NYP      0.171000
     18 H11         3.2100   -0.5950    3.5160 ha        1 NYP      0.156000
     19 H111        1.7140   -0.2490    4.5700 ha        1 NYP      0.156000
     20 HC71        3.1230    0.1670   -1.1190 h1        1 NYP      0.095200
     21 HC72        1.6080    0.7750   -1.9410 h1        1 NYP      0.095200
     22 H1          0.7770   -1.6490   -2.0790 hc        1 NYP      0.073700
     23 H2          1.9490   -0.4290   -3.9400 hc        1 NYP      0.054200
     24 H21         3.5430   -1.0290   -3.3240 hc        1 NYP      0.054200
     25 H3          1.1970   -2.6350   -4.5290 hc        1 NYP      0.069700
     26 H31         2.9160   -2.5380   -5.0800 hc        1 NYP      0.069700
     27 H4          2.6790   -4.7020   -3.9290 ha        1 NYP      0.147000
     28 H5          2.9310   -4.6560   -1.4590 ha        1 NYP      0.142000
     29 H6          3.6020   -2.1680   -0.9150 hc        1 NYP      0.040200
     30 H61         2.0010   -2.7350   -0.2800 hc        1 NYP      0.040200
@<TRIPOS>BOND
     1    1    2 1   
     2    1   13 1   
     3    1   14 1   
     4    1   15 1   
     5    2    3 2   
     6    2    6 1   
     7    3    4 1   
     8    3   16 1   
     9    4    5 2   
    10    4   17 1   
    11    5   18 1   
    12    5   19 1   
    13    6    7 1   
    14    6   20 1   
    15    6   21 1   
    16    7    8 1   
    17    7   12 1   
    18    7   22 1   
    19    8    9 1   
    20    8   23 1   
    21    8   24 1   
    22    9   10 1   
    23    9   25 1   
    24    9   26 1   
    25   10   11 2   
    26   10   27 1   
    27   11   12 1   
    28   11   28 1   
    29   12   29 1   
    30   12   30 1   
@<TRIPOS>SUBSTRUCTURE
     1 NYP         1 TEMP              0 ****  ****    0 ROOT
