@<TRIPOS>MOLECULE
NYP
   30    30     1     0     0
SMALL
bcc


@<TRIPOS>ATOM
      1 C8N         1.7110   -1.5860   -1.3420 c3        1 NYP     -0.047400
      2 N8          1.4330   -0.8410   -0.1270 nh        1 NYP     -0.098100
      3 C9          2.2540    0.0680    0.3570 ce        1 NYP      0.408500
      4 C10         3.5390    0.4320   -0.2000 ce        1 NYP     -0.350600
      5 C11         4.2900    1.3950    0.3600 c2        1 NYP     -0.023000
      6 C7          0.1620   -1.1410    0.5470 c3        1 NYP     -0.021700
      7 C1         -1.0510   -0.4180   -0.0530 c3        1 NYP     -0.082700
      8 C2         -2.3110   -0.9870    0.5900 c3        1 NYP     -0.074400
      9 C3         -3.5520   -0.3600   -0.0170 c3        1 NYP     -0.055200
     10 C4         -3.4240    1.1070   -0.1900 c2        1 NYP     -0.140200
     11 C5         -2.2600    1.7580   -0.1160 c2        1 NYP     -0.190200
     12 C6         -0.9690    1.0850    0.1730 c3        1 NYP     -0.043200
     13 H8N1        0.7600   -2.0450   -1.7270 h1        1 NYP      0.097700
     14 H8N2        2.1290   -0.9050   -2.1320 h1        1 NYP      0.097700
     15 H8N3        2.4530   -2.4010   -1.1190 h1        1 NYP      0.097700
     16 H9          1.9310    0.6020    1.2850 h4        1 NYP      0.059800
     17 H10         3.8950   -0.1070   -1.0970 ha        1 NYP      0.171000
     18 H11         3.9840    1.9610    1.2550 ha        1 NYP      0.156000
     19 H111        5.2710    1.6730   -0.0600 ha        1 NYP      0.156000
     20 HC71        0.0060   -2.2570    0.4750 h1        1 NYP      0.095200
     21 HC72        0.2540   -0.8690    1.6380 h1        1 NYP      0.095200
     22 H1         -1.0990   -0.6180   -1.1610 hc        1 NYP      0.073700
     23 H2         -2.2880   -0.7860    1.6930 hc        1 NYP      0.054200
     24 H21        -2.3460   -2.0990    0.4460 hc        1 NYP      0.054200
     25 H3         -4.4340   -0.5870    0.6410 hc        1 NYP      0.069700
     26 H31        -3.7610   -0.8230   -1.0200 hc        1 NYP      0.069700
     27 H4         -4.3650    1.6430   -0.4010 ha        1 NYP      0.147000
     28 H5         -2.2010    2.8500   -0.2520 ha        1 NYP      0.142000
     29 H6         -0.1670    1.5220   -0.4800 hc        1 NYP      0.040200
     30 H61        -0.6860    1.2950    1.2410 hc        1 NYP      0.040200
@<TRIPOS>BOND
     1    1    2 1   
     2    1   13 1   
     3    1   14 1   
     4    1   15 1   
     5    2    3 2   
     6    2    6 1   
     7    3    4 1   
     8    3   16 1   
     9    4    5 2   
    10    4   17 1   
    11    5   18 1   
    12    5   19 1   
    13    6    7 1   
    14    6   20 1   
    15    6   21 1   
    16    7    8 1   
    17    7   12 1   
    18    7   22 1   
    19    8    9 1   
    20    8   23 1   
    21    8   24 1   
    22    9   10 1   
    23    9   25 1   
    24    9   26 1   
    25   10   11 2   
    26   10   27 1   
    27   11   12 1   
    28   11   28 1   
    29   12   29 1   
    30   12   30 1   
@<TRIPOS>SUBSTRUCTURE
     1 NYP         1 TEMP              0 ****  ****    0 ROOT
