@<TRIPOS>MOLECULE
NYS
   34    34     1     0     0
SMALL
bcc


@<TRIPOS>ATOM
      1 N          -4.1080    1.3380    0.9470 n3        1 NYS     -0.886800
      2 CA         -3.6540    0.4380   -0.1030 c3        1 NYS      0.012500
      3 CB         -2.1960    0.0340    0.0290 c3        1 NYS      0.020700
      4 C          -4.5030   -0.8860   -0.2380 c         1 NYS      0.897600
      5 O          -5.5930   -0.9350    0.3930 o         1 NYS     -0.826300
      6 SG         -1.2090    1.4770   -0.3140 ss        1 NYS     -0.226000
      7 CXP         0.4010    0.9910   -0.1220 ca        1 NYS     -0.022100
      8 CXH         0.8430   -0.3300   -0.2900 ca        1 NYS     -0.123000
      9 CXQ         1.3570    1.9690    0.2060 ca        1 NYS      0.050100
     10 OXF         1.0540    3.3010    0.4020 oh        1 NYS     -0.529100
     11 CXO         2.7180    1.6260    0.3480 ca        1 NYS      0.111100
     12 OXE         3.6840    2.5590    0.6560 oh        1 NYS     -0.509100
     13 CXG         3.1350    0.3040    0.1750 ca        1 NYS     -0.158000
     14 CXN         2.1860   -0.6740   -0.1420 ca        1 NYS     -0.107300
     15 CXJ         2.6080   -2.1020   -0.3190 c3        1 NYS      0.145400
     16 OXG         3.6180   -2.2620   -1.3060 oh        1 NYS     -0.603800
     17 CXI         3.0970   -2.6880    1.0270 c3        1 NYS      0.121800
     18 NXA         3.5750   -4.0450    0.9780 n3        1 NYS     -0.897800
     19 OXT        -4.0430   -1.7940   -0.9800 o         1 NYS     -0.826300
     20 HN1        -5.1100    1.4030    0.8650 hn        1 NYS      0.336800
     21 HN2        -3.9260    0.9090    1.8380 hn        1 NYS      0.336800
     22 HA         -3.7870    0.9880   -1.0820 h1        1 NYS      0.059700
     23 HB1        -1.9620   -0.3610    1.0430 h1        1 NYS      0.079700
     24 HB2        -1.9960   -0.7700   -0.7260 h1        1 NYS      0.079700
     25 HXH         0.1080   -1.1090   -0.5510 ha        1 NYS      0.154000
     26 HOXF        0.0920    3.3620    0.5500 ho        1 NYS      0.449000
     27 HOXE        3.2380    3.4090    0.7960 ho        1 NYS      0.433000
     28 HXG         4.1970    0.0550    0.3000 ha        1 NYS      0.136000
     29 HXJ         1.7500   -2.7180   -0.7180 h1        1 NYS      0.082700
     30 HOXG        4.2910   -1.5910   -1.1480 ho        1 NYS      0.400000
     31 HXI1        3.9380   -2.0410    1.4080 h1        1 NYS      0.058200
     32 HXI2        2.2490   -2.6260    1.7630 h1        1 NYS      0.058200
     33 HXA1        2.8240   -4.6730    0.7660 hn        1 NYS      0.345300
     34 HXA2        4.2700   -4.1360    0.2600 hn        1 NYS      0.345300
@<TRIPOS>BOND
     1    1    2 1   
     2    1   20 1   
     3    1   21 1   
     4    2    3 1   
     5    2    4 1   
     6    2   22 1   
     7    3    6 1   
     8    3   23 1   
     9    3   24 1   
    10    4    5 1   
    11    4   19 1   
    12    6    7 1   
    13    7    8 ar  
    14    7    9 ar  
    15    8   14 ar  
    16    8   25 1   
    17    9   10 1   
    18    9   11 ar  
    19   10   26 1   
    20   11   12 1   
    21   11   13 ar  
    22   12   27 1   
    23   13   14 ar  
    24   13   28 1   
    25   14   15 1   
    26   15   16 1   
    27   15   17 1   
    28   15   29 1   
    29   16   30 1   
    30   17   18 1   
    31   17   31 1   
    32   17   32 1   
    33   18   33 1   
    34   18   34 1   
@<TRIPOS>SUBSTRUCTURE
     1 NYS         1 TEMP              0 ****  ****    0 ROOT
