@<TRIPOS>MOLECULE
NZ2
   28    28     1     0     0
SMALL
bcc


@<TRIPOS>ATOM
      1 C01         0.3000    0.0000    0.8220 c3        1 NZ2     -0.078100
      2 C02         1.6480    0.0130    0.1110 c3        1 NZ2      0.082500
      3 C03         2.7770    0.2650    1.1720 c         1 NZ2      0.902600
      4 O04         2.5310    1.1320    2.0500 o         1 NZ2     -0.830300
      5 O05         3.8680   -0.3690    1.0850 o         1 NZ2     -0.830300
      6 N06         1.8400   -1.1350   -0.7730 nh        1 NZ2     -0.653900
      7 C07         1.5330   -2.4180   -0.2670 ca        1 NZ2      0.153600
      8 C08         0.7640   -3.3200   -1.0390 ca        1 NZ2     -0.133500
      9 C09         0.4490   -4.5810   -0.5410 ca        1 NZ2     -0.138500
     10 C10         0.8740   -4.9710    0.7270 ca        1 NZ2     -0.156000
     11 C11         1.6340   -4.0920    1.4960 ca        1 NZ2     -0.138500
     12 C12         1.9690   -2.8320    1.0130 ca        1 NZ2     -0.133500
     13 S13         2.6480   -0.9440   -2.1750 s6        1 NZ2      1.446900
     14 C14         4.2770   -1.2390   -1.8270 c3        1 NZ2     -0.392300
     15 O15         2.2370   -1.9250   -3.1260 o         1 NZ2     -0.680800
     16 O16         2.5250    0.3820   -2.6710 o         1 NZ2     -0.680800
     17 H1          0.2440    0.9150    1.4620 hc        1 NZ2      0.035367
     18 H2         -0.5450    0.0040    0.0930 hc        1 NZ2      0.035367
     19 H3          0.2050   -0.8980    1.4780 hc        1 NZ2      0.035367
     20 H4          1.6680    0.9250   -0.5640 h1        1 NZ2      0.068700
     21 H6          0.4350   -3.0400   -2.0540 ha        1 NZ2      0.174000
     22 H7         -0.1430   -5.2710   -1.1590 ha        1 NZ2      0.119000
     23 H8          0.6140   -5.9650    1.1160 ha        1 NZ2      0.112000
     24 H9          1.9800   -4.3950    2.4950 ha        1 NZ2      0.119000
     25 H10         2.5900   -2.1450    1.6230 ha        1 NZ2      0.174000
     26 H11         4.5620   -0.9640   -0.7660 h1        1 NZ2      0.129367
     27 H12         4.9450   -0.6350   -2.4860 h1        1 NZ2      0.129367
     28 H13         4.5590   -2.3090   -1.9560 h1        1 NZ2      0.129367
@<TRIPOS>BOND
     1    1    2 1   
     2    1   17 1   
     3    1   18 1   
     4    1   19 1   
     5    2    3 1   
     6    2    6 1   
     7    2   20 1   
     8    3    4 1   
     9    3    5 1   
    10    6    7 1   
    11    6   13 1   
    12    7    8 ar  
    13    7   12 ar  
    14    8    9 ar  
    15    8   21 1   
    16    9   10 ar  
    17    9   22 1   
    18   10   11 ar  
    19   10   23 1   
    20   11   12 ar  
    21   11   24 1   
    22   12   25 1   
    23   13   14 1   
    24   13   15 2   
    25   13   16 2   
    26   14   26 1   
    27   14   27 1   
    28   14   28 1   
@<TRIPOS>SUBSTRUCTURE
     1 NZ2         1 TEMP              0 ****  ****    0 ROOT
