@<TRIPOS>MOLECULE
NZ2
   29    29     1     0     0
SMALL
bcc


@<TRIPOS>ATOM
      1 C01         0.0590    0.0750    0.6730 c3        1 NZ2     -0.117100
      2 C02         1.2530   -0.0910   -0.2620 c3        1 NZ2      0.099500
      3 C03         2.5330    0.2780    0.4890 c         1 NZ2      0.707100
      4 O04         2.6340    0.6250    1.6600 o         1 NZ2     -0.475000
      5 O05         3.7070    0.2550   -0.1880 os        1 NZ2     -0.610800
      6 N06         1.3950   -1.3800   -0.9200 nh        1 NZ2     -0.736600
      7 C07         1.1620   -2.5660   -0.1840 ca        1 NZ2      0.104600
      8 C08         0.5340   -3.6680   -0.8110 ca        1 NZ2     -0.172000
      9 C09         0.4060   -4.8800   -0.1410 ca        1 NZ2     -0.102000
     10 C10         0.8830   -5.0250    1.1610 ca        1 NZ2     -0.153000
     11 C11         1.4930   -3.9430    1.7930 ca        1 NZ2     -0.102000
     12 C12         1.6350   -2.7240    1.1370 ca        1 NZ2     -0.172000
     13 S13         4.1320    0.0510   -1.8040 s6        1 NZ2      1.654500
     14 C14         4.4120   -1.5860   -1.8860 c3        1 NZ2     -0.414300
     15 O15         3.0170    0.4410   -2.5170 o         1 NZ2     -0.652800
     16 O16         5.3000    0.7680   -1.8970 o         1 NZ2     -0.652800
     17 H1         -0.8930   -0.0650    0.1080 hc        1 NZ2      0.059033
     18 H2          0.0990   -0.6650    1.5090 hc        1 NZ2      0.059033
     19 H3          0.0770    1.1020    1.1130 hc        1 NZ2      0.059033
     20 H4          1.1590    0.6820   -1.0930 h1        1 NZ2      0.108700
     21 H6          0.1450   -3.5770   -1.8360 ha        1 NZ2      0.140000
     22 H7         -0.0810   -5.7280   -0.6450 ha        1 NZ2      0.136000
     23 H8          0.7750   -5.9850    1.6860 ha        1 NZ2      0.136000
     24 H9          1.8690   -4.0480    2.8220 ha        1 NZ2      0.136000
     25 H10         2.1200   -1.8830    1.6600 ha        1 NZ2      0.140000
     26 H11         4.2900   -2.1080   -0.8980 h1        1 NZ2      0.138700
     27 H12         3.7110   -2.1160   -2.5820 h1        1 NZ2      0.138700
     28 H13         5.4500   -1.8340   -2.2280 h1        1 NZ2      0.138700
     29 H061        0.8990   -1.3810   -1.7920 hn        1 NZ2      0.404800
@<TRIPOS>BOND
     1    1    2 1   
     2    1   17 1   
     3    1   18 1   
     4    1   19 1   
     5    2    3 1   
     6    2    6 1   
     7    2   20 1   
     8    3    4 2   
     9    3    5 1   
    10    5   13 1   
    11    6    7 1   
    12    6   29 1   
    13    7    8 ar  
    14    7   12 ar  
    15    8    9 ar  
    16    8   21 1   
    17    9   10 ar  
    18    9   22 1   
    19   10   11 ar  
    20   10   23 1   
    21   11   12 ar  
    22   11   24 1   
    23   12   25 1   
    24   13   14 1   
    25   13   15 2   
    26   13   16 2   
    27   14   26 1   
    28   14   27 1   
    29   14   28 1   
@<TRIPOS>SUBSTRUCTURE
     1 NZ2         1 TEMP              0 ****  ****    0 ROOT
