@<TRIPOS>MOLECULE
NZ2
   28    28     1     0     0
SMALL
bcc


@<TRIPOS>ATOM
      1 C01         0.2470   -0.0010    0.7340 c3        1 NZ2     -0.078100
      2 C02         1.6250    0.0140    0.0840 c3        1 NZ2      0.082500
      3 C03         2.7040    0.2820    1.1910 c         1 NZ2      0.902600
      4 O04         2.4140    1.1540    2.0510 o         1 NZ2     -0.830300
      5 O05         3.8030   -0.3450    1.1580 o         1 NZ2     -0.830300
      6 N06         1.8630   -1.1410   -0.7800 nh        1 NZ2     -0.653900
      7 C07         1.5420   -2.4210   -0.2770 ca        1 NZ2      0.153600
      8 C08         0.8140   -3.3350   -1.0740 ca        1 NZ2     -0.133500
      9 C09         0.4840   -4.5930   -0.5790 ca        1 NZ2     -0.138500
     10 C10         0.8550   -4.9700    0.7100 ca        1 NZ2     -0.156000
     11 C11         1.5750   -4.0790    1.5040 ca        1 NZ2     -0.138500
     12 C12         1.9230   -2.8210    1.0250 ca        1 NZ2     -0.133500
     13 S13         2.7320   -0.9570   -2.1480 s6        1 NZ2      1.446900
     14 C14         4.3450   -1.2380   -1.7250 c3        1 NZ2     -0.392300
     15 O15         2.3690   -1.9480   -3.1060 o         1 NZ2     -0.680800
     16 O16         2.6220    0.3640   -2.6600 o         1 NZ2     -0.680800
     17 H1         -0.5650   -0.0090   -0.0320 hc        1 NZ2      0.035367
     18 H2          0.1570    0.9190    1.3620 hc        1 NZ2      0.035367
     19 H3          0.1290   -0.8940    1.3930 hc        1 NZ2      0.035367
     20 H4          1.6700    0.9200   -0.5980 h1        1 NZ2      0.068700
     21 H6          0.5280   -3.0660   -2.1050 ha        1 NZ2      0.174000
     22 H7         -0.0760   -5.2930   -1.2160 ha        1 NZ2      0.119000
     23 H8          0.5840   -5.9620    1.0960 ha        1 NZ2      0.112000
     24 H9          1.8780   -4.3700    2.5200 ha        1 NZ2      0.119000
     25 H10         2.5120   -2.1250    1.6550 ha        1 NZ2      0.174000
     26 H11         4.5810   -0.9520   -0.6550 h1        1 NZ2      0.129367
     27 H12         5.0380   -0.6360   -2.3600 h1        1 NZ2      0.129367
     28 H13         4.6390   -2.3080   -1.8320 h1        1 NZ2      0.129367
@<TRIPOS>BOND
     1    1    2 1   
     2    1   17 1   
     3    1   18 1   
     4    1   19 1   
     5    2    3 1   
     6    2    6 1   
     7    2   20 1   
     8    3    4 1   
     9    3    5 1   
    10    6    7 1   
    11    6   13 1   
    12    7    8 ar  
    13    7   12 ar  
    14    8    9 ar  
    15    8   21 1   
    16    9   10 ar  
    17    9   22 1   
    18   10   11 ar  
    19   10   23 1   
    20   11   12 ar  
    21   11   24 1   
    22   12   25 1   
    23   13   14 1   
    24   13   15 2   
    25   13   16 2   
    26   14   26 1   
    27   14   27 1   
    28   14   28 1   
@<TRIPOS>SUBSTRUCTURE
     1 NZ2         1 TEMP              0 ****  ****    0 ROOT
