@<TRIPOS>MOLECULE
NZ3
   28    28     1     0     0
SMALL
bcc


@<TRIPOS>ATOM
      1 C01         0.2210   -0.2340    0.2100 c3        1 NZ3     -0.084100
      2 C02         1.7160    0.0360    0.0990 c3        1 NZ3      0.089500
      3 C03         2.3640    0.0940    1.5330 c         1 NZ3      0.917600
      4 O04         1.7310   -0.4740    2.4610 o         1 NZ3     -0.824300
      5 O05         3.4930    0.6430    1.6580 o         1 NZ3     -0.824300
      6 N06         2.0190    1.1800   -0.7580 nh        1 NZ3     -0.678900
      7 C07         1.5380    2.4460   -0.3440 ca        1 NZ3      0.153600
      8 C08         0.4120    3.0220   -0.9730 ca        1 NZ3     -0.119000
      9 C09        -0.0460    4.2780   -0.5860 ca        1 NZ3     -0.141500
     10 C10         0.5910    4.9770    0.4370 ca        1 NZ3     -0.141000
     11 C11         1.6890    4.4090    1.0810 ca        1 NZ3     -0.141500
     12 C12         2.1650    3.1550    0.7050 ca        1 NZ3     -0.119000
     13 S13         2.9580    1.0270   -2.0590 s6        1 NZ3      1.459900
     14 C14         1.8250    1.2120   -3.3550 c3        1 NZ3     -0.338300
     15 O15         3.8820    2.0840   -2.2260 o         1 NZ3     -0.663300
     16 O16         3.4940   -0.2740   -2.2180 o         1 NZ3     -0.663300
     17 H1         -0.3120    0.6510    0.6290 hc        1 NZ3      0.030700
     18 H2         -0.2250   -0.4870   -0.7820 hc        1 NZ3      0.030700
     19 H3          0.0790   -1.0930    0.9110 hc        1 NZ3      0.030700
     20 H4          2.2020   -0.8650   -0.3900 h1        1 NZ3      0.063700
     21 H6         -0.1170    2.4760   -1.7700 ha        1 NZ3      0.166500
     22 H7         -0.9200    4.7150   -1.0890 ha        1 NZ3      0.119500
     23 H8          0.2250    5.9680    0.7390 ha        1 NZ3      0.114000
     24 H9          2.1860    4.9480    1.9000 ha        1 NZ3      0.119500
     25 H10         3.0190    2.6880    1.2390 ha        1 NZ3      0.166500
     26 H11         1.4520    2.2590   -3.4450 h1        1 NZ3      0.092700
     27 H12         2.3200    0.9550   -4.3220 h1        1 NZ3      0.092700
     28 H13         0.9360    0.5480   -3.2570 h1        1 NZ3      0.092700
@<TRIPOS>BOND
     1    1    2 1   
     2    1   17 1   
     3    1   18 1   
     4    1   19 1   
     5    2    3 1   
     6    2    6 1   
     7    2   20 1   
     8    3    4 1   
     9    3    5 1   
    10    6    7 1   
    11    6   13 1   
    12    7    8 ar  
    13    7   12 ar  
    14    8    9 ar  
    15    8   21 1   
    16    9   10 ar  
    17    9   22 1   
    18   10   11 ar  
    19   10   23 1   
    20   11   12 ar  
    21   11   24 1   
    22   12   25 1   
    23   13   14 1   
    24   13   15 2   
    25   13   16 2   
    26   14   26 1   
    27   14   27 1   
    28   14   28 1   
@<TRIPOS>SUBSTRUCTURE
     1 NZ3         1 TEMP              0 ****  ****    0 ROOT
