@<TRIPOS>MOLECULE
NZ3
   29    29     1     0     0
SMALL
bcc


@<TRIPOS>ATOM
      1 C01         0.2060    0.3270    0.2050 c3        1 NZ3     -0.092100
      2 C02         1.6790    0.1370   -0.0620 c3        1 NZ3     -0.058500
      3 C03         2.3770   -0.3460    1.3130 c         1 NZ3      0.941600
      4 O04         1.8730   -1.3570    1.8230 o         1 NZ3     -0.752800
      5 O05         3.3540    0.3570    1.6840 o         1 NZ3     -0.752800
      6 N06         2.4080    1.3380   -0.6070 n4        1 NZ3     -0.529700
      7 C07         1.7670    2.6000   -0.2520 ca        1 NZ3      0.002600
      8 C08         0.9000    3.2620   -1.1410 ca        1 NZ3     -0.102500
      9 C09         0.3280    4.4760   -0.7690 ca        1 NZ3     -0.116000
     10 C10         0.5970    5.0330    0.4810 ca        1 NZ3     -0.099000
     11 C11         1.4420    4.3700    1.3700 ca        1 NZ3     -0.116000
     12 C12         2.0270    3.1550    1.0180 ca        1 NZ3     -0.102500
     13 S13         2.9170    1.1610   -2.3270 s6        1 NZ3      1.373900
     14 C14         1.5690    0.4960   -3.0590 c3        1 NZ3     -0.414300
     15 O15         3.1590    2.4380   -2.8250 o         1 NZ3     -0.583800
     16 O16         3.9680    0.2510   -2.3040 o         1 NZ3     -0.583800
     17 H1         -0.1770   -0.6400    0.6260 hc        1 NZ3      0.057367
     18 H2          0.0350    1.1270    0.9660 hc        1 NZ3      0.057367
     19 H3         -0.3700    0.5810   -0.7170 hc        1 NZ3      0.057367
     20 H4          1.8450   -0.6970   -0.8010 hx        1 NZ3      0.069700
     21 H6          0.6780    2.8510   -2.1390 ha        1 NZ3      0.164500
     22 H7         -0.3390    4.9960   -1.4740 ha        1 NZ3      0.151500
     23 H8          0.1410    5.9930    0.7650 ha        1 NZ3      0.148000
     24 H9          1.6520    4.8010    2.3620 ha        1 NZ3      0.151500
     25 H10         2.6760    2.6150    1.7380 ha        1 NZ3      0.164500
     26 H11         1.7030   -0.5990   -3.2810 h1        1 NZ3      0.150700
     27 H12         0.5970    0.5580   -2.5040 h1        1 NZ3      0.150700
     28 H13         1.3650    0.9840   -4.0510 h1        1 NZ3      0.150700
     29 H061        3.2960    1.3150   -0.0150 hn        1 NZ3      0.510800
@<TRIPOS>BOND
     1    1    2 1   
     2    1   17 1   
     3    1   18 1   
     4    1   19 1   
     5    2    3 1   
     6    2    6 1   
     7    2   20 1   
     8    3    4 1   
     9    3    5 1   
    10    6    7 1   
    11    6   13 1   
    12    6   29 1   
    13    7    8 ar  
    14    7   12 ar  
    15    8    9 ar  
    16    8   21 1   
    17    9   10 ar  
    18    9   22 1   
    19   10   11 ar  
    20   10   23 1   
    21   11   12 ar  
    22   11   24 1   
    23   12   25 1   
    24   13   14 1   
    25   13   15 2   
    26   13   16 2   
    27   14   26 1   
    28   14   27 1   
    29   14   28 1   
@<TRIPOS>SUBSTRUCTURE
     1 NZ3         1 TEMP              0 ****  ****    0 ROOT
