@<TRIPOS>MOLECULE
NZ3
   28    28     1     0     0
SMALL
bcc


@<TRIPOS>ATOM
      1 C01         0.1800   -0.2160    0.1890 c3        1 NZ3     -0.085100
      2 C02         1.6800    0.0300    0.0930 c3        1 NZ3      0.089500
      3 C03         2.3160    0.0750    1.5320 c         1 NZ3      0.917600
      4 O04         1.6570   -0.4690    2.4570 o         1 NZ3     -0.824300
      5 O05         3.4590    0.5910    1.6650 o         1 NZ3     -0.824300
      6 N06         2.0090    1.1710   -0.7590 nh        1 NZ3     -0.678900
      7 C07         1.5560    2.4460   -0.3390 ca        1 NZ3      0.154600
      8 C08         0.4430    3.0480   -0.9660 ca        1 NZ3     -0.119000
      9 C09         0.0130    4.3130   -0.5740 ca        1 NZ3     -0.141500
     10 C10         0.6650    4.9940    0.4510 ca        1 NZ3     -0.141000
     11 C11         1.7500    4.3990    1.0920 ca        1 NZ3     -0.141500
     12 C12         2.1990    3.1370    0.7120 ca        1 NZ3     -0.119000
     13 S13         2.9410    1.0020   -2.0630 s6        1 NZ3      1.458900
     14 C14         1.8060    1.2070   -3.3550 c3        1 NZ3     -0.338300
     15 O15         3.8820    2.0430   -2.2320 o         1 NZ3     -0.663300
     16 O16         3.4530   -0.3080   -2.2240 o         1 NZ3     -0.663300
     17 H1         -0.2610   -0.4580   -0.8080 hc        1 NZ3      0.030700
     18 H2          0.0170   -1.0740    0.8860 hc        1 NZ3      0.030700
     19 H3         -0.3430    0.6770    0.6070 hc        1 NZ3      0.030700
     20 H4          2.1560   -0.8770   -0.3930 h1        1 NZ3      0.063700
     21 H6         -0.0990    2.5170   -1.7640 ha        1 NZ3      0.166000
     22 H7         -0.8520    4.7710   -1.0750 ha        1 NZ3      0.119500
     23 H8          0.3200    5.9910    0.7570 ha        1 NZ3      0.114000
     24 H9          2.2600    4.9250    1.9130 ha        1 NZ3      0.119500
     25 H10         3.0420    2.6490    1.2440 ha        1 NZ3      0.166000
     26 H11         2.2910    0.9360   -4.3230 h1        1 NZ3      0.092700
     27 H12         1.4560    2.2610   -3.4470 h1        1 NZ3      0.092700
     28 H13         0.9040    0.5620   -3.2520 h1        1 NZ3      0.092700
@<TRIPOS>BOND
     1    1    2 1   
     2    1   17 1   
     3    1   18 1   
     4    1   19 1   
     5    2    3 1   
     6    2    6 1   
     7    2   20 1   
     8    3    4 1   
     9    3    5 1   
    10    6    7 1   
    11    6   13 1   
    12    7    8 ar  
    13    7   12 ar  
    14    8    9 ar  
    15    8   21 1   
    16    9   10 ar  
    17    9   22 1   
    18   10   11 ar  
    19   10   23 1   
    20   11   12 ar  
    21   11   24 1   
    22   12   25 1   
    23   13   14 1   
    24   13   15 2   
    25   13   16 2   
    26   14   26 1   
    27   14   27 1   
    28   14   28 1   
@<TRIPOS>SUBSTRUCTURE
     1 NZ3         1 TEMP              0 ****  ****    0 ROOT
