@<TRIPOS>MOLECULE
NZ9
   24    25     1     0     0
SMALL
bcc


@<TRIPOS>ATOM
      1 C01         0.3160    0.2290    0.1320 cc        1 NZ9     -0.043000
      2 C02         1.6480    0.1730    0.4420 cd        1 NZ9     -0.239100
      3 S03         1.8790   -0.0620    2.0780 ss        1 NZ9      0.271200
      4 C04         0.2910   -0.0860    2.4450 cd        1 NZ9     -0.045700
      5 C05        -0.5200    0.0610    1.3030 cc        1 NZ9     -0.593500
      6 S06        -2.0920   -0.0210    1.1590 sy        1 NZ9      1.521200
      7 O07        -2.7570   -1.0750    1.7610 o         1 NZ9     -0.609800
      8 O08        -2.5470    0.3430   -0.1110 o         1 NZ9     -0.609800
      9 N09        -2.6240    1.4060    2.2380 ny        1 NZ9     -0.689900
     10 C10        -3.0250    2.6130    1.5370 cx        1 NZ9      0.028500
     11 C11        -3.5530    3.8210    2.2850 cx        1 NZ9     -0.113900
     12 C12        -2.2070    3.8870    1.6330 cx        1 NZ9     -0.113900
     13 C13        -0.1830   -0.2140    3.8960 c         1 NZ9      0.928200
     14 O14         0.3700   -1.0710    4.6090 o         1 NZ9     -0.767800
     15 O15        -1.0850    0.5980    4.2630 o         1 NZ9     -0.767800
     16 H1         -0.1060    0.3750   -0.8690 ha        1 NZ9      0.175000
     17 H2          2.4650    0.2640   -0.2740 h4        1 NZ9      0.186000
     18 H3         -1.8450    1.6180    2.9060 hn        1 NZ9      0.478800
     19 H4         -3.4910    2.3600    0.5530 hx        1 NZ9      0.142700
     20 H5         -3.6100    3.7970    3.3890 hc        1 NZ9      0.096450
     21 H6         -4.4060    4.3660    1.8400 hc        1 NZ9      0.096450
     22 H7         -1.3050    3.9120    2.2730 hc        1 NZ9      0.096450
     23 H8         -2.0730    4.4770    0.7070 hc        1 NZ9      0.096450
     24 H092       -3.3950    1.0940    2.8340 hn        1 NZ9      0.478800
@<TRIPOS>BOND
     1    1    2 2   
     2    1    5 1   
     3    1   16 1   
     4    2    3 1   
     5    2   17 1   
     6    3    4 1   
     7    4    5 2   
     8    4   13 1   
     9    5    6 1   
    10    6    7 2   
    11    6    8 2   
    12    6    9 1   
    13    9   10 1   
    14    9   18 1   
    15    9   24 1   
    16   10   11 1   
    17   10   12 1   
    18   10   19 1   
    19   11   12 1   
    20   11   20 1   
    21   11   21 1   
    22   12   22 1   
    23   12   23 1   
    24   13   14 1   
    25   13   15 1   
@<TRIPOS>SUBSTRUCTURE
     1 NZ9         1 TEMP              0 ****  ****    0 ROOT
