@<TRIPOS>MOLECULE
NZ9
   24    25     1     0     0
SMALL
bcc


@<TRIPOS>ATOM
      1 C01         0.3160    0.2180    0.1380 cc        1 NZ9     -0.043000
      2 C02         1.6460    0.1540    0.4520 cd        1 NZ9     -0.239100
      3 S03         1.8710   -0.0820    2.0890 ss        1 NZ9      0.271200
      4 C04         0.2810   -0.0960    2.4510 cd        1 NZ9     -0.045700
      5 C05        -0.5250    0.0560    1.3060 cc        1 NZ9     -0.593500
      6 S06        -2.0970   -0.0170    1.1570 sy        1 NZ9      1.521200
      7 O07        -2.7700   -1.0670    1.7580 o         1 NZ9     -0.609800
      8 O08        -2.5460    0.3490   -0.1140 o         1 NZ9     -0.609800
      9 N09        -2.6240    1.4140    2.2340 n4        1 NZ9     -0.688900
     10 C10        -3.0170    2.6230    1.5320 cx        1 NZ9      0.028500
     11 C11        -3.5420    3.8330    2.2770 cx        1 NZ9     -0.113900
     12 C12        -2.1940    3.8920    1.6290 cx        1 NZ9     -0.113900
     13 C13        -0.1980   -0.2200    3.9000 c         1 NZ9      0.928200
     14 O14         0.3470   -1.0800    4.6150 o         1 NZ9     -0.767800
     15 O15        -1.0970    0.5980    4.2640 o         1 NZ9     -0.767800
     16 H1         -0.1030    0.3660   -0.8640 ha        1 NZ9      0.175000
     17 H2          2.4660    0.2400   -0.2610 h4        1 NZ9      0.186000
     18 H3         -3.3980    1.1060    2.8280 hn        1 NZ9      0.478300
     19 H4         -3.4820    2.3710    0.5470 hx        1 NZ9      0.142700
     20 H5         -4.3900    4.3820    1.8300 hc        1 NZ9      0.096450
     21 H6         -3.6020    3.8100    3.3820 hc        1 NZ9      0.096450
     22 H7         -2.0540    4.4810    0.7040 hc        1 NZ9      0.096450
     23 H8         -1.2930    3.9130    2.2720 hc        1 NZ9      0.096450
     24 H092       -1.8450    1.6210    2.9040 hn        1 NZ9      0.478300
@<TRIPOS>BOND
     1    1    2 2   
     2    1    5 1   
     3    1   16 1   
     4    2    3 1   
     5    2   17 1   
     6    3    4 1   
     7    4    5 2   
     8    4   13 1   
     9    5    6 1   
    10    6    7 2   
    11    6    8 2   
    12    6    9 1   
    13    9   10 1   
    14    9   18 1   
    15    9   24 1   
    16   10   11 1   
    17   10   12 1   
    18   10   19 1   
    19   11   12 1   
    20   11   20 1   
    21   11   21 1   
    22   12   22 1   
    23   12   23 1   
    24   13   14 1   
    25   13   15 1   
@<TRIPOS>SUBSTRUCTURE
     1 NZ9         1 TEMP              0 ****  ****    0 ROOT
