@<TRIPOS>MOLECULE
NZ9
   24    25     1     0     0
SMALL
bcc


@<TRIPOS>ATOM
      1 C01         0.3300    0.2660    0.1230 cc        1 NZ9     -0.043000
      2 C02         1.6600    0.2080    0.4410 cd        1 NZ9     -0.239100
      3 S03         1.8820   -0.0570    2.0730 ss        1 NZ9      0.271200
      4 C04         0.2910   -0.0930    2.4290 cd        1 NZ9     -0.045700
      5 C05        -0.5130    0.0730    1.2850 cc        1 NZ9     -0.593500
      6 S06        -2.0840   -0.0110    1.1290 sy        1 NZ9      1.521200
      7 O07        -2.7490   -1.0780    1.7070 o         1 NZ9     -0.609800
      8 O08        -2.5310    0.3750   -0.1370 o         1 NZ9     -0.609800
      9 N09        -2.6270    1.3940    2.2310 n4        1 NZ9     -0.689900
     10 C10        -3.0260    2.6130    1.5500 cx        1 NZ9      0.028500
     11 C11        -3.5630    3.8060    2.3170 cx        1 NZ9     -0.113900
     12 C12        -2.2130    3.8860    1.6750 cx        1 NZ9     -0.113900
     13 C13        -0.1920   -0.2490    3.8740 c         1 NZ9      0.928200
     14 O14         0.3590   -1.1180    4.5750 o         1 NZ9     -0.767800
     15 O15        -1.1000    0.5530    4.2510 o         1 NZ9     -0.767800
     16 H1         -0.0860    0.4290   -0.8780 ha        1 NZ9      0.175000
     17 H2          2.4810    0.3150   -0.2680 h4        1 NZ9      0.186000
     18 H3         -1.8540    1.5950    2.9080 hn        1 NZ9      0.478300
     19 H4         -3.4860    2.3770    0.5590 hx        1 NZ9      0.142700
     20 H5         -3.6270    3.7600    3.4200 hc        1 NZ9      0.096450
     21 H6         -4.4140    4.3570    1.8760 hc        1 NZ9      0.096450
     22 H7         -2.0740    4.4940    0.7620 hc        1 NZ9      0.096450
     23 H8         -1.3150    3.9010    2.3210 hc        1 NZ9      0.096450
     24 H092       -3.4020    1.0680    2.8150 hn        1 NZ9      0.478300
@<TRIPOS>BOND
     1    1    2 2   
     2    1    5 1   
     3    1   16 1   
     4    2    3 1   
     5    2   17 1   
     6    3    4 1   
     7    4    5 2   
     8    4   13 1   
     9    5    6 1   
    10    6    7 2   
    11    6    8 2   
    12    6    9 1   
    13    9   10 1   
    14    9   18 1   
    15    9   24 1   
    16   10   11 1   
    17   10   12 1   
    18   10   19 1   
    19   11   12 1   
    20   11   20 1   
    21   11   21 1   
    22   12   22 1   
    23   12   23 1   
    24   13   14 1   
    25   13   15 1   
@<TRIPOS>SUBSTRUCTURE
     1 NZ9         1 TEMP              0 ****  ****    0 ROOT
