@<TRIPOS>MOLECULE
NZA
   42    34     1     0     0
SMALL
bcc


@<TRIPOS>ATOM
      1 CAM        -0.5320    4.0190    1.4550 c1        1 NZA     -0.117000
      2 CAJ        -1.4690    5.0400    1.5660 c1        1 NZA     -0.144000
      3 CAT        -2.1970    5.4380    0.4510 c1        1 NZA     -0.060000
      4 CLAC       -3.3670    6.7310    0.5880 cl        1 NZA     -0.050000
      5 CAK        -1.9880    4.8140   -0.7770 c2        1 NZA     -0.130000
      6 CAN        -1.0510    3.7930   -0.8870 c1        1 NZA     -0.090000
      7 CAV        -0.3230    3.3940    0.2250 c1        1 NZA     -0.101000
      8 CAQ         0.7730    2.3380    0.0820 c3        1 NZA      0.021000
      9 NBB         0.1910    1.0200    0.1970 n3        1 NZA     -0.153000
     10 CAY         0.0760    0.1680   -0.8690 c1        1 NZA      0.031000
     11 CAS        -0.1040    0.2580   -2.3910 c1        1 NZA      0.377000
     12 OAB         0.8740    0.0340   -3.1560 o         1 NZA     -0.525500
     13 OAA        -1.2390    0.5160   -2.8780 o         1 NZA     -0.525500
     14 CBA        -0.1590    0.3190    1.3500 c1        1 NZA      0.031000
     15 CAO        -0.2410    0.7090    2.7050 c1        1 NZA     -0.142000
     16 CAL        -0.6550   -0.2060    3.6690 c1        1 NZA     -0.142000
     17 CAU        -0.9870   -1.5030    3.2990 c1        1 NZA     -0.083000
     18 CLAD       -1.5090   -2.4770    4.6390 cl        1 NZA     -0.066000
     19 CAP        -0.9070   -1.8880    1.9620 c1        1 NZA     -0.094000
     20 CAZ        -0.4880   -0.9620    0.9850 c1        1 NZA     -0.223000
     21 CAX        -0.3440   -1.0640   -0.3910 c1        1 NZA     -0.223000
     22 SAR        -0.8050   -2.5350   -1.2600 s         1 NZA      0.383000
     23 CAW         0.6510   -3.5040   -1.6020 c2        1 NZA     -0.246000
     24 CAH         1.2630   -4.2200   -0.5790 c2        1 NZA     -0.106000
     25 CAF         2.3160   -5.0690   -0.8630 c1        1 NZA     -0.126000
     26 CAE         2.7650   -5.2070   -2.1720 c1        1 NZA     -0.142000
     27 CAG         2.1550   -4.4930   -3.1910 c1        1 NZA     -0.142000
     28 CAI         1.0980   -3.6410   -2.9060 c1        1 NZA     -0.132000
     29 HAM        -0.0190    3.7380    2.2390 ha        1 NZA      0.126000
     30 HAJ        -1.6910    5.4080    2.4530 ha        1 NZA      0.134000
     31 HAK        -2.5090    5.0990   -1.5740 ha        1 NZA      0.147000
     32 HAN        -0.9050    3.3580   -1.7430 ha        1 NZA      0.214000
     33 HAQ1        1.2040    2.4290   -0.7960 h1        1 NZA      0.115000
     34 HAQ2        1.4380    2.4630    0.7860 h1        1 NZA      0.115000
     35 HAO         0.0560    1.5940    2.9720 ha        1 NZA      0.119000
     36 HAL        -0.6420    0.0420    4.6120 ha        1 NZA      0.119000
     37 HAP        -1.1400   -2.7970    1.7020 ha        1 NZA      0.152000
     38 HAH         0.9510   -4.1250    0.3290 ha        1 NZA      0.191000
     39 HAF         2.7550   -5.5830   -0.1280 ha        1 NZA      0.124000
     40 HAE         3.5670   -5.7190   -2.3550 ha        1 NZA      0.119000
     41 HAG         2.4730   -4.5900   -4.1220 ha        1 NZA      0.119000
     42 HAI         0.6680   -3.1380   -3.6240 ha        1 NZA      0.124000
@<TRIPOS>BOND
     1    1    7 1   
     2    1   29 1   
     3    2    3 1   
     4    2   30 1   
     5    3    5 1   
     6    5    6 1   
     7    5   31 1   
     8    6   32 1   
     9    7    8 1   
    10    8    9 1   
    11    8   33 1   
    12    8   34 1   
    13    9   10 1   
    14    9   14 1   
    15   10   21 1   
    16   11   12 1   
    17   11   13 1   
    18   14   20 1   
    19   15   16 1   
    20   15   35 1   
    21   16   36 1   
    22   17   18 1   
    23   17   19 1   
    24   19   37 1   
    25   22   23 1   
    26   23   24 1   
    27   23   28 1   
    28   24   25 1   
    29   24   38 1   
    30   25   39 1   
    31   26   27 1   
    32   26   40 1   
    33   27   41 1   
    34   28   42 1   
@<TRIPOS>SUBSTRUCTURE
     1 NZA         1 TEMP              0 ****  ****    0 ROOT
