@<TRIPOS>MOLECULE
NZA
   42    45     1     0     0
SMALL
bcc


@<TRIPOS>ATOM
      1 CAM        -3.1110   -0.0730    0.4150 ca        1 NZA     -0.105000
      2 CAJ        -4.1960   -0.1070   -0.4610 ca        1 NZA     -0.135000
      3 CAT        -4.8940    1.0720   -0.7400 ca        1 NZA      0.017400
      4 CLAC       -6.2260    1.0350   -1.8060 cl        1 NZA     -0.127400
      5 CAK        -4.5140    2.2830   -0.1570 ca        1 NZA     -0.135000
      6 CAN        -3.4250    2.3090    0.7140 ca        1 NZA     -0.105000
      7 CAV        -2.7260    1.1360    1.0070 ca        1 NZA     -0.105300
      8 CAQ        -1.5860    1.1610    1.9890 c3        1 NZA      0.079600
      9 NBB        -0.3030    0.8260    1.4380 na        1 NZA     -0.060400
     10 CAY         0.2930   -0.4370    1.4900 cc        1 NZA      0.029700
     11 CAS        -0.4650   -1.6070    2.1400 c         1 NZA      0.925800
     12 OAB        -0.5180   -1.6250    3.3920 o         1 NZA     -0.790800
     13 OAA        -1.0340   -2.4050    1.3500 o         1 NZA     -0.790800
     14 CBA         0.5550    1.7080    0.7630 ca        1 NZA     -0.059200
     15 CAO         0.4240    3.0650    0.4490 ca        1 NZA     -0.130000
     16 CAL         1.4660    3.6860   -0.2290 ca        1 NZA     -0.141000
     17 CAU         2.6160    2.9650   -0.5860 ca        1 NZA     -0.005600
     18 CLAD        3.8680    3.7820   -1.4200 cl        1 NZA     -0.144400
     19 CAP         2.7710    1.6130   -0.2840 ca        1 NZA     -0.093000
     20 CAZ         1.7420    0.9660    0.3950 ca        1 NZA     -0.029800
     21 CAX         1.5600   -0.3930    0.8740 cd        1 NZA     -0.174600
     22 SAR         2.7530   -1.5520    0.8100 ss        1 NZA     -0.086500
     23 CAW         2.4100   -2.5850   -0.4940 ca        1 NZA     -0.018100
     24 CAH         1.1250   -2.9110   -0.9420 ca        1 NZA     -0.118000
     25 CAF         0.9570   -3.8130   -1.9910 ca        1 NZA     -0.134000
     26 CAE         2.0640   -4.4120   -2.5920 ca        1 NZA     -0.155000
     27 CAG         3.3460   -4.1040   -2.1380 ca        1 NZA     -0.134000
     28 CAI         3.5190   -3.1910   -1.1020 ca        1 NZA     -0.118000
     29 HAM        -2.5480   -1.0030    0.6440 ha        1 NZA      0.166500
     30 HAJ        -4.4940   -1.0580   -0.9250 ha        1 NZA      0.141000
     31 HAK        -5.0620    3.2080   -0.3840 ha        1 NZA      0.141000
     32 HAN        -3.1180    3.2630    1.1680 ha        1 NZA      0.166500
     33 HAQ1       -1.5110    2.1900    2.4460 h1        1 NZA      0.081200
     34 HAQ2       -1.8050    0.4120    2.8120 h1        1 NZA      0.081200
     35 HAO        -0.4800    3.6240    0.7240 ha        1 NZA      0.126000
     36 HAL         1.3860    4.7510   -0.4890 ha        1 NZA      0.128000
     37 HAP         3.6780    1.0600   -0.5690 ha        1 NZA      0.152000
     38 HAH         0.2420   -2.4750   -0.4330 ha        1 NZA      0.157500
     39 HAF        -0.0580   -4.0610   -2.3340 ha        1 NZA      0.117500
     40 HAE         1.9270   -5.1250   -3.4160 ha        1 NZA      0.111000
     41 HAG         4.2230   -4.5780   -2.6020 ha        1 NZA      0.117500
     42 HAI         4.5320   -2.9400   -0.7530 ha        1 NZA      0.157500
@<TRIPOS>BOND
     1    1    2 ar  
     2    1    7 ar  
     3    1   29 1   
     4    2    3 ar  
     5    2   30 1   
     6    3    4 1   
     7    3    5 ar  
     8    5    6 ar  
     9    5   31 1   
    10    6    7 ar  
    11    6   32 1   
    12    7    8 1   
    13    8    9 1   
    14    8   33 1   
    15    8   34 1   
    16    9   10 1   
    17    9   14 1   
    18   10   11 1   
    19   10   21 2   
    20   11   12 1   
    21   11   13 1   
    22   14   15 ar  
    23   14   20 ar  
    24   15   16 ar  
    25   15   35 1   
    26   16   17 ar  
    27   16   36 1   
    28   17   18 1   
    29   17   19 ar  
    30   19   20 ar  
    31   19   37 1   
    32   20   21 1   
    33   21   22 1   
    34   22   23 1   
    35   23   24 ar  
    36   23   28 ar  
    37   24   25 ar  
    38   24   38 1   
    39   25   26 ar  
    40   25   39 1   
    41   26   27 ar  
    42   26   40 1   
    43   27   28 ar  
    44   27   41 1   
    45   28   42 1   
@<TRIPOS>SUBSTRUCTURE
     1 NZA         1 TEMP              0 ****  ****    0 ROOT
