@<TRIPOS>MOLECULE
NZA
   42    45     1     0     0
SMALL
bcc


@<TRIPOS>ATOM
      1 CAM         0.2960   -0.3350    0.4930 ca        1 NZA     -0.105000
      2 CAJ         1.6560   -0.1040    0.6910 ca        1 NZA     -0.135000
      3 CAT         2.0770    0.6210    1.8100 ca        1 NZA      0.017400
      4 CLAC        3.7410    0.9120    2.0540 cl        1 NZA     -0.127400
      5 CAK         1.1510    1.1110    2.7340 ca        1 NZA     -0.135000
      6 CAN        -0.2070    0.8720    2.5310 ca        1 NZA     -0.105000
      7 CAV        -0.6400    0.1560    1.4110 ca        1 NZA     -0.105300
      8 CAQ        -2.1110   -0.0530    1.1710 c3        1 NZA      0.079600
      9 NBB        -2.5420   -1.4210    1.2040 na        1 NZA     -0.060400
     10 CAY        -2.7180   -2.2410    0.0860 cc        1 NZA      0.029700
     11 CAS        -2.3920   -1.6930   -1.3140 c         1 NZA      0.925800
     12 OAB        -3.2160   -0.8950   -1.8190 o         1 NZA     -0.790800
     13 OAA        -1.2810   -2.0350   -1.7980 o         1 NZA     -0.790800
     14 CBA        -2.8580   -2.1530    2.3600 ca        1 NZA     -0.059200
     15 CAO        -2.8430   -1.7960    3.7120 ca        1 NZA     -0.130000
     16 CAL        -3.2270   -2.7480    4.6480 ca        1 NZA     -0.141000
     17 CAU        -3.6190   -4.0340    4.2390 ca        1 NZA     -0.005600
     18 CLAD       -4.0820   -5.1660    5.4360 cl        1 NZA     -0.144400
     19 CAP        -3.6430   -4.4130    2.8990 ca        1 NZA     -0.093000
     20 CAZ        -3.2630   -3.4780    1.9400 ca        1 NZA     -0.029800
     21 CAX        -3.1760   -3.5110    0.4900 cd        1 NZA     -0.174600
     22 SAR        -3.7050   -4.7930   -0.4280 ss        1 NZA     -0.086500
     23 CAW        -2.3450   -5.6910   -0.9060 ca        1 NZA     -0.018100
     24 CAH        -1.0780   -5.1540   -1.1610 ca        1 NZA     -0.118000
     25 CAF        -0.0430   -5.9770   -1.6000 ca        1 NZA     -0.134000
     26 CAE        -0.2620   -7.3390   -1.8060 ca        1 NZA     -0.155000
     27 CAG        -1.5270   -7.8770   -1.5710 ca        1 NZA     -0.134000
     28 CAI        -2.5590   -7.0620   -1.1160 ca        1 NZA     -0.118000
     29 HAM        -0.0510   -0.9110   -0.3920 ha        1 NZA      0.166500
     30 HAJ         2.3880   -0.4940   -0.0320 ha        1 NZA      0.141000
     31 HAK         1.4870    1.6760    3.6150 ha        1 NZA      0.141000
     32 HAN        -0.9390    1.2490    3.2610 ha        1 NZA      0.166500
     33 HAQ1       -2.7000    0.5180    1.9450 h1        1 NZA      0.081200
     34 HAQ2       -2.3670    0.3560    0.1440 h1        1 NZA      0.081200
     35 HAO        -2.5300   -0.7920    4.0280 ha        1 NZA      0.126000
     36 HAL        -3.2210   -2.4930    5.7170 ha        1 NZA      0.128000
     37 HAP        -3.9520   -5.4230    2.5920 ha        1 NZA      0.152000
     38 HAH        -0.9140   -4.0640   -1.0460 ha        1 NZA      0.157500
     39 HAF         0.9480   -5.5420   -1.7970 ha        1 NZA      0.117500
     40 HAE         0.5550   -7.9840   -2.1570 ha        1 NZA      0.111000
     41 HAG        -1.7090   -8.9480   -1.7380 ha        1 NZA      0.117500
     42 HAI        -3.5530   -7.4910   -0.9190 ha        1 NZA      0.157500
@<TRIPOS>BOND
     1    1    2 ar  
     2    1    7 ar  
     3    1   29 1   
     4    2    3 ar  
     5    2   30 1   
     6    3    4 1   
     7    3    5 ar  
     8    5    6 ar  
     9    5   31 1   
    10    6    7 ar  
    11    6   32 1   
    12    7    8 1   
    13    8    9 1   
    14    8   33 1   
    15    8   34 1   
    16    9   10 1   
    17    9   14 1   
    18   10   11 1   
    19   10   21 2   
    20   11   12 1   
    21   11   13 1   
    22   14   15 ar  
    23   14   20 ar  
    24   15   16 ar  
    25   15   35 1   
    26   16   17 ar  
    27   16   36 1   
    28   17   18 1   
    29   17   19 ar  
    30   19   20 ar  
    31   19   37 1   
    32   20   21 1   
    33   21   22 1   
    34   22   23 1   
    35   23   24 ar  
    36   23   28 ar  
    37   24   25 ar  
    38   24   38 1   
    39   25   26 ar  
    40   25   39 1   
    41   26   27 ar  
    42   26   40 1   
    43   27   28 ar  
    44   27   41 1   
    45   28   42 1   
@<TRIPOS>SUBSTRUCTURE
     1 NZA         1 TEMP              0 ****  ****    0 ROOT
