@<TRIPOS>MOLECULE
NZF
   70    73     1     0     0
SMALL
bcc


@<TRIPOS>ATOM
      1 C17         8.5830    3.3300   -0.2020 c3        1 NZF      0.110700
      2 O1          9.0360    1.9850   -0.3100 os        1 NZF     -0.311900
      3 C15         8.0620    1.0270   -0.5040 ca        1 NZF      0.148600
      4 C16         6.6920    1.2730   -0.3970 ca        1 NZF     -0.235500
      5 C14         8.5450   -0.2640   -0.8090 ca        1 NZF      0.031100
      6 O2          9.8940   -0.4460   -1.0450 os        1 NZF     -0.308900
      7 C18        10.5650   -1.1670   -0.0100 c3        1 NZF      0.114700
      8 C13         7.6140   -1.3100   -0.9740 ca        1 NZF      0.148600
      9 O3          8.1650   -2.5500   -1.2240 os        1 NZF     -0.311900
     10 C19         7.2490   -3.6070   -1.4940 c3        1 NZF      0.110700
     11 C12         6.2370   -1.0760   -0.8770 ca        1 NZF     -0.235500
     12 C11         5.7710    0.2180   -0.5850 ca        1 NZF      0.189600
     13 N4          4.3850    0.5070   -0.5630 nh        1 NZF     -0.707300
     14 C10         3.5020   -0.1250    0.3410 ca        1 NZF      0.891900
     15 N3          2.3120    0.5460    0.5750 nb        1 NZF     -0.800000
     16 N2          3.8420   -1.3540    0.8860 nb        1 NZF     -0.746000
     17 C9          2.9070   -1.9250    1.6610 ca        1 NZF      0.468200
     18 C8          1.6570   -1.3590    1.9340 ca        1 NZF     -0.427600
     19 C7          1.3810   -0.0850    1.3490 ca        1 NZF      0.690200
     20 N1          0.0930    0.4890    1.5390 nh        1 NZF     -0.736300
     21 C3         -0.2620    1.6170    0.6910 c3        1 NZF      0.194800
     22 C2         -0.2840    0.6810    2.9340 c3        1 NZF      0.186800
     23 C1         -1.7780    0.9570    3.0900 c3        1 NZF     -0.083400
     24 C5         -2.2310    2.0930    2.1990 c3        1 NZF     -0.081400
     25 C4         -1.7590    1.9680    0.7640 c3        1 NZF     -0.132700
     26 C6         -2.5370    1.0270   -0.1500 c         1 NZF      0.667100
     27 O4         -2.3160    1.0550   -1.3800 o         1 NZF     -0.622100
     28 N5         -3.4620    0.1500    0.3740 n         1 NZF     -0.557900
     29 C20        -4.2580   -0.7090   -0.4600 c3        1 NZF      0.134300
     30 C21        -5.5770   -0.1220   -0.8870 ca        1 NZF     -0.114300
     31 C27        -6.7700   -0.5940   -0.3370 ca        1 NZF     -0.108000
     32 C22        -5.6010    0.8850   -1.8590 ca        1 NZF     -0.104000
     33 C23        -6.8140    1.4250   -2.2860 ca        1 NZF     -0.123000
     34 C24        -8.0170    0.9700   -1.7470 ca        1 NZF     -0.124000
     35 C25        -7.9780   -0.0360   -0.7750 ca        1 NZF      0.074100
     36 O5         -9.1430   -0.4210   -0.1070 os        1 NZF     -0.371900
     37 C26       -10.0640   -1.2140   -0.8080 c3        1 NZF      0.819700
     38 F2         -9.5120   -2.3610   -1.2760 f         1 NZF     -0.217300
     39 F3        -11.0240   -1.5160    0.0990 f         1 NZF     -0.217300
     40 F1        -10.6270   -0.5410   -1.8440 f         1 NZF     -0.217300
     41 H1          7.9810    3.6230   -1.0950 h1        1 NZF      0.046367
     42 H2          7.9900    3.4700    0.7350 h1        1 NZF      0.046367
     43 H3          9.5350    3.9180   -0.1570 h1        1 NZF      0.046367
     44 H4          6.3330    2.2860   -0.1650 ha        1 NZF      0.152000
     45 H5         11.6190   -1.2300   -0.3770 h1        1 NZF      0.040700
     46 H6         10.5130   -0.6030    0.9520 h1        1 NZF      0.040700
     47 H7         10.1200   -2.1840    0.1050 h1        1 NZF      0.040700
     48 H8          6.6200   -3.3680   -2.3850 h1        1 NZF      0.046367
     49 H9          7.9190   -4.4780   -1.7040 h1        1 NZF      0.046367
     50 H10         6.6070   -3.8080   -0.6010 h1        1 NZF      0.046367
     51 H11         5.5250   -1.9000   -1.0300 ha        1 NZF      0.152000
     52 H12         4.1680    1.4670   -0.7490 hn        1 NZF      0.438800
     53 H13         3.1860   -2.9070    2.0880 h4        1 NZF      0.027100
     54 H14         0.9200   -1.8890    2.5470 ha        1 NZF      0.157000
     55 H15         0.3190    2.5410    0.9770 h1        1 NZF      0.068700
     56 H16        -0.0130    1.3580   -0.3790 h1        1 NZF      0.068700
     57 H17        -0.0240   -0.2470    3.5150 h1        1 NZF      0.044700
     58 H18         0.2900    1.5430    3.3860 h1        1 NZF      0.044700
     59 H19        -2.3530    0.0200    2.8750 hc        1 NZF      0.051700
     60 H20        -1.9700    1.2250    4.1630 hc        1 NZF      0.051700
     61 H21        -3.3470    2.1920    2.2410 hc        1 NZF      0.050200
     62 H22        -1.8080    3.0520    2.6090 hc        1 NZF      0.050200
     63 H23        -1.8700    2.9820    0.2750 hc        1 NZF      0.085700
     64 H24        -3.7350    0.2390    1.3230 hn        1 NZF      0.311500
     65 H25        -3.6630   -0.9560   -1.3890 h1        1 NZF      0.072200
     66 H26        -4.4430   -1.6660    0.1100 h1        1 NZF      0.072200
     67 H27        -6.7760   -1.3830    0.4280 ha        1 NZF      0.150000
     68 H28        -4.6470    1.2430   -2.2840 ha        1 NZF      0.165000
     69 H29        -6.8240    2.2140   -3.0530 ha        1 NZF      0.144000
     70 H30        -8.9820    1.3840   -2.0750 ha        1 NZF      0.154000
@<TRIPOS>BOND
     1    1    2 1   
     2    1   41 1   
     3    1   42 1   
     4    1   43 1   
     5    2    3 1   
     6    3    4 ar  
     7    3    5 ar  
     8    4   12 ar  
     9    4   44 1   
    10    5    6 1   
    11    5    8 ar  
    12    6    7 1   
    13    7   45 1   
    14    7   46 1   
    15    7   47 1   
    16    8    9 1   
    17    8   11 ar  
    18    9   10 1   
    19   10   48 1   
    20   10   49 1   
    21   10   50 1   
    22   11   12 ar  
    23   11   51 1   
    24   12   13 1   
    25   13   14 1   
    26   13   52 1   
    27   14   15 ar  
    28   14   16 ar  
    29   15   19 ar  
    30   16   17 ar  
    31   17   18 ar  
    32   17   53 1   
    33   18   19 ar  
    34   18   54 1   
    35   19   20 1   
    36   20   21 1   
    37   20   22 1   
    38   21   25 1   
    39   21   55 1   
    40   21   56 1   
    41   22   23 1   
    42   22   57 1   
    43   22   58 1   
    44   23   24 1   
    45   23   59 1   
    46   23   60 1   
    47   24   25 1   
    48   24   61 1   
    49   24   62 1   
    50   25   26 1   
    51   25   63 1   
    52   26   27 2   
    53   26   28 1   
    54   28   29 1   
    55   28   64 1   
    56   29   30 1   
    57   29   65 1   
    58   29   66 1   
    59   30   31 ar  
    60   30   32 ar  
    61   31   35 ar  
    62   31   67 1   
    63   32   33 ar  
    64   32   68 1   
    65   33   34 ar  
    66   33   69 1   
    67   34   35 ar  
    68   34   70 1   
    69   35   36 1   
    70   36   37 1   
    71   37   38 1   
    72   37   39 1   
    73   37   40 1   
@<TRIPOS>SUBSTRUCTURE
     1 NZF         1 TEMP              0 ****  ****    0 ROOT
