@<TRIPOS>MOLECULE
NZF
   72    75     1     0     0
SMALL
bcc


@<TRIPOS>ATOM
      1 C17        -0.7720    0.1260    1.9370 c3        1 NZF      0.104700
      2 O1          0.3820    0.8940    1.6010 os        1 NZF     -0.295900
      3 C15         1.5510    0.5660    2.2420 ca        1 NZF      0.109600
      4 C16         1.6350   -0.2740    3.3490 ca        1 NZF     -0.170000
      5 C14         2.7150    1.1870    1.6920 ca        1 NZF      0.168100
      6 O2          2.4570    2.0000    0.6330 os        1 NZF     -0.275900
      7 C18         3.5530    2.5590   -0.0990 c3        1 NZF      0.114700
      8 C13         3.9660    0.9280    2.2990 ca        1 NZF      0.109600
      9 O3          5.0560    1.5650    1.7480 os        1 NZF     -0.295900
     10 C19         6.3460    1.1450    2.1880 c3        1 NZF      0.104700
     11 C12         4.0610    0.0820    3.4100 ca        1 NZF     -0.170000
     12 C11         2.8990   -0.5130    3.9190 ca        1 NZF     -0.058400
     13 N4          3.0000   -1.4240    5.0640 n4        1 NZF     -0.598100
     14 C10         3.0960   -0.6690    6.3600 ca        1 NZF      0.752900
     15 N3          1.9340   -0.5300    7.0660 nb        1 NZF     -0.737000
     16 N2          4.3360   -0.1850    6.6790 nb        1 NZF     -0.674000
     17 C9          4.3950    0.5110    7.8340 ca        1 NZF      0.480200
     18 C8          3.2800    0.7270    8.6560 ca        1 NZF     -0.334600
     19 C7          2.0260    0.1740    8.2440 ca        1 NZF      0.685200
     20 N1          0.9030    0.3040    9.1000 nh        1 NZF     -0.749300
     21 C3         -0.2550   -0.5310    8.8250 c3        1 NZF      0.192800
     22 C2          0.5600    1.6800    9.4610 c3        1 NZF      0.174800
     23 C1         -0.4170    1.7400   10.6350 c3        1 NZF     -0.091400
     24 C5         -1.6330    0.8770   10.3760 c3        1 NZF     -0.103400
     25 C4         -1.2400   -0.5470   10.0170 c3        1 NZF     -0.138700
     26 C6         -0.6320   -1.3430   11.1490 c         1 NZF      0.545100
     27 O4          0.2630   -2.1690   11.0640 o         1 NZF     -0.401100
     28 N5         -1.2270   -1.1270   12.5200 n4        1 NZF     -0.680800
     29 C20        -0.7720   -2.1280   13.5490 c3        1 NZF      0.177100
     30 C21        -1.3120   -1.7760   14.8920 ca        1 NZF     -0.165300
     31 C27        -0.7460   -0.7070   15.5930 ca        1 NZF     -0.137000
     32 C22        -2.3400   -2.5350   15.4600 ca        1 NZF     -0.113000
     33 C23        -2.8040   -2.2260   16.7400 ca        1 NZF     -0.078000
     34 C24        -2.2640   -1.1580   17.4530 ca        1 NZF     -0.127000
     35 C25        -1.2380   -0.4000   16.8710 ca        1 NZF      0.149100
     36 O5         -0.6460    0.7120   17.4440 os        1 NZF     -0.379900
     37 C26        -0.8190    0.9910   18.8190 c3        1 NZF      0.833700
     38 F2         -0.4880   -0.0690   19.5910 f         1 NZF     -0.194633
     39 F3          0.0240    2.0230   19.0440 f         1 NZF     -0.194633
     40 F1         -2.0960    1.3650   19.0730 f         1 NZF     -0.194633
     41 H1         -0.5840   -0.9640    1.7870 h1        1 NZF      0.058533
     42 H2         -1.5400    0.5010    1.2120 h1        1 NZF      0.058533
     43 H3         -1.0860    0.3360    2.9880 h1        1 NZF      0.058533
     44 H4          0.7240   -0.7380    3.7560 ha        1 NZF      0.162000
     45 H5          4.1190    3.2750    0.5450 h1        1 NZF      0.069367
     46 H6          4.2200    1.7530   -0.4850 h1        1 NZF      0.069367
     47 H7          3.0330    3.0930   -0.9370 h1        1 NZF      0.069367
     48 H8          7.0370    1.7200    1.5180 h1        1 NZF      0.058533
     49 H9          6.4780    0.0460    2.0430 h1        1 NZF      0.058533
     50 H10         6.5050    1.4320    3.2560 h1        1 NZF      0.058533
     51 H11         5.0430   -0.1010    3.8760 ha        1 NZF      0.162000
     52 H12         3.8490   -1.9990    4.9590 hn        1 NZF      0.476800
     53 H13         5.3990    0.9040    8.1020 h4        1 NZF      0.078100
     54 H14         3.3870    1.2870    9.5960 ha        1 NZF      0.189000
     55 H15        -0.8310   -0.1690    7.9240 h1        1 NZF      0.085200
     56 H16         0.0900   -1.5870    8.6320 h1        1 NZF      0.085200
     57 H17         1.5010    2.2290    9.7490 h1        1 NZF      0.073200
     58 H18         0.0990    2.2160    8.5800 h1        1 NZF      0.073200
     59 H19         0.0980    1.4190   11.5780 hc        1 NZF      0.069700
     60 H20        -0.7320    2.8090   10.7690 hc        1 NZF      0.069700
     61 H21        -2.3350    0.9120   11.2470 hc        1 NZF      0.077700
     62 H22        -2.2020    1.3000    9.5000 hc        1 NZF      0.077700
     63 H23        -2.1580   -1.1200    9.6860 hc        1 NZF      0.120700
     64 H24        -2.2510   -1.1600   12.4500 hn        1 NZF      0.461800
     65 H25        -1.1210   -3.1470   13.2140 hx        1 NZF      0.118700
     66 H26         0.3580   -2.1220   13.5540 hx        1 NZF      0.118700
     67 H27         0.0870   -0.1180   15.1820 ha        1 NZF      0.152000
     68 H28        -2.7730   -3.3890   14.9160 ha        1 NZF      0.150000
     69 H29        -3.6040   -2.8350   17.1950 ha        1 NZF      0.174000
     70 H30        -2.6330   -0.9190   18.4660 ha        1 NZF      0.181000
     71 H42         2.1720   -2.0350    5.0860 hn        1 NZF      0.476800
     72 H52        -0.9680   -0.1840   12.8420 hn        1 NZF      0.461800
@<TRIPOS>BOND
     1    1    2 1   
     2    1   41 1   
     3    1   42 1   
     4    1   43 1   
     5    2    3 1   
     6    3    4 ar  
     7    3    5 ar  
     8    4   12 ar  
     9    4   44 1   
    10    5    6 1   
    11    5    8 ar  
    12    6    7 1   
    13    7   45 1   
    14    7   46 1   
    15    7   47 1   
    16    8    9 1   
    17    8   11 ar  
    18    9   10 1   
    19   10   48 1   
    20   10   49 1   
    21   10   50 1   
    22   11   12 ar  
    23   11   51 1   
    24   12   13 1   
    25   13   14 1   
    26   13   52 1   
    27   13   71 1   
    28   14   15 ar  
    29   14   16 ar  
    30   15   19 ar  
    31   16   17 ar  
    32   17   18 ar  
    33   17   53 1   
    34   18   19 ar  
    35   18   54 1   
    36   19   20 1   
    37   20   21 1   
    38   20   22 1   
    39   21   25 1   
    40   21   55 1   
    41   21   56 1   
    42   22   23 1   
    43   22   57 1   
    44   22   58 1   
    45   23   24 1   
    46   23   59 1   
    47   23   60 1   
    48   24   25 1   
    49   24   61 1   
    50   24   62 1   
    51   25   26 1   
    52   25   63 1   
    53   26   27 2   
    54   26   28 1   
    55   28   29 1   
    56   28   64 1   
    57   28   72 1   
    58   29   30 1   
    59   29   65 1   
    60   29   66 1   
    61   30   31 ar  
    62   30   32 ar  
    63   31   35 ar  
    64   31   67 1   
    65   32   33 ar  
    66   32   68 1   
    67   33   34 ar  
    68   33   69 1   
    69   34   35 ar  
    70   34   70 1   
    71   35   36 1   
    72   36   37 1   
    73   37   38 1   
    74   37   39 1   
    75   37   40 1   
@<TRIPOS>SUBSTRUCTURE
     1 NZF         1 TEMP              0 ****  ****    0 ROOT
