@<TRIPOS>MOLECULE
NZF
   70    65     1     0     0
SMALL
bcc


@<TRIPOS>ATOM
      1 C17         2.2450   -2.0250   -6.1290 c3        1 NZF     -0.078000
      2 O1          1.7850   -0.7770   -6.7170 os        1 NZF     -0.203000
      3 C15         2.1840    0.3870   -5.9910 c2        1 NZF      0.103000
      4 C16         1.5110    0.7480   -4.8280 c2        1 NZF     -0.266000
      5 C14         3.1930    1.1690   -6.4610 c1        1 NZF     -0.053000
      6 O2          3.7520    0.9020   -7.7210 o         1 NZF     -0.215000
      7 C18         4.7940   -0.0350   -7.6940 c3        1 NZF     -0.077000
      8 C13         3.5510    2.3330   -5.7740 c2        1 NZF      0.112000
      9 O3          4.5220    3.1580   -6.2830 os        1 NZF     -0.211000
     10 C19         5.8660    2.8420   -5.8230 c3        1 NZF     -0.066000
     11 C12         2.8800    2.6890   -4.6180 c1        1 NZF     -0.157000
     12 C11         1.8700    1.9090   -4.1460 c1        1 NZF      0.102000
     13 N4          1.1540    2.3010   -2.9510 n3        1 NZF     -0.229000
     14 C10         1.7040    1.9680   -1.6120 c1        1 NZF      0.171000
     15 N3          0.8730    2.0070   -0.4910 n1        1 NZF     -0.272000
     16 N2          2.9680    1.5720   -1.4870 n1        1 NZF     -0.213000
     17 C9          3.4550    1.2000   -0.2450 c1        1 NZF     -0.135750
     18 C8          2.6370    1.2400    0.8500 c1        1 NZF     -0.135750
     19 C7          1.3490    1.6440    0.7200 c1        1 NZF      0.167000
     20 N1          0.4680    1.6700    1.8930 n2        1 NZF     -0.227000
     21 C3         -0.6810    0.8180    1.6560 c3        1 NZF     -0.043000
     22 C2          0.1840    2.8970    2.2020 c3        1 NZF     -0.051000
     23 C1         -0.6800    3.0530    3.2070 c3        1 NZF     -0.162000
     24 C5         -1.9260    2.2910    3.0610 c3        1 NZF     -0.160000
     25 C4         -1.7400    0.7480    2.8660 c3        1 NZF     -0.122000
     26 C6         -1.2880    0.0190    4.0540 c2        1 NZF      0.311000
     27 O4         -0.0790    0.0050    4.3520 o         1 NZF     -0.382000
     28 N5         -2.2700   -0.7730    4.8750 n         1 NZF     -0.369000
     29 C20        -1.9440   -2.1060    5.2870 c3        1 NZF      0.010000
     30 C21        -3.2360   -2.9030    5.5040 c2        1 NZF     -0.105000
     31 C27        -3.8830   -3.4900    4.4130 c2        1 NZF     -0.095000
     32 C22        -3.7780   -3.0260    6.7920 c1        1 NZF     -0.116000
     33 C23        -4.9490   -3.7290    6.9820 c1        1 NZF     -0.135750
     34 C24        -5.5980   -4.3180    5.8900 c1        1 NZF     -0.135750
     35 C25        -5.0560   -4.1940    4.6020 c1        1 NZF      0.032000
     36 O5         -5.6570   -4.9060    3.4940 os        1 NZF     -0.249000
     37 C26        -6.9010   -4.2730    2.9740 c3        1 NZF      0.534000
     38 F2         -6.6180   -3.0000    2.5450 f         1 NZF     -0.146667
     39 F3         -7.3830   -5.0030    1.9380 f         1 NZF     -0.146667
     40 F1         -7.8490   -4.2230    3.9800 f         1 NZF     -0.146667
     41 H1          1.8720   -2.8090   -6.6600 h1        1 NZF      0.085667
     42 H2          3.2170   -2.0550   -6.1500 h1        1 NZF      0.085667
     43 H3          1.9330   -2.0820   -5.1910 h1        1 NZF      0.085667
     44 H4          0.7820    0.1850   -4.4890 ha        1 NZF      0.141000
     45 H5          4.5320   -0.8300   -8.2040 h1        1 NZF      0.082333
     46 H6          4.9850   -0.2970   -6.7370 h1        1 NZF      0.082333
     47 H7          5.6230    0.3700   -8.1050 h1        1 NZF      0.082333
     48 H8          6.2360    2.1450   -6.3690 h1        1 NZF      0.087333
     49 H9          5.8290    2.5320   -4.8590 h1        1 NZF      0.087333
     50 H10         6.4370    3.6510   -5.8880 h1        1 NZF      0.087333
     51 H11         3.1290    3.4960   -4.1440 ha        1 NZF      0.173000
     52 H12         0.4020    2.8950   -3.0200 hn        1 NZF      0.234000
     53 H13         4.3840    0.9090   -0.1500 ha        1 NZF      0.154500
     54 H14         2.9680    0.9880    1.6920 ha        1 NZF      0.154500
     55 H15        -0.3460   -0.1250    1.4690 h1        1 NZF      0.108000
     56 H16        -1.1370    1.1370    0.8780 h1        1 NZF      0.108000
     57 H17        -0.1760    3.3200    1.4350 h1        1 NZF      0.084500
     58 H18         1.0040    3.3450    2.4390 h1        1 NZF      0.084500
     59 H19        -0.9010    3.9840    3.2730 hc        1 NZF      0.089500
     60 H20        -0.2170    2.7580    4.0890 hc        1 NZF      0.089500
     61 H21        -2.4550    2.4320    3.8400 hc        1 NZF      0.089500
     62 H22        -2.4190    2.6490    2.2810 hc        1 NZF      0.089500
     63 H23        -2.5960    0.2680    2.6220 hc        1 NZF      0.127000
     64 H24        -3.0980   -0.3900    5.1220 hn        1 NZF      0.224000
     65 H25        -1.3950   -2.5470    4.5790 h1        1 NZF      0.111500
     66 H26        -1.4470   -2.0770    6.1020 h1        1 NZF      0.111500
     67 H27        -3.5030   -3.4020    3.5110 ha        1 NZF      0.177000
     68 H28        -3.3200   -2.6090    7.5650 ha        1 NZF      0.136000
     69 H29        -5.3250   -3.8160    7.8780 ha        1 NZF      0.154500
     70 H30        -6.4240   -4.8140    6.0240 ha        1 NZF      0.154500
@<TRIPOS>BOND
     1    1    2 1   
     2    1   41 1   
     3    1   42 1   
     4    1   43 1   
     5    2    3 1   
     6    3    4 1   
     7    3    5 1   
     8    4   12 1   
     9    4   44 1   
    10    5    8 1   
    11    6    7 1   
    12    7   45 1   
    13    7   46 1   
    14    7   47 1   
    15    8    9 1   
    16    8   11 1   
    17    9   10 1   
    18   10   48 1   
    19   10   49 1   
    20   10   50 1   
    21   11   51 1   
    22   12   13 1   
    23   13   14 1   
    24   13   52 1   
    25   14   16 1   
    26   15   19 1   
    27   17   18 1   
    28   17   53 1   
    29   18   54 1   
    30   20   21 1   
    31   20   22 1   
    32   21   25 1   
    33   21   55 1   
    34   21   56 1   
    35   22   23 1   
    36   22   57 1   
    37   22   58 1   
    38   23   24 1   
    39   23   59 1   
    40   23   60 1   
    41   24   25 1   
    42   24   61 1   
    43   24   62 1   
    44   25   26 1   
    45   25   63 1   
    46   26   27 1   
    47   26   28 1   
    48   28   29 1   
    49   28   64 1   
    50   29   30 1   
    51   29   65 1   
    52   29   66 1   
    53   30   31 1   
    54   30   32 1   
    55   31   35 1   
    56   31   67 1   
    57   32   68 1   
    58   33   34 1   
    59   33   69 1   
    60   34   70 1   
    61   35   36 1   
    62   36   37 1   
    63   37   38 1   
    64   37   39 1   
    65   37   40 1   
@<TRIPOS>SUBSTRUCTURE
     1 NZF         1 TEMP              0 ****  ****    0 ROOT
