@<TRIPOS>MOLECULE
NZF
   71    74     1     0     0
SMALL
bcc


@<TRIPOS>ATOM
      1 C17         1.3520    1.2370    1.1060 c3        1 NZF      0.109700
      2 O1          2.6630    1.4580    1.6170 os        1 NZF     -0.303900
      3 C15         2.8980    1.0410    2.9080 ca        1 NZF      0.150600
      4 C16         1.9010    0.6050    3.7850 ca        1 NZF     -0.228500
      5 C14         4.2490    1.0950    3.3170 ca        1 NZF      0.052100
      6 O2          5.2210    1.3830    2.3830 os        1 NZF     -0.305900
      7 C18         5.8540    2.6520    2.5700 c3        1 NZF      0.113700
      8 C13         4.5690    0.7340    4.6420 ca        1 NZF      0.150600
      9 O3          5.9000    0.8610    4.9780 os        1 NZF     -0.303900
     10 C19         6.2830    0.3760    6.2610 c3        1 NZF      0.109700
     11 C12         3.5800    0.2920    5.5300 ca        1 NZF     -0.228500
     12 C11         2.2450    0.2260    5.0990 ca        1 NZF      0.166600
     13 N4          1.2310   -0.2940    5.9460 nh        1 NZF     -0.701300
     14 C10         0.8960    0.2910    7.1700 ca        1 NZF      0.909900
     15 N3         -0.3080   -0.1210    7.7330 nb        1 NZF     -0.803000
     16 N2          1.7810    1.1860    7.7740 nb        1 NZF     -0.714000
     17 C9          1.4290    1.6400    8.9790 ca        1 NZF      0.487200
     18 C8          0.2470    1.2650    9.6510 ca        1 NZF     -0.443600
     19 C7         -0.6060    0.3600    8.9700 ca        1 NZF      0.640200
     20 N1         -1.8020   -0.0790    9.6470 nh        1 NZF     -0.773300
     21 C3         -2.4130   -1.2990    9.1230 c3        1 NZF      0.155800
     22 C2         -2.7880    0.9950    9.8070 c3        1 NZF      0.150800
     23 C1         -3.9220    0.5880   10.7460 c3        1 NZF     -0.094400
     24 C5         -4.5460   -0.7310   10.3480 c3        1 NZF     -0.091400
     25 C4         -3.5170   -1.8160   10.0560 c3        1 NZF     -0.135700
     26 C6         -2.9780   -2.4060   11.3390 c         1 NZF      0.550100
     27 O4         -3.3650   -3.4320   11.8790 o         1 NZF     -0.423100
     28 N5         -1.8710   -1.6610   12.0400 n4        1 NZF     -0.689800
     29 C20        -0.6800   -2.5320   12.3030 c3        1 NZF      0.171100
     30 C21         0.3090   -1.8470   13.1860 ca        1 NZF     -0.149300
     31 C27         1.0090   -0.7380   12.7050 ca        1 NZF     -0.132000
     32 C22         0.5570   -2.3430   14.4700 ca        1 NZF     -0.110000
     33 C23         1.5140   -1.7290   15.2800 ca        1 NZF     -0.085000
     34 C24         2.2160   -0.6130   14.8270 ca        1 NZF     -0.133000
     35 C25         1.9540   -0.1230   13.5410 ca        1 NZF      0.134100
     36 O5          2.5330    1.0140   12.9970 os        1 NZF     -0.379900
     37 C26         3.7550    1.4990   13.5060 c3        1 NZF      0.830700
     38 F2          4.6950    0.5290   13.5950 f         1 NZF     -0.200633
     39 F3          4.1350    2.4330   12.6040 f         1 NZF     -0.200633
     40 F1          3.5770    2.0760   14.7190 f         1 NZF     -0.200633
     41 H1          0.6080    1.8670    1.6510 h1        1 NZF      0.048700
     42 H2          1.0750    0.1570    1.1690 h1        1 NZF      0.048700
     43 H3          1.4370    1.5620    0.0380 h1        1 NZF      0.048700
     44 H4          0.8560    0.5600    3.4470 ha        1 NZF      0.148500
     45 H5          6.3570    2.6920    3.5660 h1        1 NZF      0.046367
     46 H6          5.1060    3.4750    2.4720 h1        1 NZF      0.046367
     47 H7          6.6020    2.6920    1.7400 h1        1 NZF      0.046367
     48 H8          5.7970    0.9770    7.0680 h1        1 NZF      0.048700
     49 H9          6.0300   -0.7060    6.3680 h1        1 NZF      0.048700
     50 H10         7.3930    0.5260    6.2690 h1        1 NZF      0.048700
     51 H11         3.8520   -0.0020    6.5540 ha        1 NZF      0.148500
     52 H12         0.4870   -0.7600    5.4660 hn        1 NZF      0.449800
     53 H13         2.1360    2.3550    9.4450 h4        1 NZF      0.047100
     54 H14         0.0110    1.6780   10.6370 ha        1 NZF      0.156000
     55 H15        -2.8810   -1.1390    8.1080 h1        1 NZF      0.085700
     56 H16        -1.6150   -2.0860    9.0110 h1        1 NZF      0.085700
     57 H17        -3.2290    1.2900    8.8110 h1        1 NZF      0.073700
     58 H18        -2.2600    1.8970   10.2300 h1        1 NZF      0.073700
     59 H19        -3.5500    0.5410   11.8030 hc        1 NZF      0.059700
     60 H20        -4.7050    1.3930   10.7130 hc        1 NZF      0.059700
     61 H21        -5.2560   -1.0780   11.1440 hc        1 NZF      0.083200
     62 H22        -5.1480   -0.5840    9.4100 hc        1 NZF      0.083200
     63 H23        -4.0340   -2.6740    9.5290 hc        1 NZF      0.128700
     64 H24        -1.5780   -0.8430   11.4600 hn        1 NZF      0.474800
     65 H25        -0.2140   -2.7760   11.3040 hx        1 NZF      0.113200
     66 H26        -1.0480   -3.4910   12.7760 hx        1 NZF      0.113200
     67 H27         0.8450   -0.3400   11.6900 ha        1 NZF      0.162000
     68 H28         0.0130   -3.2250   14.8430 ha        1 NZF      0.153000
     69 H29         1.7170   -2.1270   16.2880 ha        1 NZF      0.167000
     70 H30         2.9710   -0.1300   15.4680 ha        1 NZF      0.173000
     71 H52        -2.2270   -1.3100   12.9360 hn        1 NZF      0.474800
@<TRIPOS>BOND
     1    1    2 1   
     2    1   41 1   
     3    1   42 1   
     4    1   43 1   
     5    2    3 1   
     6    3    4 ar  
     7    3    5 ar  
     8    4   12 ar  
     9    4   44 1   
    10    5    6 1   
    11    5    8 ar  
    12    6    7 1   
    13    7   45 1   
    14    7   46 1   
    15    7   47 1   
    16    8    9 1   
    17    8   11 ar  
    18    9   10 1   
    19   10   48 1   
    20   10   49 1   
    21   10   50 1   
    22   11   12 ar  
    23   11   51 1   
    24   12   13 1   
    25   13   14 1   
    26   13   52 1   
    27   14   15 ar  
    28   14   16 ar  
    29   15   19 ar  
    30   16   17 ar  
    31   17   18 ar  
    32   17   53 1   
    33   18   19 ar  
    34   18   54 1   
    35   19   20 1   
    36   20   21 1   
    37   20   22 1   
    38   21   25 1   
    39   21   55 1   
    40   21   56 1   
    41   22   23 1   
    42   22   57 1   
    43   22   58 1   
    44   23   24 1   
    45   23   59 1   
    46   23   60 1   
    47   24   25 1   
    48   24   61 1   
    49   24   62 1   
    50   25   26 1   
    51   25   63 1   
    52   26   27 2   
    53   26   28 1   
    54   28   29 1   
    55   28   64 1   
    56   28   71 1   
    57   29   30 1   
    58   29   65 1   
    59   29   66 1   
    60   30   31 ar  
    61   30   32 ar  
    62   31   35 ar  
    63   31   67 1   
    64   32   33 ar  
    65   32   68 1   
    66   33   34 ar  
    67   33   69 1   
    68   34   35 ar  
    69   34   70 1   
    70   35   36 1   
    71   36   37 1   
    72   37   38 1   
    73   37   39 1   
    74   37   40 1   
@<TRIPOS>SUBSTRUCTURE
     1 NZF         1 TEMP              0 ****  ****    0 ROOT
