@<TRIPOS>MOLECULE
NZF
   71    74     1     0     0
SMALL
bcc


@<TRIPOS>ATOM
      1 C17         1.3970    1.1980    1.1060 c3        1 NZF      0.109700
      2 O1          2.7330    1.2480    1.5990 os        1 NZF     -0.303900
      3 C15         2.9300    0.7990    2.8860 ca        1 NZF      0.150600
      4 C16         1.8970    0.4910    3.7750 ca        1 NZF     -0.228500
      5 C14         4.2820    0.6790    3.2770 ca        1 NZF      0.052100
      6 O2          5.2710    0.8440    2.3300 os        1 NZF     -0.305900
      7 C18         6.0630    2.0210    2.5110 c3        1 NZF      0.113700
      8 C13         4.5710    0.2740    4.5960 ca        1 NZF      0.150600
      9 O3          5.9120    0.2290    4.9140 os        1 NZF     -0.303900
     10 C19         6.2460   -0.3060    6.1910 c3        1 NZF      0.109700
     11 C12         3.5450   -0.0410    5.4970 ca        1 NZF     -0.228500
     12 C11         2.2080    0.0660    5.0840 ca        1 NZF      0.166600
     13 N4          1.1470   -0.3230    5.9440 nu        1 NZF     -0.701300
     14 C10         0.9050    0.2960    7.1720 ca        1 NZF      0.909900
     15 N3         -0.3350    0.0410    7.7510 nb        1 NZF     -0.803000
     16 N2          1.9040    1.0700    7.7660 nb        1 NZF     -0.714000
     17 C9          1.6290    1.5620    8.9750 ca        1 NZF      0.487200
     18 C8          0.4180    1.3390    9.6630 ca        1 NZF     -0.443600
     19 C7         -0.5530    0.5530    8.9920 ca        1 NZF      0.640200
     20 N1         -1.7870    0.2690    9.6840 nh        1 NZF     -0.773300
     21 C3         -2.5550   -0.8620    9.1680 c3        1 NZF      0.156800
     22 C2         -2.6250    1.4600    9.8570 c3        1 NZF      0.150800
     23 C1         -3.7900    1.1990   10.8110 c3        1 NZF     -0.094400
     24 C5         -4.5820   -0.0290   10.4190 c3        1 NZF     -0.091400
     25 C4         -3.7040   -1.2360   10.1140 c3        1 NZF     -0.135700
     26 C6         -3.2290   -1.8920   11.3900 c         1 NZF      0.550100
     27 O4         -3.7390   -2.8600   11.9350 o         1 NZF     -0.423100
     28 N5         -2.0260   -1.2980   12.0760 ny        1 NZF     -0.689800
     29 C20        -0.9540   -2.3160   12.3190 c3        1 NZF      0.172100
     30 C21         0.1280   -1.7680   13.1890 ca        1 NZF     -0.149300
     31 C27         0.9580   -0.7550   12.6990 ca        1 NZF     -0.132000
     32 C22         0.3300   -2.2970   14.4680 ca        1 NZF     -0.110000
     33 C23         1.3690   -1.8140   15.2640 ca        1 NZF     -0.085000
     34 C24         2.2020   -0.7960   14.8040 ca        1 NZF     -0.133000
     35 C25         1.9860   -0.2710   13.5230 ca        1 NZF      0.134100
     36 O5          2.6990    0.7840   12.9730 os        1 NZF     -0.379900
     37 C26         3.9820    1.1040   13.4620 c3        1 NZF      0.830700
     38 F2          4.7880    0.0200   13.5330 f         1 NZF     -0.200300
     39 F3          4.4650    1.9860   12.5570 f         1 NZF     -0.200300
     40 F1          3.9000    1.6930   14.6800 f         1 NZF     -0.200300
     41 H1          0.7480    1.9160    1.6630 h1        1 NZF      0.048700
     42 H2          0.9860    0.1620    1.1700 h1        1 NZF      0.048700
     43 H3          1.5100    1.5140    0.0370 h1        1 NZF      0.048700
     44 H4          0.8500    0.5810    3.4520 ha        1 NZF      0.148500
     45 H5          6.5800    1.9920    3.5010 h1        1 NZF      0.046367
     46 H6          5.4250    2.9330    2.4250 h1        1 NZF      0.046367
     47 H7          6.7990    1.9680    1.6710 h1        1 NZF      0.046367
     48 H8          5.8530    0.3490    7.0060 h1        1 NZF      0.048700
     49 H9          7.3660   -0.2990    6.1840 h1        1 NZF      0.048700
     50 H10         5.8590   -1.3470    6.2990 h1        1 NZF      0.048700
     51 H11         3.7910   -0.3710    6.5160 ha        1 NZF      0.148500
     52 H12         0.3430   -0.6890    5.4730 hn        1 NZF      0.449800
     53 H13         2.4280    2.1790    9.4330 h4        1 NZF      0.047100
     54 H14         0.2480    1.7770   10.6510 ha        1 NZF      0.156000
     55 H15        -1.8660   -1.7450    9.0450 h1        1 NZF      0.085700
     56 H16        -3.0110   -0.6410    8.1580 h1        1 NZF      0.085700
     57 H17        -3.0380    1.8100    8.8670 h1        1 NZF      0.073700
     58 H18        -1.9810    2.2850   10.2730 h1        1 NZF      0.073700
     59 H19        -3.4140    1.1020   11.8630 hc        1 NZF      0.059700
     60 H20        -4.4630    2.0980   10.7880 hc        1 NZF      0.059700
     61 H21        -5.1730    0.1960    9.4880 hc        1 NZF      0.083200
     62 H22        -5.3220   -0.2840   11.2240 hc        1 NZF      0.083200
     63 H23        -4.3330   -2.0200    9.5920 hc        1 NZF      0.128700
     64 H24        -2.3220   -0.9080   12.9780 hn        1 NZF      0.474800
     65 H25        -0.5370   -2.6130   11.3130 hx        1 NZF      0.113200
     66 H26        -1.4340   -3.2210   12.7960 hx        1 NZF      0.113200
     67 H27         0.8320   -0.3350   11.6880 ha        1 NZF      0.162000
     68 H28        -0.3180   -3.1030   14.8470 ha        1 NZF      0.153000
     69 H29         1.5340   -2.2400   16.2680 ha        1 NZF      0.167000
     70 H30         3.0230   -0.4160   15.4340 ha        1 NZF      0.173000
     71 H52        -1.6390   -0.5220   11.4940 hn        1 NZF      0.474800
@<TRIPOS>BOND
     1    1    2 1   
     2    1   41 1   
     3    1   42 1   
     4    1   43 1   
     5    2    3 1   
     6    3    4 ar  
     7    3    5 ar  
     8    4   12 ar  
     9    4   44 1   
    10    5    6 1   
    11    5    8 ar  
    12    6    7 1   
    13    7   45 1   
    14    7   46 1   
    15    7   47 1   
    16    8    9 1   
    17    8   11 ar  
    18    9   10 1   
    19   10   48 1   
    20   10   49 1   
    21   10   50 1   
    22   11   12 ar  
    23   11   51 1   
    24   12   13 1   
    25   13   14 1   
    26   13   52 1   
    27   14   15 ar  
    28   14   16 ar  
    29   15   19 ar  
    30   16   17 ar  
    31   17   18 ar  
    32   17   53 1   
    33   18   19 ar  
    34   18   54 1   
    35   19   20 1   
    36   20   21 1   
    37   20   22 1   
    38   21   25 1   
    39   21   55 1   
    40   21   56 1   
    41   22   23 1   
    42   22   57 1   
    43   22   58 1   
    44   23   24 1   
    45   23   59 1   
    46   23   60 1   
    47   24   25 1   
    48   24   61 1   
    49   24   62 1   
    50   25   26 1   
    51   25   63 1   
    52   26   27 2   
    53   26   28 1   
    54   28   29 1   
    55   28   64 1   
    56   28   71 1   
    57   29   30 1   
    58   29   65 1   
    59   29   66 1   
    60   30   31 ar  
    61   30   32 ar  
    62   31   35 ar  
    63   31   67 1   
    64   32   33 ar  
    65   32   68 1   
    66   33   34 ar  
    67   33   69 1   
    68   34   35 ar  
    69   34   70 1   
    70   35   36 1   
    71   36   37 1   
    72   37   38 1   
    73   37   39 1   
    74   37   40 1   
@<TRIPOS>SUBSTRUCTURE
     1 NZF         1 TEMP              0 ****  ****    0 ROOT
