@<TRIPOS>MOLECULE
NZH
   24    25     1     0     0
SMALL
bcc


@<TRIPOS>ATOM
      1 N           0.6620    1.3600    3.0510 n3        1 NZH     -0.896800
      2 CA         -0.2380    0.2610    3.3130 c3        1 NZH      0.061500
      3 CB         -0.2000   -0.9050    2.3030 c3        1 NZH     -0.137700
      4 CG         -0.4730   -0.4630    0.9210 cc        1 NZH      0.300600
      5 ND1        -1.5890    0.3180    0.5490 nc        1 NZH     -0.633000
      6 CE1        -1.5100    0.4850   -0.7750 cd        1 NZH      0.413400
      7 NE2        -0.3670   -0.1690   -1.3010 na        1 NZH     -0.251700
      8 CD2         0.2930   -0.7720   -0.2130 cd        1 NZH     -0.188600
      9 C           0.0000   -0.3580    4.6870 c         1 NZH      0.569900
     10 O           1.1190   -0.5830    5.1420 o         1 NZH     -0.518100
     11 N1         -0.6150    0.3730   -3.7320 na        1 NZH     -0.195400
     12 N2          0.1060    0.0890   -4.8280 nc        1 NZH     -0.179800
     13 N3          1.1190   -0.6110   -4.4710 nd        1 NZH     -0.029000
     14 N4          1.1650   -0.8460   -3.1660 nd        1 NZH     -0.371000
     15 C1          0.0490   -0.2230   -2.6240 cc        1 NZH      0.489000
     16 H           1.6130    1.0930    3.2190 hn        1 NZH      0.360300
     17 H2          0.5620    1.6720    2.1050 hn        1 NZH      0.360300
     18 HA         -1.2840    0.6970    3.3030 h1        1 NZH      0.089700
     19 HB2        -0.9710   -1.6640    2.6070 hc        1 NZH      0.066200
     20 HB3         0.8060   -1.4030    2.3380 hc        1 NZH      0.066200
     21 HE1        -2.2170    1.0440   -1.3970 h5        1 NZH      0.067100
     22 HD2         1.2120   -1.3470   -0.3420 h4        1 NZH      0.210000
     23 HC         -0.9280   -0.6120    5.2430 h4        1 NZH      0.005200
     24 HN1        -1.4500    0.9080   -3.7570 hn        1 NZH      0.340700
@<TRIPOS>BOND
     1    1    2 1   
     2    1   16 1   
     3    1   17 1   
     4    2    3 1   
     5    2    9 1   
     6    2   18 1   
     7    3    4 1   
     8    3   19 1   
     9    3   20 1   
    10    4    5 1   
    11    4    8 2   
    12    5    6 2   
    13    6    7 1   
    14    6   21 1   
    15    7    8 1   
    16    7   15 1   
    17    8   22 1   
    18    9   10 2   
    19    9   23 1   
    20   11   12 1   
    21   11   15 1   
    22   11   24 1   
    23   12   13 2   
    24   13   14 1   
    25   14   15 2   
@<TRIPOS>SUBSTRUCTURE
     1 NZH         1 TEMP              0 ****  ****    0 ROOT
