@<TRIPOS>MOLECULE
NZH
   24    22     1     0     0
SMALL
bcc


@<TRIPOS>ATOM
      1 N           0.6090   -2.0700   -2.9980 n3        1 NZH     -0.905800
      2 CA          1.0230   -1.8490   -1.6550 c3        1 NZH      0.062500
      3 CB         -0.1920   -1.6400   -0.7800 c3        1 NZH     -0.004200
      4 CG         -0.2080   -0.2150   -0.2720 ce        1 NZH      0.346400
      5 ND1         0.2270    0.8600   -0.9350 n1        1 NZH     -0.943500
      6 CE1        -0.0090    1.9510   -0.1670 c1        1 NZH      0.252500
      7 NE2        -0.5960    1.5360    0.9820 nh        1 NZH     -0.126400
      8 CD2        -0.7220    0.2070    0.9240 c1        1 NZH     -0.090900
      9 C           1.7970   -3.0500   -1.1620 c         1 NZH      0.529900
     10 O           2.9830   -2.9480   -0.9090 o         1 NZH     -0.519100
     11 N1         -0.5420    2.9690    3.0810 nc        1 NZH     -0.390800
     12 N2         -1.5190    3.7860    3.5130 nd        1 NZH     -0.022000
     13 N3         -2.5720    3.6450    2.6930 nd        1 NZH     -0.022000
     14 N4         -2.2480    2.7390    1.7530 nc        1 NZH     -0.390800
     15 C1         -0.9940    2.3220    1.9930 cc        1 NZH      0.572300
     16 H           1.1710   -1.6250   -3.5680 hn        1 NZH      0.362800
     17 H2          0.6350   -2.9670   -3.1820 hn        1 NZH      0.362800
     18 HA          1.5930   -1.0560   -1.6160 h1        1 NZH      0.084700
     19 HB2        -1.0020   -1.8090   -1.3020 hc        1 NZH      0.072700
     20 HB3        -0.1580   -2.2560   -0.0220 hc        1 NZH      0.072700
     21 HE1         0.2060    2.8740   -0.3990 DU        1 NZH      0.233667
     22 HD2        -1.1110   -0.3630    1.6150 DU        1 NZH      0.233667
     23 HC          1.3460   -3.9100   -1.0490 h4        1 NZH     -0.004800
     24 HN1         0.2810    2.8700    3.4600 DU        1 NZH      0.233667
@<TRIPOS>BOND
     1    1    2 1   
     2    1   16 1   
     3    1   17 1   
     4    2    3 1   
     5    2    9 1   
     6    2   18 1   
     7    3    4 1   
     8    3   19 1   
     9    3   20 1   
    10    4    5 1   
    11    4    8 2   
    12    5    6 3   
    13    6    7 1   
    14    7    8 2   
    15    7   15 2   
    16    9   10 2   
    17    9   23 1   
    18   11   12 2   
    19   11   15 1   
    20   12   13 1   
    21   13   14 2   
    22   14   15 1   
@<TRIPOS>SUBSTRUCTURE
     1 NZH         1 TEMP              0 ****  ****    0 ROOT
