@<TRIPOS>MOLECULE
NZL
   60    55     1     0     0
SMALL
bcc


@<TRIPOS>ATOM
      1 C27        -1.8580   -1.2980    1.7580 c2        1 NZL     -0.128000
      2 C26        -1.5560   -1.4160    0.4610 c2        1 NZL     -0.183000
      3 C28         0.1030   -0.8250    4.4710 c1        1 NZL      0.095000
      4 C25        -0.2280   -1.2690   -0.0970 c2        1 NZL     -0.029000
      5 C3          5.0630   -1.4820    2.5300 ca        1 NZL     -0.041000
      6 C4          6.3450   -1.1360    2.9490 ca        1 NZL     -0.109000
      7 C1          4.3730    0.8600    2.6170 ca        1 NZL     -0.104000
      8 C23         0.1600   -0.3350    5.6780 c2        1 NZL     -0.466000
      9 C24         0.8220   -0.7760    0.4940 c1        1 NZL      0.041000
     10 C2          4.0730   -0.4970    2.3070 ca        1 NZL     -0.118000
     11 C5          6.6600    0.1990    3.1760 ca        1 NZL     -0.009000
     12 C6          5.6680    1.2120    3.0130 ca        1 NZL      0.118000
     13 C22         1.0880    0.6740    6.2290 c3        1 NZL     -0.153000
     14 C8          8.6320    1.5400    3.5790 c1        1 NZL      0.041000
     15 C11         1.9160   -0.2140    1.0220 c2        1 NZL     -0.182000
     16 C12         2.9700    4.0350    5.9210 c1        1 NZL     -0.109000
     17 C10         2.8550   -0.9640    1.7390 c2        1 NZL      0.212000
     18 C16         1.4190   -0.1150   10.2150 c3        1 NZL     -0.214000
     19 C17        -0.0870    1.7710   10.8480 c3        1 NZL     -0.214000
     20 C18         0.0510    0.2770   10.7110 c3        1 NZL     -0.163000
     21 C19        -2.9830   -1.1640    8.7750 c2        1 NZL     -0.504000
     22 C20        -2.0320   -0.9020    7.9370 c1        1 NZL      0.077000
     23 N13         3.5760    3.7840    4.9640 n1        1 NZL     -0.165000
     24 N21        -2.9760   -3.1600   11.8320 n3        1 NZL     -0.411000
     25 O31         3.6500    3.0540    2.0360 oh        1 NZL     -0.307000
     26 O30         2.1850    1.8020    3.1400 o         1 NZL     -0.334000
     27 O15         0.8130    2.7100    7.4570 o         1 NZL     -0.319000
     28 O9          7.9760    0.4630    3.6440 os        1 NZL      0.004000
     29 O7          6.0960    2.4750    3.2900 oh        1 NZL     -0.248000
     30 H27        -1.1140   -1.0800    2.5450 ha        1 NZL      0.150000
     31 H26        -0.1120   -1.6200   -1.1510 ha        1 NZL      0.204000
     32 H28        -2.8910   -1.4260    2.1140 ha        1 NZL      0.150000
     33 H25        -2.3350   -1.6490   -0.2890 ha        1 NZL      0.159000
     34 H3          4.8320   -2.5450    2.3410 ha        1 NZL      0.163000
     35 H4          7.1170   -1.9100    3.1080 ha        1 NZL      0.191000
     36 H221        1.9340    0.1460    6.7550 hc        1 NZL      0.122500
     37 H222       -0.5990   -0.7280    6.4230 ha        1 NZL      0.260000
     38 H11         1.5330    1.2990    5.4060 hc        1 NZL      0.122500
     39 H101        2.6700   -2.0590    1.8260 ha        1 NZL      0.163000
     40 H102        2.0640    0.8770    0.8810 ha        1 NZL      0.184000
     41 H161        2.3890    4.2410    6.8040 ha        1 NZL      0.275000
     42 H162        1.6020    0.3150    9.1980 hc        1 NZL      0.073000
     43 H13         2.2120    0.2650   10.9030 hc        1 NZL      0.073000
     44 H12         2.9560    3.7210    2.1900 ho        1 NZL      0.274000
     45 H81C        5.3660    3.1180    3.2220 ho        1 NZL      0.283000
     46 H82C        8.3000    2.4920    3.1320 ha        1 NZL      0.102000
     47 H171        0.6560    2.1700   11.5800 hc        1 NZL      0.073000
     48 H172        1.5090   -1.2260   10.1500 hc        1 NZL      0.073000
     49 H181        0.0870    2.2750    9.8640 hc        1 NZL      0.073000
     50 H182       -1.1110    2.0380   11.2050 hc        1 NZL      0.073000
     51 H191       -0.1410   -0.2100   11.7040 hc        1 NZL      0.075500
     52 H192       -0.7310   -0.1090    9.9990 hc        1 NZL      0.075500
     53 H201       -4.0350   -0.8510    8.6650 ha        1 NZL      0.223500
     54 H202       -2.8240   -1.7430    9.7100 ha        1 NZL      0.223500
     55 H211       -3.6520   -3.8800   11.6810 hn        1 NZL      0.137667
     56 H212       -2.1190   -3.5790   12.1270 hn        1 NZL      0.137667
     57 C14         0.4190    1.5620    7.2410 c2        1 NZL      0.198000
     58 H132       -0.4370    1.1130    7.7980 h4        1 NZL      0.125000
     59 H213       -3.3050   -2.5550   12.5560 hn        1 NZL      0.137667
     60 C29         3.3090    1.8820    2.6380 c2        1 NZL      0.346000
@<TRIPOS>BOND
     1    1    2 1   
     2    1   30 1   
     3    1   32 1   
     4    2    4 1   
     5    2   33 1   
     6    3    8 1   
     7    4    9 1   
     8    4   31 1   
     9    5    6 1   
    10    5   10 1   
    11    5   34 1   
    12    6   11 1   
    13    6   35 1   
    14    7   10 1   
    15    7   12 1   
    16    7   60 1   
    17    8   13 1   
    18    8   37 1   
    19    9   15 1   
    20   10   17 1   
    21   11   12 1   
    22   11   28 1   
    23   12   29 1   
    24   13   36 1   
    25   13   38 1   
    26   13   57 1   
    27   14   28 1   
    28   14   46 1   
    29   15   17 1   
    30   15   40 1   
    31   16   23 1   
    32   16   41 1   
    33   17   39 1   
    34   18   20 1   
    35   18   42 1   
    36   18   43 1   
    37   18   48 1   
    38   19   20 1   
    39   19   47 1   
    40   19   49 1   
    41   19   50 1   
    42   20   51 1   
    43   20   52 1   
    44   21   22 1   
    45   21   53 1   
    46   21   54 1   
    47   24   55 1   
    48   24   56 1   
    49   24   59 1   
    50   25   44 1   
    51   25   60 1   
    52   26   60 1   
    53   27   57 1   
    54   29   45 1   
    55   57   58 1   
@<TRIPOS>SUBSTRUCTURE
     1 NZL         1 TEMP              0 ****  ****    0 ROOT
