@<TRIPOS>MOLECULE
NZL
   58    61     1     0     0
SMALL
bcc


@<TRIPOS>ATOM
      1 C27        -3.0690    5.3710   -0.3220 ca        1 NZL     -0.147000
      2 C26        -3.7560    4.2200    0.0530 ca        1 NZL     -0.141000
      3 C28        -1.6890    5.3320   -0.5610 ca        1 NZL     -0.130000
      4 C25        -3.0820    3.0000    0.1980 ca        1 NZL     -0.121000
      5 C3         -3.1230   -0.3560    1.5220 ca        1 NZL     -0.152000
      6 C4         -4.0030   -1.4330    1.3180 ca        1 NZL     -0.141000
      7 C1         -1.3970   -1.3310    0.0700 ca        1 NZL     -0.072600
      8 C23        -1.0180    4.1280   -0.4180 ca        1 NZL     -0.083300
      9 C24        -1.7160    2.9550   -0.0370 ca        1 NZL     -0.059300
     10 C2         -1.8630   -0.2970    0.9240 ca        1 NZL     -0.064300
     11 C5         -3.5490   -2.4350    0.4880 ca        1 NZL      0.034100
     12 C6         -2.2690   -2.3850   -0.1240 ca        1 NZL      0.068100
     13 C22         0.4320    3.8460   -0.6180 c3        1 NZL     -0.047100
     14 C8         -3.2960   -4.3170   -0.7640 c3        1 NZL      0.319200
     15 C11        -0.7950    1.7800    0.0130 c3        1 NZL     -0.056400
     16 C12         0.6360    2.4260   -0.0060 c3        1 NZL      0.103700
     17 C10        -0.9650    0.8610    1.2100 c3        1 NZL     -0.027100
     18 C16         3.5590    0.1110   -0.6380 c3        1 NZL     -0.175400
     19 C17         4.8840   -0.0960    0.0590 c3        1 NZL     -0.063400
     20 C18         5.5540   -1.3620   -0.4300 c3        1 NZL     -0.081400
     21 C19         6.8530   -1.6110    0.3050 c3        1 NZL     -0.082400
     22 C20         7.4910   -2.9120   -0.1780 c3        1 NZL      0.150800
     23 N13         1.6120    1.6200   -0.6910 n         1 NZL     -0.547900
     24 N21         8.7370   -3.2350    0.4820 n3        1 NZL     -0.915800
     25 O31         0.0640   -0.7230   -1.7210 o         1 NZL     -0.825800
     26 O30         0.9720   -1.6670    0.0780 o         1 NZL     -0.825800
     27 O15         3.2880    2.0190    0.8400 o         1 NZL     -0.657100
     28 O9         -4.2010   -3.6100    0.1120 os        1 NZL     -0.355900
     29 O7         -2.0950   -3.5360   -0.8970 os        1 NZL     -0.315900
     30 H27        -3.6100    6.3210   -0.4330 ha        1 NZL      0.114000
     31 H26        -4.8380    4.2630    0.2360 ha        1 NZL      0.117000
     32 H28        -1.1510    6.2430   -0.8560 ha        1 NZL      0.122000
     33 H25        -3.6240    2.0880    0.4900 ha        1 NZL      0.142000
     34 H3         -3.4460    0.4620    2.1840 ha        1 NZL      0.121000
     35 H4         -4.9890   -1.4700    1.7930 ha        1 NZL      0.132000
     36 H221        0.6850    3.8660   -1.7080 hc        1 NZL      0.057200
     37 H222        1.0810    4.5900   -0.0960 hc        1 NZL      0.057200
     38 H11        -0.9460    1.1700   -0.9310 hc        1 NZL      0.124700
     39 H101       -1.3500    1.4450    2.0870 hc        1 NZL      0.060700
     40 H102        0.0440    0.4430    1.4900 hc        1 NZL      0.060700
     41 H161        2.8890   -0.7920   -0.4940 hc        1 NZL      0.098200
     42 H162        3.7180    0.2400   -1.7400 hc        1 NZL      0.098200
     43 H13         1.2350    0.9170   -1.3060 hn        1 NZL      0.355500
     44 H12         0.9720    2.5770    1.0640 h1        1 NZL      0.067700
     45 H81C       -3.0380   -5.2980   -0.2940 h2        1 NZL      0.052200
     46 H82C       -3.7770   -4.4140   -1.7690 h2        1 NZL      0.052200
     47 H171        5.5510    0.7880   -0.1200 hc        1 NZL      0.045200
     48 H172        4.7130   -0.1550    1.1660 hc        1 NZL      0.045200
     49 H181        4.8590   -2.2310   -0.2810 hc        1 NZL      0.044200
     50 H182        5.7520   -1.2830   -1.5320 hc        1 NZL      0.044200
     51 H191        7.5560   -0.7550    0.1360 hc        1 NZL      0.042200
     52 H192        6.6530   -1.6680    1.4070 hc        1 NZL      0.042200
     53 H201        6.7250   -3.7370   -0.0690 h1        1 NZL      0.026700
     54 H202        7.7160   -2.8200   -1.2800 h1        1 NZL      0.026700
     55 H211        8.6800   -3.0440    1.4630 hn        1 NZL      0.339800
     56 H212        8.9510   -4.2040    0.3540 hn        1 NZL      0.339800
     57 C29        -0.0250   -1.2520   -0.5730 c         1 NZL      0.921200
     58 C14         2.8240    1.3150   -0.0850 c         1 NZL      0.662100
@<TRIPOS>BOND
     1    1    2 ar  
     2    1    3 ar  
     3    1   30 1   
     4    2    4 ar  
     5    2   31 1   
     6    3    8 ar  
     7    3   32 1   
     8    4    9 ar  
     9    4   33 1   
    10    5    6 ar  
    11    5   10 ar  
    12    5   34 1   
    13    6   11 ar  
    14    6   35 1   
    15    7   10 ar  
    16    7   12 ar  
    17    7   57 1   
    18    8    9 ar  
    19    8   13 1   
    20    9   15 1   
    21   10   17 1   
    22   11   12 ar  
    23   11   28 1   
    24   12   29 1   
    25   13   16 1   
    26   13   36 1   
    27   13   37 1   
    28   14   28 1   
    29   14   29 1   
    30   14   45 1   
    31   14   46 1   
    32   15   16 1   
    33   15   17 1   
    34   15   38 1   
    35   16   23 1   
    36   16   44 1   
    37   17   39 1   
    38   17   40 1   
    39   18   19 1   
    40   18   41 1   
    41   18   42 1   
    42   18   58 1   
    43   19   20 1   
    44   19   47 1   
    45   19   48 1   
    46   20   21 1   
    47   20   49 1   
    48   20   50 1   
    49   21   22 1   
    50   21   51 1   
    51   21   52 1   
    52   22   24 1   
    53   22   53 1   
    54   22   54 1   
    55   23   43 1   
    56   23   58 1   
    57   24   55 1   
    58   24   56 1   
    59   25   57 1   
    60   26   57 1   
    61   27   58 2   
@<TRIPOS>SUBSTRUCTURE
     1 NZL         1 TEMP              0 ****  ****    0 ROOT
