@<TRIPOS>MOLECULE
NZL
   58    54     1     0     0
SMALL
bcc


@<TRIPOS>ATOM
      1 C27        -1.7120   -1.0030   -5.3170 c1        1 NZL     -0.138000
      2 C26        -0.3040   -0.9250   -5.3730 c1        1 NZL     -0.138000
      3 C28        -2.3600   -1.0930   -4.0810 c1        1 NZL     -0.138000
      4 C25         0.4460   -0.9380   -4.1910 c1        1 NZL     -0.138000
      5 C3          2.9940   -2.6790   -3.0380 c1        1 NZL     -0.138000
      6 C4          4.2870   -2.5230   -3.5250 c1        1 NZL     -0.138000
      7 C1          3.4780   -1.1360   -1.2480 c1        1 NZL     -0.052000
      8 C23        -1.6190   -1.1060   -2.9080 c1        1 NZL     -0.075000
      9 C24        -0.1950   -1.0270   -2.9640 c1        1 NZL     -0.054000
     10 C2          2.5880   -1.9850   -1.8980 c1        1 NZL     -0.057000
     11 C5          5.1840   -1.6680   -2.8700 c1        1 NZL      0.006500
     12 C6          4.7810   -0.9780   -1.7380 c1        1 NZL      0.006500
     13 C29         3.9360   -0.7590    0.1430 c2        1 NZL      0.367000
     14 C14        -1.5410    0.0720    1.4780 c1        1 NZL      0.307000
     15 C22        -2.0380   -1.1430   -1.4190 c3        1 NZL     -0.134000
     16 C8          6.9590   -0.4180   -2.1520 c3        1 NZL      0.097000
     17 C11         0.3420   -1.0370   -1.5130 c3        1 NZL     -0.100000
     18 C12        -0.8130   -1.0950   -0.5990 c3        1 NZL      0.031000
     19 C10         1.2190   -2.2450   -1.3030 c3        1 NZL     -0.115000
     20 C16        -1.4940    1.2790    2.3950 c2        1 NZL     -0.176000
     21 C17        -2.6890    1.2520    3.3290 c3        1 NZL     -0.178000
     22 C18        -2.5780    2.3890    4.3250 c3        1 NZL     -0.143000
     23 C19        -3.9080    2.5780    5.0260 c3        1 NZL     -0.199000
     24 C20        -3.7940    3.7060    6.0310 c3        1 NZL     -0.093000
     25 N13        -0.8320    0.0890    0.2450 n3        1 NZL     -0.355000
     26 N21        -5.0580    3.9150    6.6590 n3        1 NZL     -0.339000
     27 O31         4.1970   -1.6580    0.9850 o         1 NZL     -0.562000
     28 O30         4.0590    0.4540    0.4580 o         1 NZL     -0.562000
     29 O15        -2.1310   -0.9320    1.8260 o         1 NZL     -0.427000
     30 O9          6.5460   -1.3310   -3.1300 os        1 NZL     -0.219000
     31 O7          5.8860   -0.2000   -1.2800 os        1 NZL     -0.219000
     32 H27        -2.2340   -0.9940   -6.1420 ha        1 NZL      0.124500
     33 H26         0.1470   -0.8410   -6.2360 ha        1 NZL      0.124500
     34 H28        -3.3340   -1.1470   -4.0440 ha        1 NZL      0.124500
     35 H25         1.4200   -0.8840   -4.2310 ha        1 NZL      0.124500
     36 H3          2.3700   -3.2730   -3.4960 ha        1 NZL      0.124500
     37 H4          4.5710   -3.0090   -4.3230 ha        1 NZL      0.124500
     38 H221       -2.6030   -0.3700   -1.2150 hc        1 NZL      0.097500
     39 H222       -2.5280   -1.9680   -1.2340 hc        1 NZL      0.097500
     40 H11         0.8550   -0.2240   -1.3450 hc        1 NZL      0.161000
     41 H101        1.3090   -2.4200   -0.3440 hc        1 NZL      0.101000
     42 H102        0.8160   -3.0210   -1.7400 hc        1 NZL      0.101000
     43 H161       -1.5180    2.0960    1.8600 ha        1 NZL      0.115000
     44 H162       -0.6700    1.2570    2.9210 ha        1 NZL      0.115000
     45 H13        -0.4130    0.8510   -0.0300 hn        1 NZL      0.272000
     46 H12        -0.7560   -1.8960   -0.0440 h1        1 NZL      0.104000
     47 H81C        7.7210   -0.7870   -1.6560 h2        1 NZL      0.092000
     48 H82C        7.2180    0.4280   -2.5770 h2        1 NZL      0.092000
     49 H171       -3.5110    1.3520    2.8080 hc        1 NZL      0.113500
     50 H172       -2.7090    0.3990    3.8080 hc        1 NZL      0.113500
     51 H181       -1.8880    2.1790    4.9860 hc        1 NZL      0.071000
     52 H182       -2.3390    3.2130    3.8540 hc        1 NZL      0.071000
     53 H191       -4.1520    1.7520    5.4900 hc        1 NZL      0.086000
     54 H192       -4.5960    2.7970    4.3670 hc        1 NZL      0.086000
     55 H201       -3.5180    4.5270    5.5710 h1        1 NZL      0.084500
     56 H202       -3.1270    3.4730    6.7100 h1        1 NZL      0.084500
     57 H211       -5.4200    4.7020    6.3620 hn        1 NZL      0.133000
     58 H212       -4.9460    3.9530    7.5670 hn        1 NZL      0.133000
@<TRIPOS>BOND
     1    1    3 1   
     2    1   32 1   
     3    2    4 1   
     4    2   33 1   
     5    3   34 1   
     6    4   35 1   
     7    5    6 1   
     8    5   36 1   
     9    6   37 1   
    10    7   10 1   
    11    7   13 1   
    12    8    9 1   
    13    8   15 1   
    14    9   17 1   
    15   10   19 1   
    16   11   12 1   
    17   11   30 1   
    18   12   31 1   
    19   13   27 1   
    20   13   28 1   
    21   14   25 1   
    22   14   29 1   
    23   15   18 1   
    24   15   38 1   
    25   15   39 1   
    26   16   30 1   
    27   16   31 1   
    28   16   47 1   
    29   16   48 1   
    30   17   18 1   
    31   17   19 1   
    32   17   40 1   
    33   18   25 1   
    34   18   46 1   
    35   19   41 1   
    36   19   42 1   
    37   20   21 1   
    38   20   43 1   
    39   20   44 1   
    40   21   22 1   
    41   21   49 1   
    42   21   50 1   
    43   22   23 1   
    44   22   51 1   
    45   22   52 1   
    46   23   24 1   
    47   23   53 1   
    48   23   54 1   
    49   24   26 1   
    50   24   55 1   
    51   24   56 1   
    52   25   45 1   
    53   26   57 1   
    54   26   58 1   
@<TRIPOS>SUBSTRUCTURE
     1 NZL         1 TEMP              0 ****  ****    0 ROOT
