@<TRIPOS>MOLECULE
NZO
   32    34     1     0     0
SMALL
bcc


@<TRIPOS>ATOM
      1 O2          3.9500   -1.7300   -0.6270 o         1 NZO     -0.585000
      2 C13         4.5620   -0.7820   -0.1090 c         1 NZO      0.751100
      3 O3          5.9320   -0.8490    0.0140 os        1 NZO     -0.428900
      4 C14         6.5250   -2.0620   -0.4640 c3        1 NZO      0.136700
      5 N3          4.0540    0.3920    0.4180 n         1 NZO     -0.444400
      6 C12         2.7030    0.7590    0.3000 cc        1 NZO      0.486400
      7 N1          1.6870   -0.1400   -0.1230 na        1 NZO     -0.275300
      8 C8          0.4950    0.5920   -0.0990 ca        1 NZO     -0.084200
      9 C7         -0.8200    0.2440   -0.4170 ca        1 NZO     -0.098000
     10 N2          2.2200    2.0040    0.6190 nd        1 NZO     -0.598100
     11 C9          0.8400    1.9220    0.3770 ca        1 NZO      0.104400
     12 C10        -0.1730    2.8830    0.5120 ca        1 NZO     -0.088000
     13 C11        -1.4700    2.5230    0.1830 ca        1 NZO     -0.099000
     14 C6         -1.7980    1.2250   -0.2640 ca        1 NZO     -0.155600
     15 C5         -3.2160    0.9410   -0.5940 c         1 NZO      0.622300
     16 O1         -3.9200    1.7840   -1.1680 o         1 NZO     -0.526100
     17 C4         -3.7530   -0.3530   -0.1850 cc        1 NZO     -0.223700
     18 C3         -5.0330   -0.7870   -0.5070 cd        1 NZO     -0.084000
     19 C2         -5.3090   -2.0710    0.0440 cd        1 NZO     -0.172000
     20 C1         -4.2310   -2.5530    0.7620 cc        1 NZO     -0.166100
     21 S          -2.9540   -1.4940    0.7560 ss        1 NZO      0.078200
     22 H14         7.6150   -1.9010   -0.2690 h1        1 NZO      0.060033
     23 H14A        6.1260   -2.9330    0.1090 h1        1 NZO      0.060033
     24 H14B        6.3130   -2.1850   -1.5530 h1        1 NZO      0.060033
     25 HN3         4.6860    1.0810    0.7680 hn        1 NZO      0.371500
     26 H7         -1.0680   -0.7610   -0.7900 ha        1 NZO      0.148000
     27 H10         0.0650    3.8960    0.8650 ha        1 NZO      0.155000
     28 H11        -2.2810    3.2670    0.2590 ha        1 NZO      0.153000
     29 H3         -5.7410   -0.2080   -1.1080 ha        1 NZO      0.172000
     30 H2         -6.2590   -2.5920   -0.0930 ha        1 NZO      0.158000
     31 H1         -4.2040   -3.5130    1.2780 h4        1 NZO      0.174000
     32 HN1         1.8320   -1.0480   -0.4930 hn        1 NZO      0.336700
@<TRIPOS>BOND
     1    1    2 2   
     2    2    3 1   
     3    2    5 1   
     4    3    4 1   
     5    4   22 1   
     6    4   23 1   
     7    4   24 1   
     8    5    6 1   
     9    5   25 1   
    10    6    7 1   
    11    6   10 2   
    12    7    8 1   
    13    7   32 1   
    14    8    9 ar  
    15    8   11 ar  
    16    9   14 ar  
    17    9   26 1   
    18   10   11 1   
    19   11   12 ar  
    20   12   13 ar  
    21   12   27 1   
    22   13   14 ar  
    23   13   28 1   
    24   14   15 1   
    25   15   16 2   
    26   15   17 1   
    27   17   18 2   
    28   17   21 1   
    29   18   19 1   
    30   18   29 1   
    31   19   20 2   
    32   19   30 1   
    33   20   21 1   
    34   20   31 1   
@<TRIPOS>SUBSTRUCTURE
     1 NZO         1 TEMP              0 ****  ****    0 ROOT
