@<TRIPOS>MOLECULE
NZO
   33    35     1     0     0
SMALL
bcc


@<TRIPOS>ATOM
      1 O2          0.7070   -1.3770    0.4630 o         1 NZO     -0.424000
      2 C13         1.6310   -0.6230    0.1970 c         1 NZO      0.622100
      3 O3          2.2420    0.2300    1.0380 os        1 NZO     -0.383900
      4 C14         1.7090    0.2790    2.3890 c3        1 NZO      0.131700
      5 N3          2.2630   -0.5610   -1.1650 n4        1 NZO     -0.547800
      6 C12         1.2680   -0.3050   -2.2080 cc        1 NZO      0.369700
      7 N1          0.1010   -1.0950   -2.3710 na        1 NZO     -0.230300
      8 C8         -0.5530   -0.5460   -3.4750 ca        1 NZO     -0.036200
      9 C7         -1.7520   -0.8920   -4.1180 ca        1 NZO     -0.091000
     10 N2          1.4120    0.6740   -3.1510 nd        1 NZO     -0.467100
     11 C9          0.2820    0.5440   -3.9610 ca        1 NZO      0.063400
     12 C10        -0.1170    1.2650   -5.1060 ca        1 NZO     -0.049000
     13 C11        -1.3030    0.9100   -5.7170 ca        1 NZO     -0.114000
     14 C6         -2.1140   -0.1460   -5.2320 ca        1 NZO     -0.092600
     15 C5         -3.3740   -0.5210   -5.9420 c         1 NZO      0.616300
     16 O1         -3.6450   -1.7180   -6.1060 o         1 NZO     -0.506100
     17 C4         -4.2420    0.5520   -6.3870 cc        1 NZO     -0.244700
     18 C3         -5.4150    0.3240   -7.1030 cd        1 NZO     -0.056000
     19 C2         -6.0980    1.5370   -7.3990 cd        1 NZO     -0.167000
     20 C1         -5.4230    2.6320   -6.8970 cc        1 NZO     -0.130100
     21 S          -4.0260    2.1990   -6.1090 ss        1 NZO      0.049200
     22 H14         2.3810    1.0380    2.8670 h1        1 NZO      0.094367
     23 H14A        0.6460    0.6180    2.3520 h1        1 NZO      0.094367
     24 H14B        1.8020   -0.7280    2.8590 h1        1 NZO      0.094367
     25 HN3         2.7230   -1.4640   -1.3580 hn        1 NZO      0.500300
     26 H7         -2.3780   -1.7300   -3.7730 ha        1 NZO      0.179000
     27 H10         0.5110    2.0820   -5.4950 ha        1 NZO      0.174000
     28 H11        -1.6310    1.4560   -6.6210 ha        1 NZO      0.171000
     29 H3         -5.7670   -0.6700   -7.4000 ha        1 NZO      0.180000
     30 H2         -7.0390    1.5770   -7.9560 ha        1 NZO      0.173000
     31 H1         -5.7490    3.6690   -6.9970 h4        1 NZO      0.186000
     32 HN1        -0.2680   -1.7470   -1.7210 hn        1 NZO      0.342700
     33 H32         2.9710    0.1970   -1.1870 hn        1 NZO      0.500300
@<TRIPOS>BOND
     1    1    2 2   
     2    2    3 1   
     3    2    5 1   
     4    3    4 1   
     5    4   22 1   
     6    4   23 1   
     7    4   24 1   
     8    5    6 1   
     9    5   25 1   
    10    5   33 1   
    11    6    7 1   
    12    6   10 2   
    13    7    8 1   
    14    7   32 1   
    15    8    9 ar  
    16    8   11 ar  
    17    9   14 ar  
    18    9   26 1   
    19   10   11 1   
    20   11   12 ar  
    21   12   13 ar  
    22   12   27 1   
    23   13   14 ar  
    24   13   28 1   
    25   14   15 1   
    26   15   16 2   
    27   15   17 1   
    28   17   18 2   
    29   17   21 1   
    30   18   19 1   
    31   18   29 1   
    32   19   20 2   
    33   19   30 1   
    34   20   21 1   
    35   20   31 1   
@<TRIPOS>SUBSTRUCTURE
     1 NZO         1 TEMP              0 ****  ****    0 ROOT
