@<TRIPOS>MOLECULE
NZO
   32    34     1     0     0
SMALL
bcc


@<TRIPOS>ATOM
      1 O2         -0.0460   -0.2520    0.3830 o         1 NZO     -0.585000
      2 C13         1.1540   -0.0250    0.1560 c         1 NZO      0.751100
      3 O3          2.0470   -0.0020    1.2040 os        1 NZO     -0.428900
      4 C14         1.4700   -0.2240    2.4970 c3        1 NZO      0.136700
      5 N3          1.7710    0.2460   -1.0520 n         1 NZO     -0.444400
      6 C12         1.1040    0.1560   -2.2870 cc        1 NZO      0.486400
      7 N1         -0.3080    0.0420   -2.4010 na        1 NZO     -0.275300
      8 C8         -0.5770   -0.0090   -3.7730 ca        1 NZO     -0.084200
      9 C7         -1.7720   -0.1290   -4.4850 ca        1 NZO     -0.098000
     10 N2          1.7390    0.2110   -3.5020 nd        1 NZO     -0.598100
     11 C9          0.7060    0.1090   -4.4470 ca        1 NZO      0.104400
     12 C10         0.7450    0.0960   -5.8490 ca        1 NZO     -0.088000
     13 C11        -0.4500   -0.0320   -6.5400 ca        1 NZO     -0.099000
     14 C6         -1.6920   -0.1310   -5.8760 ca        1 NZO     -0.155600
     15 C5         -2.9140   -0.2670   -6.7070 c         1 NZO      0.622300
     16 O1         -2.9160   -0.9640   -7.7310 o         1 NZO     -0.526100
     17 C4         -4.0960    0.4770   -6.2860 cc        1 NZO     -0.223700
     18 C3         -5.3310    0.3720   -6.9150 cd        1 NZO     -0.084000
     19 C2         -6.3010    1.2310   -6.3220 cd        1 NZO     -0.172000
     20 C1         -5.7600    1.9510   -5.2740 cc        1 NZO     -0.166100
     21 S          -4.1590    1.5920   -5.0290 ss        1 NZO      0.078200
     22 H14         0.9920   -1.2320    2.5310 h1        1 NZO      0.060033
     23 H14A        2.3550   -0.1620    3.1780 h1        1 NZO      0.060033
     24 H14B        0.7190    0.5700    2.7200 h1        1 NZO      0.060033
     25 HN3         2.7610    0.3700   -1.0760 hn        1 NZO      0.371500
     26 H7         -2.7370   -0.2320   -3.9650 ha        1 NZO      0.148000
     27 H10         1.7040    0.1790   -6.3800 ha        1 NZO      0.155000
     28 H11        -0.4450   -0.0670   -7.6420 ha        1 NZO      0.153000
     29 H3         -5.5290   -0.2880   -7.7650 ha        1 NZO      0.172000
     30 H2         -7.3350    1.2980   -6.6660 ha        1 NZO      0.158000
     31 H1         -6.3050    2.6740   -4.6670 h4        1 NZO      0.174000
     32 HN1        -0.9400   -0.1140   -1.6540 hn        1 NZO      0.336700
@<TRIPOS>BOND
     1    1    2 2   
     2    2    3 1   
     3    2    5 1   
     4    3    4 1   
     5    4   22 1   
     6    4   23 1   
     7    4   24 1   
     8    5    6 1   
     9    5   25 1   
    10    6    7 1   
    11    6   10 2   
    12    7    8 1   
    13    7   32 1   
    14    8    9 ar  
    15    8   11 ar  
    16    9   14 ar  
    17    9   26 1   
    18   10   11 1   
    19   11   12 ar  
    20   12   13 ar  
    21   12   27 1   
    22   13   14 ar  
    23   13   28 1   
    24   14   15 1   
    25   15   16 2   
    26   15   17 1   
    27   17   18 2   
    28   17   21 1   
    29   18   19 1   
    30   18   29 1   
    31   19   20 2   
    32   19   30 1   
    33   20   21 1   
    34   20   31 1   
@<TRIPOS>SUBSTRUCTURE
     1 NZO         1 TEMP              0 ****  ****    0 ROOT
