@<TRIPOS>MOLECULE
NZO
   32    26     1     0     0
SMALL
bcc


@<TRIPOS>ATOM
      1 O2         -0.0980   -0.4120    4.9350 o         1 NZO     -0.394000
      2 C13         1.1040   -0.2950    4.7970 c1        1 NZO      0.405000
      3 O3          1.9180   -0.0450    5.9150 os        1 NZO     -0.267000
      4 C14         1.2010    0.3100    7.0760 c3        1 NZO     -0.053000
      5 N3          1.6880   -0.4380    3.5120 n2        1 NZO     -0.285000
      6 C12         0.8600   -0.6220    2.3730 c2        1 NZO      0.155000
      7 N1         -0.0640   -1.1650    1.5380 n2        1 NZO     -0.201000
      8 C8          0.2150   -0.7490    0.2770 c1        1 NZO     -0.038500
      9 C7         -0.4130   -0.9980   -0.9580 c1        1 NZO     -0.069000
     10 N2          1.7120    0.1300    1.6270 n2        1 NZO     -0.201000
     11 C9          1.3160    0.0540    0.3330 c1        1 NZO     -0.038500
     12 C10         1.8250    0.6330   -0.8450 c1        1 NZO     -0.105500
     13 C11         1.2070    0.3880   -2.0610 c1        1 NZO     -0.105500
     14 C6          0.0880   -0.4270   -2.1170 c1        1 NZO     -0.140000
     15 C5         -0.2920   -0.7560   -3.5440 c2        1 NZO      0.343000
     16 O1          0.2350   -1.6910   -4.1130 o         1 NZO     -0.293000
     17 C4         -1.3130    0.0930   -4.2700 c2        1 NZO     -0.474000
     18 C3         -2.6030   -0.3570   -4.7590 c1        1 NZO     -0.084000
     19 C2         -3.2880    0.8470   -5.5430 c1        1 NZO     -0.173000
     20 C1         -2.3910    1.9870   -5.5030 c1        1 NZO     -0.438000
     21 S          -1.1240    1.5690   -4.7100 ss        1 NZO      0.628000
     22 H14         0.9880   -0.4980    7.5900 h1        1 NZO      0.099333
     23 H14A        1.7460    0.9140    7.6260 h1        1 NZO      0.099333
     24 H14B        0.3690    0.7640    6.8210 h1        1 NZO      0.099333
     25 HN3         2.5930   -0.3850    3.4140 hn        1 NZO      0.285000
     26 H7         -1.2010   -1.5720   -0.9990 ha        1 NZO      0.158000
     27 H10         2.6130    1.2080   -0.8050 ha        1 NZO      0.147500
     28 H11         1.5600    0.7900   -2.8770 ha        1 NZO      0.147500
     29 H3         -2.9850   -1.2460   -4.6300 DU        1 NZO      0.198500
     30 H2         -4.1620    0.8230   -5.9770 DU        1 NZO      0.198500
     31 H1         -2.5550    2.8610   -5.9040 DU        1 NZO      0.198500
     32 HN1        -0.7510   -1.7130    1.7820 DU        1 NZO      0.198500
@<TRIPOS>BOND
     1    1    2 1   
     2    2    3 1   
     3    3    4 1   
     4    4   22 1   
     5    4   23 1   
     6    4   24 1   
     7    5    6 1   
     8    5   25 1   
     9    6    7 1   
    10    6   10 1   
    11    7    8 1   
    12    8   11 1   
    13    9   14 1   
    14    9   26 1   
    15   10   11 1   
    16   12   13 1   
    17   12   27 1   
    18   13   28 1   
    19   14   15 1   
    20   15   16 1   
    21   15   17 1   
    22   17   18 1   
    23   17   21 1   
    24   18   19 1   
    25   19   20 1   
    26   20   21 1   
@<TRIPOS>SUBSTRUCTURE
     1 NZO         1 TEMP              0 ****  ****    0 ROOT
