@<TRIPOS>MOLECULE
NZO
   32    34     1     0     0
SMALL
bcc


@<TRIPOS>ATOM
      1 O2         -0.0470   -0.2560    0.3830 o         1 NZO     -0.585000
      2 C13         1.1540   -0.0310    0.1560 c         1 NZO      0.751100
      3 O3          2.0470   -0.0100    1.2040 os        1 NZO     -0.428900
      4 C14         1.4700   -0.2320    2.4960 c3        1 NZO      0.136700
      5 N3          1.7710    0.2390   -1.0520 ns        1 NZO     -0.444400
      6 C12         1.1040    0.1510   -2.2870 cc        1 NZO      0.486400
      7 N1         -0.3080    0.0400   -2.4010 na        1 NZO     -0.275300
      8 C8         -0.5770   -0.0110   -3.7720 ca        1 NZO     -0.084200
      9 C7         -1.7730   -0.1270   -4.4850 ca        1 NZO     -0.098000
     10 N2          1.7390    0.2040   -3.5020 nd        1 NZO     -0.598100
     11 C9          0.7060    0.1040   -4.4470 ca        1 NZO      0.104400
     12 C10         0.7440    0.0910   -5.8490 ca        1 NZO     -0.088000
     13 C11        -0.4510   -0.0340   -6.5390 ca        1 NZO     -0.099000
     14 C6         -1.6930   -0.1300   -5.8760 ca        1 NZO     -0.155600
     15 C5         -2.9160   -0.2630   -6.7070 c         1 NZO      0.622300
     16 O1         -2.9200   -0.9610   -7.7310 o         1 NZO     -0.526100
     17 C4         -4.0960    0.4840   -6.2860 cc        1 NZO     -0.223700
     18 C3         -5.3310    0.3830   -6.9150 cd        1 NZO     -0.084000
     19 C2         -6.2980    1.2440   -6.3220 cd        1 NZO     -0.172000
     20 C1         -5.7560    1.9630   -5.2740 cc        1 NZO     -0.166100
     21 S          -4.1550    1.6000   -5.0290 ss        1 NZO      0.078200
     22 H14         2.3560   -0.1720    3.1780 h1        1 NZO      0.060033
     23 H14A        0.7210    0.5640    2.7200 h1        1 NZO      0.060033
     24 H14B        0.9900   -1.2390    2.5300 h1        1 NZO      0.060033
     25 HN3         2.7620    0.3610   -1.0760 hn        1 NZO      0.371500
     26 H7         -2.7380   -0.2280   -3.9650 ha        1 NZO      0.148000
     27 H10         1.7030    0.1720   -6.3800 ha        1 NZO      0.155000
     28 H11        -0.4460   -0.0690   -7.6410 ha        1 NZO      0.153000
     29 H3         -5.5310   -0.2770   -7.7640 ha        1 NZO      0.172000
     30 H2         -7.3320    1.3140   -6.6660 ha        1 NZO      0.158000
     31 H1         -6.2990    2.6880   -4.6670 h4        1 NZO      0.174000
     32 HN1        -0.9410   -0.1140   -1.6540 hn        1 NZO      0.336700
@<TRIPOS>BOND
     1    1    2 2   
     2    2    3 1   
     3    2    5 1   
     4    3    4 1   
     5    4   22 1   
     6    4   23 1   
     7    4   24 1   
     8    5    6 1   
     9    5   25 1   
    10    6    7 1   
    11    6   10 2   
    12    7    8 1   
    13    7   32 1   
    14    8    9 ar  
    15    8   11 ar  
    16    9   14 ar  
    17    9   26 1   
    18   10   11 1   
    19   11   12 ar  
    20   12   13 ar  
    21   12   27 1   
    22   13   14 ar  
    23   13   28 1   
    24   14   15 1   
    25   15   16 2   
    26   15   17 1   
    27   17   18 2   
    28   17   21 1   
    29   18   19 1   
    30   18   29 1   
    31   19   20 2   
    32   19   30 1   
    33   20   21 1   
    34   20   31 1   
@<TRIPOS>SUBSTRUCTURE
     1 NZO         1 TEMP              0 ****  ****    0 ROOT
