@<TRIPOS>MOLECULE
NZS
   47    50     1     0     0
SMALL
bcc


@<TRIPOS>ATOM
      1 C1         -0.0070    0.1280   -0.1870 ca        1 NZS     -0.523500
      2 N1          2.1890    0.7290   -1.2000 nb        1 NZS     -0.769000
      3 O1         -5.4350   -1.7870   -4.2070 os        1 NZS     -0.327900
      4 S1          3.0940   -0.3650   -5.8800 s6        1 NZS      1.327000
      5 C2          1.4290    0.3450   -0.1390 ca        1 NZS      0.496800
      6 N2          0.0970    0.7130   -2.5240 nb        1 NZS     -0.819000
      7 O2          2.9980   -1.7210   -6.2180 o         1 NZS     -0.650300
      8 C3          1.4640    0.9260   -2.3590 ca        1 NZS      0.908900
      9 N3          0.7410   -0.2830    1.9370 nc        1 NZS     -0.511100
     10 O3          3.7620    0.4770   -6.7790 o         1 NZS     -0.650300
     11 C4         -0.6420    0.3400   -1.4440 ca        1 NZS      0.781200
     12 N4          1.8100    0.0900    1.1950 na        1 NZS     -0.009800
     13 C5         -0.3580   -0.2620    1.1590 cd        1 NZS      0.386800
     14 N5         -2.0240    0.1800   -1.5200 nu        1 NZS     -0.727300
     15 C6          3.1710    0.0890    1.6680 c3        1 NZS      0.049600
     16 N6          2.1740    1.4710   -3.4780 nh        1 NZS     -0.714300
     17 C7         -2.7720    0.2080   -2.7170 ca        1 NZS      0.169600
     18 C8         -3.7250   -0.8050   -2.9450 ca        1 NZS     -0.201000
     19 C9         -4.5320   -0.7470   -4.0920 ca        1 NZS      0.144100
     20 C10        -4.4000    0.2940   -5.0190 ca        1 NZS     -0.214000
     21 C11        -3.4520    1.2860   -4.7800 ca        1 NZS     -0.085000
     22 C12        -2.6450    1.2620   -3.6470 ca        1 NZS     -0.153000
     23 C13        -6.2510   -1.7830   -5.3730 c3        1 NZS      0.113700
     24 C14         1.4960    1.5400   -4.7620 c3        1 NZS      0.220800
     25 C15         1.5340    0.2450   -5.5710 c3        1 NZS     -0.360600
     26 C16         3.8030   -0.2300   -4.3330 c3        1 NZS     -0.360600
     27 C17         3.5740    1.1070   -3.6290 c3        1 NZS      0.220800
     28 H5         -1.3470   -0.5070    1.5490 h4        1 NZS      0.053800
     29 HN5        -2.4150   -0.3710   -0.7840 hn        1 NZS      0.441800
     30 H6          3.7280    0.9180    1.1560 h1        1 NZS      0.061700
     31 H6A         3.1930    0.2490    2.7790 h1        1 NZS      0.061700
     32 H6B         3.6590   -0.8930    1.4270 h1        1 NZS      0.061700
     33 H8         -3.8600   -1.6430   -2.2470 ha        1 NZS      0.150000
     34 H10        -5.0270    0.3380   -5.9190 ha        1 NZS      0.141000
     35 H11        -3.3430    2.1130   -5.5000 ha        1 NZS      0.136000
     36 H12        -1.9150    2.0700   -3.4860 ha        1 NZS      0.155000
     37 H13        -5.6230   -1.8480   -6.2950 h1        1 NZS      0.046367
     38 H13A       -6.8950   -0.8710   -5.4000 h1        1 NZS      0.046367
     39 H13B       -6.8750   -2.7050   -5.2540 h1        1 NZS      0.046367
     40 H14         0.4290    1.8690   -4.6290 h1        1 NZS      0.085200
     41 H14A        2.0270    2.3460   -5.3520 h1        1 NZS      0.085200
     42 H15         1.0050    0.4550   -6.5410 h1        1 NZS      0.129700
     43 H15A        0.8910   -0.5180   -5.0530 h1        1 NZS      0.129700
     44 H16         3.4570   -1.0580   -3.6580 h1        1 NZS      0.129700
     45 H16A        4.9160   -0.3650   -4.4130 h1        1 NZS      0.129700
     46 H17         4.0950    1.0980   -2.6330 h1        1 NZS      0.085200
     47 H17A        4.0490    1.9250   -4.2480 h1        1 NZS      0.085200
@<TRIPOS>BOND
     1    1    5 ar  
     2    1   11 ar  
     3    1   13 1   
     4    2    5 ar  
     5    2    8 ar  
     6    3   19 1   
     7    3   23 1   
     8    4    7 2   
     9    4   10 2   
    10    4   25 1   
    11    4   26 1   
    12    5   12 1   
    13    6    8 ar  
    14    6   11 ar  
    15    8   16 1   
    16    9   12 1   
    17    9   13 2   
    18   11   14 1   
    19   12   15 1   
    20   13   28 1   
    21   14   17 1   
    22   14   29 1   
    23   15   30 1   
    24   15   31 1   
    25   15   32 1   
    26   16   24 1   
    27   16   27 1   
    28   17   18 ar  
    29   17   22 ar  
    30   18   19 ar  
    31   18   33 1   
    32   19   20 ar  
    33   20   21 ar  
    34   20   34 1   
    35   21   22 ar  
    36   21   35 1   
    37   22   36 1   
    38   23   37 1   
    39   23   38 1   
    40   23   39 1   
    41   24   25 1   
    42   24   40 1   
    43   24   41 1   
    44   25   42 1   
    45   25   43 1   
    46   26   27 1   
    47   26   44 1   
    48   26   45 1   
    49   27   46 1   
    50   27   47 1   
@<TRIPOS>SUBSTRUCTURE
     1 NZS         1 TEMP              0 ****  ****    0 ROOT
