@<TRIPOS>MOLECULE
NZS
   47    50     1     0     0
SMALL
bcc


@<TRIPOS>ATOM
      1 C1         -0.0110    0.1170   -0.1860 ca        1 NZS     -0.523500
      2 N1          2.1880    0.7150   -1.1920 nb        1 NZS     -0.769000
      3 O1         -5.4360   -1.7680   -4.2240 os        1 NZS     -0.327900
      4 S1          3.0920   -0.3610   -5.8790 s6        1 NZS      1.327000
      5 C2          1.4240    0.3290   -0.1340 ca        1 NZS      0.495800
      6 N2          0.0990    0.7100   -2.5210 nb        1 NZS     -0.819000
      7 O2          2.9890   -1.7150   -6.2240 o         1 NZS     -0.650300
      8 C3          1.4670    0.9190   -2.3520 ca        1 NZS      0.908900
      9 N3          0.7310   -0.3050    1.9380 nc        1 NZS     -0.511100
     10 O3          3.7660    0.4820   -6.7720 o         1 NZS     -0.650300
     11 C4         -0.6440    0.3360   -1.4440 ca        1 NZS      0.781200
     12 N4          1.8020    0.0670    1.1990 na        1 NZS     -0.009800
     13 C5         -0.3670   -0.2780    1.1580 cd        1 NZS      0.386800
     14 N5         -2.0260    0.1800   -1.5220 nh        1 NZS     -0.727300
     15 C6          3.1620    0.0610    1.6760 c3        1 NZS      0.049600
     16 N6          2.1800    1.4660   -3.4670 nh        1 NZS     -0.714300
     17 C7         -2.7710    0.2140   -2.7210 ca        1 NZS      0.169600
     18 C8         -3.7260   -0.7950   -2.9560 ca        1 NZS     -0.201000
     19 C9         -4.5300   -0.7300   -4.1040 ca        1 NZS      0.144100
     20 C10        -4.3930    0.3130   -5.0270 ca        1 NZS     -0.214000
     21 C11        -3.4430    1.3020   -4.7820 ca        1 NZS     -0.085000
     22 C12        -2.6390    1.2720   -3.6470 ca        1 NZS     -0.153000
     23 C13        -6.2490   -1.7570   -5.3920 c3        1 NZS      0.113700
     24 C14         1.5050    1.5460   -4.7510 c3        1 NZS      0.220800
     25 C15         1.5350    0.2550   -5.5670 c3        1 NZS     -0.360600
     26 C16         3.8000   -0.2400   -4.3300 c3        1 NZS     -0.360600
     27 C17         3.5780    1.0940   -3.6190 c3        1 NZS      0.220800
     28 H5         -1.3580   -0.5210    1.5450 h4        1 NZS      0.053800
     29 HN5        -2.4200   -0.3730   -0.7900 hn        1 NZS      0.441800
     30 H6          3.1820    0.2170    2.7870 h1        1 NZS      0.061700
     31 H6A         3.6480   -0.9220    1.4320 h1        1 NZS      0.061700
     32 H6B         3.7230    0.8900    1.1680 h1        1 NZS      0.061700
     33 H8         -3.8650   -1.6360   -2.2600 ha        1 NZS      0.150000
     34 H10        -5.0180    0.3620   -5.9280 ha        1 NZS      0.141000
     35 H11        -3.3310    2.1310   -5.4980 ha        1 NZS      0.136000
     36 H12        -1.9070    2.0760   -3.4820 ha        1 NZS      0.155000
     37 H13        -6.8770   -2.6780   -5.2780 h1        1 NZS      0.046367
     38 H13A       -6.8910   -0.8430   -5.4170 h1        1 NZS      0.046367
     39 H13B       -5.6200   -1.8210   -6.3130 h1        1 NZS      0.046367
     40 H14         0.4390    1.8810   -4.6170 h1        1 NZS      0.085200
     41 H14A        2.0400    2.3530   -5.3360 h1        1 NZS      0.085200
     42 H15         0.8870   -0.5070   -5.0540 h1        1 NZS      0.129700
     43 H15A        1.0090    0.4740   -6.5370 h1        1 NZS      0.129700
     44 H16         4.9130   -0.3810   -4.4100 h1        1 NZS      0.129700
     45 H16A        3.4490   -1.0700   -3.6600 h1        1 NZS      0.129700
     46 H17         4.0590    1.9130   -4.2320 h1        1 NZS      0.085200
     47 H17A        4.0980    1.0760   -2.6220 h1        1 NZS      0.085200
@<TRIPOS>BOND
     1    1    5 ar  
     2    1   11 ar  
     3    1   13 1   
     4    2    5 ar  
     5    2    8 ar  
     6    3   19 1   
     7    3   23 1   
     8    4    7 2   
     9    4   10 2   
    10    4   25 1   
    11    4   26 1   
    12    5   12 1   
    13    6    8 ar  
    14    6   11 ar  
    15    8   16 1   
    16    9   12 1   
    17    9   13 2   
    18   11   14 1   
    19   12   15 1   
    20   13   28 1   
    21   14   17 1   
    22   14   29 1   
    23   15   30 1   
    24   15   31 1   
    25   15   32 1   
    26   16   24 1   
    27   16   27 1   
    28   17   18 ar  
    29   17   22 ar  
    30   18   19 ar  
    31   18   33 1   
    32   19   20 ar  
    33   20   21 ar  
    34   20   34 1   
    35   21   22 ar  
    36   21   35 1   
    37   22   36 1   
    38   23   37 1   
    39   23   38 1   
    40   23   39 1   
    41   24   25 1   
    42   24   40 1   
    43   24   41 1   
    44   25   42 1   
    45   25   43 1   
    46   26   27 1   
    47   26   44 1   
    48   26   45 1   
    49   27   46 1   
    50   27   47 1   
@<TRIPOS>SUBSTRUCTURE
     1 NZS         1 TEMP              0 ****  ****    0 ROOT
