@<TRIPOS>MOLECULE
NZS
   48    51     1     0     0
SMALL
bcc


@<TRIPOS>ATOM
      1 C1         -0.1920    0.0790   -0.5810 ca        1 NZS     -0.483500
      2 N1          1.8160    0.7920   -1.8870 nb        1 NZS     -0.715000
      3 O1         -4.3790    0.3920   -5.4880 os        1 NZS     -0.310900
      4 S1          4.2210   -1.4280   -5.3720 s6        1 NZS      1.333000
      5 C2          1.1050    0.7580   -0.7360 ca        1 NZS      0.505800
      6 N2          0.0030   -0.5470   -2.9060 nb        1 NZS     -0.756000
      7 O2          5.0040   -2.4830   -4.9050 o         1 NZS     -0.630300
      8 C3          1.2230    0.1560   -2.9660 ca        1 NZS      0.927900
      9 N3          0.4120    1.0330    1.4070 nc        1 NZS     -0.438100
     10 O3          4.4410   -0.9210   -6.6520 o         1 NZS     -0.630300
     11 C4         -0.6590   -0.5500   -1.7390 ca        1 NZS      0.622200
     12 N4          1.3900    1.3170    0.5240 na        1 NZS      0.011200
     13 C5         -0.5480    0.3110    0.8030 cd        1 NZS      0.359800
     14 N5         -1.9560   -1.2830   -1.6860 n4        1 NZS     -0.625100
     15 C6          2.6100    2.0300    0.8440 c3        1 NZS      0.038600
     16 N6          1.8170    0.2900   -4.2370 nh        1 NZS     -0.710300
     17 C7         -3.0670   -0.4860   -2.2280 ca        1 NZS     -0.012400
     18 C8         -3.2180   -0.3880   -3.6160 ca        1 NZS     -0.131000
     19 C9         -4.3060    0.3550   -4.1180 ca        1 NZS      0.160100
     20 C10        -5.2080    0.9840   -3.2470 ca        1 NZS     -0.157000
     21 C11        -5.0240    0.8720   -1.8710 ca        1 NZS     -0.064000
     22 C12        -3.9600    0.1430   -1.3430 ca        1 NZS     -0.148000
     23 C13        -5.4620    1.1330   -6.0530 c3        1 NZS      0.105700
     24 C14         1.5760   -0.7210   -5.2570 c3        1 NZS      0.221800
     25 C15         2.5690   -1.8760   -5.2240 c3        1 NZS     -0.358100
     26 C16         4.2780   -0.1510   -4.2340 c3        1 NZS     -0.358100
     27 C17         3.1520    0.8680   -4.3460 c3        1 NZS      0.221800
     28 H5         -1.4420   -0.0150    1.3390 h4        1 NZS      0.064800
     29 HN5        -2.1460   -1.5070   -0.7010 hn        1 NZS      0.470800
     30 H6          2.8440    2.7310    0.0000 h1        1 NZS      0.081033
     31 H6A         2.4760    2.6100    1.7960 h1        1 NZS      0.081033
     32 H6B         3.4470    1.2920    0.9680 h1        1 NZS      0.081033
     33 H8         -2.5180   -0.8560   -4.3270 ha        1 NZS      0.182000
     34 H10        -6.0580    1.5650   -3.6400 ha        1 NZS      0.171000
     35 H11        -5.7310    1.3670   -1.1840 ha        1 NZS      0.170000
     36 H12        -3.8360    0.0760   -0.2510 ha        1 NZS      0.153000
     37 H13        -6.4400    0.6920   -5.7440 h1        1 NZS      0.063700
     38 H13A       -5.3950    2.2080   -5.7590 h1        1 NZS      0.063700
     39 H13B       -5.2990    1.0100   -7.1550 h1        1 NZS      0.063700
     40 H14         0.5280   -1.1220   -5.1950 h1        1 NZS      0.093700
     41 H14A        1.6690   -0.1880   -6.2510 h1        1 NZS      0.093700
     42 H15         2.2950   -2.5590   -6.0760 h1        1 NZS      0.131450
     43 H15A        2.4060   -2.4890   -4.2980 h1        1 NZS      0.131450
     44 H16         4.3200   -0.5450   -3.1830 h1        1 NZS      0.131450
     45 H16A        5.2400    0.4220   -4.3620 h1        1 NZS      0.131450
     46 H17         3.1940    1.3500   -5.3700 h1        1 NZS      0.093700
     47 H17A        3.3000    1.6870   -3.5890 h1        1 NZS      0.093700
     48 H52        -1.8840   -2.1560   -2.2290 hn        1 NZS      0.470800
@<TRIPOS>BOND
     1    1    5 ar  
     2    1   11 ar  
     3    1   13 1   
     4    2    5 ar  
     5    2    8 ar  
     6    3   19 1   
     7    3   23 1   
     8    4    7 2   
     9    4   10 2   
    10    4   25 1   
    11    4   26 1   
    12    5   12 1   
    13    6    8 ar  
    14    6   11 ar  
    15    8   16 1   
    16    9   12 1   
    17    9   13 2   
    18   11   14 1   
    19   12   15 1   
    20   13   28 1   
    21   14   17 1   
    22   14   29 1   
    23   14   48 1   
    24   15   30 1   
    25   15   31 1   
    26   15   32 1   
    27   16   24 1   
    28   16   27 1   
    29   17   18 ar  
    30   17   22 ar  
    31   18   19 ar  
    32   18   33 1   
    33   19   20 ar  
    34   20   21 ar  
    35   20   34 1   
    36   21   22 ar  
    37   21   35 1   
    38   22   36 1   
    39   23   37 1   
    40   23   38 1   
    41   23   39 1   
    42   24   25 1   
    43   24   40 1   
    44   24   41 1   
    45   25   42 1   
    46   25   43 1   
    47   26   27 1   
    48   26   44 1   
    49   26   45 1   
    50   27   46 1   
    51   27   47 1   
@<TRIPOS>SUBSTRUCTURE
     1 NZS         1 TEMP              0 ****  ****    0 ROOT
