@<TRIPOS>MOLECULE
NZS
   47    40     1     0     0
SMALL
bcc


@<TRIPOS>ATOM
      1 C1          0.4730    0.0800    1.8770 c1        1 NZS     -0.093500
      2 N1          2.5210    0.3220    0.7410 n1        1 NZS     -0.237000
      3 O1         -5.8970   -1.9670    0.8910 os        1 NZS     -0.209000
      4 S1          3.1680    0.5840   -3.9490 ss        1 NZS      2.807000
      5 C2          1.8180    0.1980    1.9090 c1        1 NZS     -0.093500
      6 N2          0.4980    0.2070   -0.4910 n1        1 NZS     -0.307000
      7 O2          2.4670    0.2110   -5.1530 o         1 NZS     -0.929500
      8 C3          1.8610    0.3260   -0.4580 c1        1 NZS      0.188000
      9 N3          1.0960    0.0230    4.0070 n2        1 NZS     -0.047000
     10 O3          4.4760    1.0850   -4.2900 o         1 NZS     -0.929500
     11 C4         -0.1970    0.0850    0.6570 c1        1 NZS      0.255000
     12 N4          2.2170    0.1630    3.2270 n1        1 NZS     -0.148000
     13 C5          0.0210   -0.0290    3.1900 c1        1 NZS     -0.103000
     14 N5         -1.1570   -0.9440    0.3610 n3        1 NZS     -0.253000
     15 C6          3.2770   -0.0200    4.1770 c2        1 NZS     -0.049000
     16 N6          3.1390    0.8060   -0.9210 n3        1 NZS     -0.205000
     17 C7         -2.5370   -0.5990    0.1380 c2        1 NZS      0.090000
     18 C8         -3.5460   -1.3730    0.7060 c2        1 NZS     -0.192000
     19 C9         -4.8790   -1.1130    0.3990 c2        1 NZS      0.104000
     20 C10        -5.2020   -0.0810   -0.4760 c2        1 NZS     -0.221000
     21 C11        -4.1940    0.6920   -1.0430 c1        1 NZS     -0.071000
     22 C12        -2.8620    0.4330   -0.7360 c1        1 NZS     -0.204000
     23 C13        -6.5590   -1.4690    2.0420 c3        1 NZS     -0.076000
     24 C14         2.9350    2.0490   -1.7800 c3        1 NZS     -0.017000
     25 C15         2.3000    1.7820   -3.1430 c2        1 NZS     -0.900000
     26 C16         3.3250   -0.7640   -2.9490 c2        1 NZS     -0.900000
     27 C17         3.8970   -0.3340   -1.5970 c3        1 NZS     -0.017000
     28 H5         -0.9140   -0.1270    3.4720 DU        1 NZS      0.196000
     29 HN5        -0.8910   -1.8210    0.3180 hn        1 NZS      0.241000
     30 H6          4.1430    0.0350    3.7170 ha        1 NZS      0.101000
     31 H6A         3.1870   -0.9020    4.6020 ha        1 NZS      0.101000
     32 H6B         3.2260    0.6810    4.8640 ha        1 NZS      0.101000
     33 H8         -3.3160   -2.1200    1.3000 ha        1 NZS      0.157000
     34 H10        -6.1420    0.1030   -0.6930 ha        1 NZS      0.142000
     35 H11        -4.4230    1.4200   -1.6600 ha        1 NZS      0.139000
     36 H12        -2.1520    0.9780   -1.1360 ha        1 NZS      0.149000
     37 H13        -6.6470   -0.4930    1.9720 h1        1 NZS      0.086000
     38 H13A       -6.0370   -1.6940    2.8430 h1        1 NZS      0.086000
     39 H13B       -7.4520   -1.8740    2.1080 h1        1 NZS      0.086000
     40 H14         2.3600    2.6760   -1.2880 h1        1 NZS      0.124750
     41 H14A        3.8090    2.4750   -1.9230 h1        1 NZS      0.124750
     42 H15         1.3500    1.5340   -3.1730 ha        1 NZS      0.168250
     43 H15A        2.2830    2.6380   -3.6270 ha        1 NZS      0.168250
     44 H16         2.4830   -1.2660   -3.0050 ha        1 NZS      0.168250
     45 H16A        3.9570   -1.4320   -3.2980 ha        1 NZS      0.168250
     46 H17         4.8310   -0.0500   -1.7300 h1        1 NZS      0.124750
     47 H17A        3.8900   -1.1120   -0.9950 h1        1 NZS      0.124750
@<TRIPOS>BOND
     1    1    5 1   
     2    2    8 1   
     3    3   19 1   
     4    3   23 1   
     5    4    7 1   
     6    4   10 1   
     7    6   11 1   
     8    8   16 1   
     9    9   12 1   
    10    9   13 1   
    11   11   14 1   
    12   14   17 1   
    13   14   29 1   
    14   15   30 1   
    15   15   31 1   
    16   15   32 1   
    17   16   24 1   
    18   16   27 1   
    19   17   18 1   
    20   17   22 1   
    21   18   19 1   
    22   18   33 1   
    23   19   20 1   
    24   20   21 1   
    25   20   34 1   
    26   21   35 1   
    27   22   36 1   
    28   23   37 1   
    29   23   38 1   
    30   23   39 1   
    31   24   25 1   
    32   24   40 1   
    33   24   41 1   
    34   25   42 1   
    35   25   43 1   
    36   26   27 1   
    37   26   44 1   
    38   26   45 1   
    39   27   46 1   
    40   27   47 1   
@<TRIPOS>SUBSTRUCTURE
     1 NZS         1 TEMP              0 ****  ****    0 ROOT
