@<TRIPOS>MOLECULE
NZS
   47    50     1     0     0
SMALL
bcc


@<TRIPOS>ATOM
      1 C1         -0.2140   -2.8840    0.1070 ca        1 NZS     -0.523500
      2 N1          2.0830   -1.9660    0.3970 nb        1 NZS     -0.767000
      3 O1         -5.6170    1.3360   -1.3990 os        1 NZS     -0.327900
      4 S1          3.0060    2.6640   -0.9900 s6        1 NZS      1.327000
      5 C2          1.2320   -2.9990    0.1540 ca        1 NZS      0.495800
      6 N2          0.0710   -0.5320    0.5540 nb        1 NZS     -0.819000
      7 O2          2.7270    2.9840   -2.3260 o         1 NZS     -0.650800
      8 C3          1.4440   -0.7610    0.6160 ca        1 NZS      0.908900
      9 N3          0.3750   -5.0600   -0.2900 nc        1 NZS     -0.512100
     10 O3          3.8270    3.5460   -0.2740 o         1 NZS     -0.650800
     11 C4         -0.7590   -1.5860    0.3250 ca        1 NZS      0.780200
     12 N4          1.5180   -4.3530   -0.1300 na        1 NZS     -0.008800
     13 C5         -0.6750   -4.2250   -0.1750 cd        1 NZS      0.387800
     14 N5         -2.1450   -1.4430    0.3190 nh        1 NZS     -0.727300
     15 C6          2.8290   -4.9440   -0.0250 c3        1 NZS      0.048600
     16 N6          2.2690    0.3380    1.0190 nh        1 NZS     -0.715300
     17 C7         -2.8230   -0.2050    0.3660 ca        1 NZS      0.168600
     18 C8         -3.8720    0.0290   -0.5470 ca        1 NZS     -0.201000
     19 C9         -4.6090    1.2200   -0.4600 ca        1 NZS      0.144100
     20 C10        -4.3140    2.1850    0.5090 ca        1 NZS     -0.213000
     21 C11        -3.2730    1.9400    1.4020 ca        1 NZS     -0.085000
     22 C12        -2.5320    0.7650    1.3490 ca        1 NZS     -0.153000
     23 C13        -6.3660    2.5460   -1.3680 c3        1 NZS      0.113700
     24 C14         1.6600    1.6510    1.1520 c3        1 NZS      0.220800
     25 C15         1.5400    2.4330   -0.1540 c3        1 NZS     -0.361100
     26 C16         3.6600    1.0890   -0.9250 c3        1 NZS     -0.361100
     27 C17         3.6040    0.4200    0.4480 c3        1 NZS      0.220800
     28 H5         -1.7040   -4.5700   -0.2860 h4        1 NZS      0.053800
     29 HN5        -2.6320   -2.1800   -0.1460 hn        1 NZS      0.441800
     30 H6          3.0610   -5.1840    1.0470 h1        1 NZS      0.062033
     31 H6A         2.8730   -5.8860   -0.6330 h1        1 NZS      0.062033
     32 H6B         3.5830   -4.2080   -0.4130 h1        1 NZS      0.062033
     33 H8         -4.1360   -0.7000   -1.3270 ha        1 NZS      0.150000
     34 H10        -4.8860    3.1200    0.5740 ha        1 NZS      0.141000
     35 H11        -3.0360    2.6910    2.1720 ha        1 NZS      0.136000
     36 H12        -1.7240    0.6010    2.0780 ha        1 NZS      0.154000
     37 H13        -7.0950    2.4190   -2.2080 h1        1 NZS      0.046367
     38 H13A       -6.9010    2.6530   -0.3940 h1        1 NZS      0.046367
     39 H13B       -5.7030    3.4260   -1.5500 h1        1 NZS      0.046367
     40 H14         0.6480    1.5690    1.6360 h1        1 NZS      0.084700
     41 H14A        2.3250    2.2320    1.8590 h1        1 NZS      0.084700
     42 H15         1.0870    3.4290    0.1060 h1        1 NZS      0.129700
     43 H15A        0.7720    1.9300   -0.8030 h1        1 NZS      0.129700
     44 H16         3.1670    0.4160   -1.6770 h1        1 NZS      0.129700
     45 H16A        4.7440    1.1160   -1.2250 h1        1 NZS      0.129700
     46 H17         4.2210    1.0310    1.1710 h1        1 NZS      0.084700
     47 H17A        4.0750   -0.5990    0.3850 h1        1 NZS      0.084700
@<TRIPOS>BOND
     1    1    5 ar  
     2    1   11 ar  
     3    1   13 1   
     4    2    5 ar  
     5    2    8 ar  
     6    3   19 1   
     7    3   23 1   
     8    4    7 2   
     9    4   10 2   
    10    4   25 1   
    11    4   26 1   
    12    5   12 1   
    13    6    8 ar  
    14    6   11 ar  
    15    8   16 1   
    16    9   12 1   
    17    9   13 2   
    18   11   14 1   
    19   12   15 1   
    20   13   28 1   
    21   14   17 1   
    22   14   29 1   
    23   15   30 1   
    24   15   31 1   
    25   15   32 1   
    26   16   24 1   
    27   16   27 1   
    28   17   18 ar  
    29   17   22 ar  
    30   18   19 ar  
    31   18   33 1   
    32   19   20 ar  
    33   20   21 ar  
    34   20   34 1   
    35   21   22 ar  
    36   21   35 1   
    37   22   36 1   
    38   23   37 1   
    39   23   38 1   
    40   23   39 1   
    41   24   25 1   
    42   24   40 1   
    43   24   41 1   
    44   25   42 1   
    45   25   43 1   
    46   26   27 1   
    47   26   44 1   
    48   26   45 1   
    49   27   46 1   
    50   27   47 1   
@<TRIPOS>SUBSTRUCTURE
     1 NZS         1 TEMP              0 ****  ****    0 ROOT
