@<TRIPOS>MOLECULE
NZT
   56    60     1     0     0
SMALL
bcc


@<TRIPOS>ATOM
      1 CAI         3.6080    1.3670    2.1350 ca        1 NZT      0.022000
      2 CAE         3.3400    2.7490    2.2510 ca        1 NZT     -0.164000
      3 CAO         3.5320    3.5810    1.1740 ca        1 NZT     -0.042000
      4 CBD         3.9860    3.0570   -0.0620 ca        1 NZT     -0.172300
      5 CAN         4.2040    3.8850   -1.2010 ca        1 NZT     -0.062000
      6 CAD         4.6400    3.3190   -2.3720 ca        1 NZT     -0.257300
      7 CAF         4.8510    1.9040   -2.4080 ca        1 NZT      0.448200
      8 NAW         4.6600    1.0990   -1.3780 nb        1 NZT     -0.701000
      9 CBE         4.2390    1.6570   -0.1840 ca        1 NZT      0.482600
     10 CBC         4.0580    0.8070    0.9560 ca        1 NZT     -0.419800
     11 S1          4.4540   -0.8460    0.8970 sy        1 NZT      1.520200
     12 OAB         5.8000   -1.0110    0.5340 o         1 NZT     -0.644800
     13 OAC         4.0900   -1.3940    2.1460 o         1 NZT     -0.644800
     14 NAX         3.5190   -1.4370   -0.3020 nh        1 NZT     -0.758500
     15 CAZ         2.1610   -1.7750   -0.2910 ca        1 NZT      0.200600
     16 CAJ         1.4390   -1.8140   -1.5080 ca        1 NZT     -0.188000
     17 CAL         0.0900   -2.1450   -1.5200 ca        1 NZT     -0.062500
     18 CAK         1.4820   -2.1010    0.9060 ca        1 NZT     -0.188000
     19 CAM         0.1330   -2.4340    0.8770 ca        1 NZT     -0.062500
     20 CBA        -0.5760   -2.4450   -0.3290 ca        1 NZT     -0.169600
     21 CAY        -2.0060   -2.8560   -0.3160 c         1 NZT      0.669700
     22 OAA        -2.3640   -3.9020    0.2620 o         1 NZT     -0.590100
     23 NBF        -2.9380   -2.0920   -1.0280 n         1 NZT     -0.456800
     24 CAQ        -2.7310   -0.6890   -1.2970 c3        1 NZT      0.075500
     25 CAS        -3.6110    0.2530   -0.4410 c3        1 NZT      0.158300
     26 CAR        -4.3350   -2.4730   -1.0010 c3        1 NZT      0.075500
     27 CAT        -5.2240   -1.5430   -0.1460 c3        1 NZT      0.158300
     28 NBG        -5.0150   -0.1350   -0.4640 nh        1 NZT     -0.725300
     29 CBB        -5.9300    0.7520    0.1640 ca        1 NZT      0.507900
     30 NAV        -5.4960    1.8380    0.8820 nb        1 NZT     -0.685000
     31 CAH        -6.4400    2.6710    1.3520 ca        1 NZT      0.311900
     32 CAG        -7.8230    2.4560    1.1440 ca        1 NZT      0.245900
     33 NAU        -8.2690    1.3910    0.4450 nb        1 NZT     -0.613000
     34 CAP        -7.3460    0.5500   -0.0400 ca        1 NZT      0.265900
     35 H1          3.4570    0.7210    3.0220 ha        1 NZT      0.170000
     36 H2          2.9840    3.1460    3.2140 ha        1 NZT      0.148000
     37 H3          3.3370    4.6620    1.2530 ha        1 NZT      0.141000
     38 H4          4.0180    4.9660   -1.1180 ha        1 NZT      0.144000
     39 H5          4.8290    3.9160   -3.2740 ha        1 NZT      0.152000
     40 H6          5.1960    1.4250   -3.3440 h4        1 NZT      0.029100
     41 H10         1.9430   -1.5880   -2.4600 ha        1 NZT      0.158000
     42 H11        -0.4530   -2.1780   -2.4780 ha        1 NZT      0.148500
     43 H12         2.0140   -2.1170    1.8740 ha        1 NZT      0.158000
     44 H13        -0.3820   -2.7110    1.8120 ha        1 NZT      0.148500
     45 H14        -1.6590   -0.4020   -1.1170 h1        1 NZT      0.070200
     46 H15        -2.9670   -0.5170   -2.3870 h1        1 NZT      0.070200
     47 H16        -3.2040    0.2770    0.6110 h1        1 NZT      0.054950
     48 H17        -3.5220    1.2870   -0.8750 h1        1 NZT      0.054950
     49 H18        -4.7050   -2.4570   -2.0660 h1        1 NZT      0.070200
     50 H19        -4.4420   -3.5190   -0.5970 h1        1 NZT      0.070200
     51 H20        -6.2950   -1.8110   -0.3580 h1        1 NZT      0.054950
     52 H21        -5.0220   -1.7480    0.9460 h1        1 NZT      0.054950
     53 H22        -6.0740    3.5410    1.9250 h4        1 NZT      0.031100
     54 H23        -8.5840    3.1480    1.5400 h4        1 NZT      0.035100
     55 H24        -7.7270   -0.3050   -0.6230 h4        1 NZT      0.037100
     56 H7          3.9190   -1.4900   -1.2180 hn        1 NZT      0.464800
@<TRIPOS>BOND
     1    1    2 ar  
     2    1   10 ar  
     3    1   35 1   
     4    2    3 ar  
     5    2   36 1   
     6    3    4 ar  
     7    3   37 1   
     8    4    5 ar  
     9    4    9 ar  
    10    5    6 ar  
    11    5   38 1   
    12    6    7 ar  
    13    6   39 1   
    14    7    8 ar  
    15    7   40 1   
    16    8    9 ar  
    17    9   10 ar  
    18   10   11 1   
    19   11   12 2   
    20   11   13 2   
    21   11   14 1   
    22   14   15 1   
    23   14   56 1   
    24   15   16 ar  
    25   15   18 ar  
    26   16   17 ar  
    27   16   41 1   
    28   17   20 ar  
    29   17   42 1   
    30   18   19 ar  
    31   18   43 1   
    32   19   20 ar  
    33   19   44 1   
    34   20   21 1   
    35   21   22 2   
    36   21   23 1   
    37   23   24 1   
    38   23   26 1   
    39   24   25 1   
    40   24   45 1   
    41   24   46 1   
    42   25   28 1   
    43   25   47 1   
    44   25   48 1   
    45   26   27 1   
    46   26   49 1   
    47   26   50 1   
    48   27   28 1   
    49   27   51 1   
    50   27   52 1   
    51   28   29 1   
    52   29   30 ar  
    53   29   34 ar  
    54   30   31 ar  
    55   31   32 ar  
    56   31   53 1   
    57   32   33 ar  
    58   32   54 1   
    59   33   34 ar  
    60   34   55 1   
@<TRIPOS>SUBSTRUCTURE
     1 NZT         1 TEMP              0 ****  ****    0 ROOT
