@<TRIPOS>MOLECULE
NZT
   56    60     1     0     0
SMALL
bcc


@<TRIPOS>ATOM
      1 CAI        -0.0340    0.8580    0.2600 ca        1 NZT      0.022000
      2 CAE         1.3130    1.2270    0.4630 ca        1 NZT     -0.164000
      3 CAO         1.8390    1.2460    1.7320 ca        1 NZT     -0.042000
      4 CBD         1.0370    0.8850    2.8430 ca        1 NZT     -0.172300
      5 CAN         1.5400    0.8980    4.1760 ca        1 NZT     -0.062000
      6 CAD         0.7170    0.5330    5.2110 ca        1 NZT     -0.257300
      7 CAF        -0.6250    0.1400    4.9070 ca        1 NZT      0.448200
      8 NAW        -1.1320    0.1110    3.6880 nb        1 NZT     -0.701000
      9 CBE        -0.3210    0.4950    2.6360 ca        1 NZT      0.482600
     10 CBC        -0.8600    0.5040    1.3080 ca        1 NZT     -0.419800
     11 S1         -2.5000    0.1590    1.0190 sy        1 NZT      1.520200
     12 OAB        -3.3180    1.0380    1.7460 o         1 NZT     -0.644800
     13 OAC        -2.6780    0.1820   -0.3820 o         1 NZT     -0.644800
     14 NAX        -2.7030   -1.3460    1.6150 nh        1 NZT     -0.758500
     15 CAZ        -2.3550   -2.5810    1.0550 ca        1 NZT      0.200600
     16 CAJ        -2.1780   -3.7070    1.8970 ca        1 NZT     -0.188000
     17 CAL        -1.8320   -4.9410    1.3630 ca        1 NZT     -0.062500
     18 CAK        -2.1920   -2.7510   -0.3400 ca        1 NZT     -0.188000
     19 CAM        -1.8490   -3.9940   -0.8580 ca        1 NZT     -0.062500
     20 CBA        -1.6520   -5.0920   -0.0150 ca        1 NZT     -0.169600
     21 CAY        -1.3350   -6.4140   -0.6210 c         1 NZT      0.669700
     22 OAA        -2.0180   -6.8640   -1.5620 o         1 NZT     -0.590100
     23 NBF        -0.3030   -7.1830   -0.0700 n         1 NZT     -0.456800
     24 CAQ         0.7970   -6.5850    0.6490 c3        1 NZT      0.075500
     25 CAS         2.1300   -6.5720   -0.1380 c3        1 NZT      0.158300
     26 CAR         0.0250   -8.4600   -0.6680 c3        1 NZT      0.075500
     27 CAT         1.3520   -8.4590   -1.4600 c3        1 NZT      0.158300
     28 NBG         2.4510   -7.8790   -0.6960 nh        1 NZT     -0.725300
     29 CBB         3.7270   -8.0140   -1.3040 ca        1 NZT      0.507900
     30 NAV         4.5510   -6.9330   -1.4880 nb        1 NZT     -0.685000
     31 CAH         5.7760   -7.1800   -1.9810 ca        1 NZT      0.311900
     32 CAG         6.2190   -8.4820   -2.3150 ca        1 NZT      0.244900
     33 NAU         5.4210   -9.5570   -2.1470 nb        1 NZT     -0.613000
     34 CAP         4.1970   -9.3360   -1.6500 ca        1 NZT      0.265900
     35 H1         -0.4370    0.8630   -0.7720 ha        1 NZT      0.170000
     36 H2          1.9300    1.5020   -0.4070 ha        1 NZT      0.148000
     37 H3          2.8860    1.5420    1.9070 ha        1 NZT      0.141000
     38 H4          2.5830    1.2020    4.3510 ha        1 NZT      0.144000
     39 H5          1.0560    0.5330    6.2550 ha        1 NZT      0.152000
     40 H6         -1.3050   -0.1650    5.7260 h4        1 NZT      0.029100
     41 H10        -2.3210   -3.6140    2.9840 ha        1 NZT      0.158000
     42 H11        -1.7070   -5.8070    2.0330 ha        1 NZT      0.148500
     43 H12        -2.3530   -1.9090   -1.0360 ha        1 NZT      0.158000
     44 H13        -1.7480   -4.1220   -1.9480 ha        1 NZT      0.148500
     45 H14         0.5610   -5.5210    0.9260 h1        1 NZT      0.070200
     46 H15         0.9400   -7.1770    1.5980 h1        1 NZT      0.070200
     47 H16         2.0730   -5.7810   -0.9400 h1        1 NZT      0.054950
     48 H17         2.9450   -6.2850    0.5830 h1        1 NZT      0.054950
     49 H18        -0.7950   -8.7800   -1.3710 h1        1 NZT      0.070200
     50 H19         0.0990   -9.2110    0.1690 h1        1 NZT      0.070200
     51 H20         1.6000   -9.5290   -1.7030 h1        1 NZT      0.054950
     52 H21         1.1970   -7.9070   -2.4320 h1        1 NZT      0.054950
     53 H22         6.4270   -6.2990   -2.1190 h4        1 NZT      0.031100
     54 H23         7.2260   -8.6660   -2.7210 h4        1 NZT      0.035100
     55 H24         3.5640  -10.2280   -1.5030 h4        1 NZT      0.037100
     56 H7         -3.0340   -1.4320    2.5550 hn        1 NZT      0.464800
@<TRIPOS>BOND
     1    1    2 ar  
     2    1   10 ar  
     3    1   35 1   
     4    2    3 ar  
     5    2   36 1   
     6    3    4 ar  
     7    3   37 1   
     8    4    5 ar  
     9    4    9 ar  
    10    5    6 ar  
    11    5   38 1   
    12    6    7 ar  
    13    6   39 1   
    14    7    8 ar  
    15    7   40 1   
    16    8    9 ar  
    17    9   10 ar  
    18   10   11 1   
    19   11   12 2   
    20   11   13 2   
    21   11   14 1   
    22   14   15 1   
    23   14   56 1   
    24   15   16 ar  
    25   15   18 ar  
    26   16   17 ar  
    27   16   41 1   
    28   17   20 ar  
    29   17   42 1   
    30   18   19 ar  
    31   18   43 1   
    32   19   20 ar  
    33   19   44 1   
    34   20   21 1   
    35   21   22 2   
    36   21   23 1   
    37   23   24 1   
    38   23   26 1   
    39   24   25 1   
    40   24   45 1   
    41   24   46 1   
    42   25   28 1   
    43   25   47 1   
    44   25   48 1   
    45   26   27 1   
    46   26   49 1   
    47   26   50 1   
    48   27   28 1   
    49   27   51 1   
    50   27   52 1   
    51   28   29 1   
    52   29   30 ar  
    53   29   34 ar  
    54   30   31 ar  
    55   31   32 ar  
    56   31   53 1   
    57   32   33 ar  
    58   32   54 1   
    59   33   34 ar  
    60   34   55 1   
@<TRIPOS>SUBSTRUCTURE
     1 NZT         1 TEMP              0 ****  ****    0 ROOT
