@<TRIPOS>MOLECULE
NZT
   57    61     1     0     0
SMALL
bcc


@<TRIPOS>ATOM
      1 CAI         0.6200   -0.1040    0.5110 ca        1 NZT      0.076000
      2 CAE         1.9030   -0.1340    1.0730 ca        1 NZT     -0.178000
      3 CAO         2.0710    0.0240    2.4350 ca        1 NZT      0.032000
      4 CBD         0.9450    0.1730    3.2800 ca        1 NZT     -0.182300
      5 CAN         1.0670    0.3360    4.6920 ca        1 NZT     -0.036000
      6 CAD        -0.0680    0.4510    5.4570 ca        1 NZT     -0.244300
      7 CAF        -1.3410    0.3760    4.8100 ca        1 NZT      0.494200
      8 NAW        -1.4970    0.2240    3.5030 nb        1 NZT     -0.768000
      9 CBE        -0.3650    0.1590    2.7170 ca        1 NZT      0.499600
     10 CBC        -0.5270    0.0760    1.2890 ca        1 NZT     -0.560800
     11 S1         -1.9620    0.3130    0.5870 sy        1 NZT      1.480200
     12 OAB        -2.7170    1.3720    1.0420 o         1 NZT     -0.572800
     13 OAC        -1.9460    0.0530   -0.7740 o         1 NZT     -0.572800
     14 NAX        -3.0060   -1.1390    1.2480 n4        1 NZT     -0.561300
     15 CAZ        -2.5230   -2.4650    0.8990 ca        1 NZT     -0.034400
     16 CAJ        -2.1060   -3.3540    1.9070 ca        1 NZT     -0.111500
     17 CAL        -1.6640   -4.6280    1.5620 ca        1 NZT     -0.079500
     18 CAK        -2.5100   -2.8680   -0.4510 ca        1 NZT     -0.111500
     19 CAM        -2.0730   -4.1490   -0.7780 ca        1 NZT     -0.079500
     20 CBA        -1.6480   -5.0290    0.2230 ca        1 NZT     -0.084600
     21 CAY        -1.2830   -6.4310   -0.1640 c         1 NZT      0.649700
     22 OAA        -2.1090   -7.1170   -0.7950 o         1 NZT     -0.560100
     23 NBF        -0.0730   -6.9590    0.2730 n         1 NZT     -0.443800
     24 CAQ         1.0540   -6.1210    0.6150 c3        1 NZT      0.072000
     25 CAS         2.1870   -6.1380   -0.4390 c3        1 NZT      0.156800
     26 CAR         0.3060   -8.2970   -0.1440 c3        1 NZT      0.072000
     27 CAT         1.4450   -8.3250   -1.1870 c3        1 NZT      0.156800
     28 NBG         2.5780   -7.4970   -0.7860 nh        1 NZT     -0.722300
     29 CBB         3.7150   -7.6240   -1.6390 ca        1 NZT      0.485900
     30 NAV         4.2520   -6.5420   -2.2850 nb        1 NZT     -0.685000
     31 CAH         5.3720   -6.7570   -2.9960 ca        1 NZT      0.306900
     32 CAG         5.9800   -8.0330   -3.0950 ca        1 NZT      0.265900
     33 NAU         5.4620   -9.1080   -2.4690 nb        1 NZT     -0.607000
     34 CAP         4.3460   -8.9150   -1.7480 ca        1 NZT      0.282900
     35 H1          0.5170   -0.2030   -0.5890 ha        1 NZT      0.177000
     36 H2          2.7770   -0.2680    0.4130 ha        1 NZT      0.177000
     37 H3          3.0820    0.0330    2.8800 ha        1 NZT      0.169000
     38 H4          2.0720    0.3690    5.1440 ha        1 NZT      0.168000
     39 H5         -0.0240    0.5950    6.5480 ha        1 NZT      0.178000
     40 H6         -2.2710    0.4440    5.4100 h4        1 NZT      0.050100
     41 H10        -2.1310   -3.0630    2.9700 ha        1 NZT      0.165000
     42 H11        -1.3440   -5.3280    2.3520 ha        1 NZT      0.177000
     43 H12        -2.8370   -2.1850   -1.2560 ha        1 NZT      0.165000
     44 H13        -2.0850   -4.4800   -1.8320 ha        1 NZT      0.177000
     45 H14         1.4620   -6.4970    1.5980 h1        1 NZT      0.071700
     46 H15         0.7320   -5.0520    0.7510 h1        1 NZT      0.071700
     47 H16         3.0790   -5.6190    0.0110 h1        1 NZT      0.058200
     48 H17         1.8540   -5.5490   -1.3410 h1        1 NZT      0.058200
     49 H18        -0.5830   -8.8310   -0.5850 h1        1 NZT      0.071700
     50 H19         0.6370   -8.8470    0.7830 h1        1 NZT      0.071700
     51 H20         1.0330   -8.0040   -2.1880 h1        1 NZT      0.058200
     52 H21         1.7940   -9.3910   -1.2790 h1        1 NZT      0.058200
     53 H22         5.7960   -5.8770   -3.5100 h4        1 NZT      0.036100
     54 H23         6.8980   -8.1930   -3.6850 h4        1 NZT      0.044100
     55 H24         3.9410   -9.8010   -1.2290 h4        1 NZT      0.042100
     56 H7         -3.1020   -1.0750    2.2640 hn        1 NZT      0.459800
     57 HAX2       -3.9490   -1.0420    0.8610 hn        1 NZT      0.459800
@<TRIPOS>BOND
     1    1    2 ar  
     2    1   10 ar  
     3    1   35 1   
     4    2    3 ar  
     5    2   36 1   
     6    3    4 ar  
     7    3   37 1   
     8    4    5 ar  
     9    4    9 ar  
    10    5    6 ar  
    11    5   38 1   
    12    6    7 ar  
    13    6   39 1   
    14    7    8 ar  
    15    7   40 1   
    16    8    9 ar  
    17    9   10 ar  
    18   10   11 1   
    19   11   12 2   
    20   11   13 2   
    21   11   14 1   
    22   14   15 1   
    23   14   56 1   
    24   14   57 1   
    25   15   16 ar  
    26   15   18 ar  
    27   16   17 ar  
    28   16   41 1   
    29   17   20 ar  
    30   17   42 1   
    31   18   19 ar  
    32   18   43 1   
    33   19   20 ar  
    34   19   44 1   
    35   20   21 1   
    36   21   22 2   
    37   21   23 1   
    38   23   24 1   
    39   23   26 1   
    40   24   25 1   
    41   24   45 1   
    42   24   46 1   
    43   25   28 1   
    44   25   47 1   
    45   25   48 1   
    46   26   27 1   
    47   26   49 1   
    48   26   50 1   
    49   27   28 1   
    50   27   51 1   
    51   27   52 1   
    52   28   29 1   
    53   29   30 ar  
    54   29   34 ar  
    55   30   31 ar  
    56   31   32 ar  
    57   31   53 1   
    58   32   33 ar  
    59   32   54 1   
    60   33   34 ar  
    61   34   55 1   
@<TRIPOS>SUBSTRUCTURE
     1 NZT         1 TEMP              0 ****  ****    0 ROOT
