@<TRIPOS>MOLECULE
NZT
   56    47     1     0     0
SMALL
bcc


@<TRIPOS>ATOM
      1 CAI         2.2880    4.3110   -3.6670 c1        1 NZT     -0.097750
      2 CAE         2.8400    5.3670   -4.3600 c1        1 NZT     -0.097750
      3 CAO         2.0720    6.5170   -4.6170 c1        1 NZT     -0.040000
      4 CBD         0.7320    6.5870   -4.1630 c1        1 NZT     -0.106000
      5 CAN        -0.0370    7.7370   -4.4000 c1        1 NZT     -0.097750
      6 CAD        -1.3180    7.8030   -3.9450 c1        1 NZT     -0.097750
      7 CAF        -1.8680    6.7210   -3.2410 c1        1 NZT     -0.086000
      8 NAW        -1.1310    5.6190   -3.0140 n1        1 NZT     -0.140000
      9 CBE         0.1980    5.5490   -3.4840 c1        1 NZT      0.090000
     10 CBC         0.9820    4.3820   -3.2250 c1        1 NZT     -0.802000
     11 S1          0.4720    2.7680   -2.7090 s4        1 NZT      2.075800
     12 OAB        -0.9770    2.7480   -2.3250 o         1 NZT     -0.532900
     13 OAC         0.4810    1.8550   -3.7930 o         1 NZT     -0.532900
     14 NAX         1.4940    2.2040   -1.3920 n2        1 NZT     -0.806000
     15 CAZ         1.4180    0.8210   -0.9470 c2        1 NZT      0.121000
     16 CAJ         2.0320   -0.2310   -1.7370 c2        1 NZT     -0.193000
     17 CAL         2.1060   -1.4580   -1.2630 c1        1 NZT     -0.052000
     18 CAK         0.9200    0.5430    0.2810 c1        1 NZT     -0.186000
     19 CAM         0.9920   -0.6810    0.7600 c1        1 NZT     -0.072000
     20 CBA         1.6080   -1.7380   -0.0330 c1        1 NZT     -0.150000
     21 CAY         1.6550   -3.1950    0.5140 c1        1 NZT      0.344000
     22 OAA         2.1630   -4.0520   -0.1260 o         1 NZT     -0.355000
     23 NBF         1.0910   -3.5040    1.8830 n2        1 NZT     -0.315000
     24 CAQ         1.1250   -4.8240    2.4790 c3        1 NZT     -0.040000
     25 CAS        -0.2450   -5.2750    2.9330 c3        1 NZT     -0.079000
     26 CAR         0.4660   -2.5370    2.6830 c3        1 NZT     -0.040000
     27 CAT        -0.9180   -2.9800    3.1450 c3        1 NZT     -0.079000
     28 NBG        -0.8940   -4.2970    3.7590 n3        1 NZT     -0.216000
     29 CBB        -2.2280   -4.7220    4.0470 c1        1 NZT      0.051000
     30 NAV        -3.0850   -4.9770    3.0400 n1        1 NZT     -0.140000
     31 CAH        -4.3380   -5.3290    3.3060 c1        1 NZT     -0.086000
     32 CAG        -4.7610   -5.4360    4.6120 c1        1 NZT     -0.086000
     33 NAU        -3.8750   -5.1730    5.6530 n1        1 NZT     -0.140000
     34 CAP        -2.6620   -4.8320    5.3940 c1        1 NZT     -0.135000
     35 H1          2.8860    3.4190   -3.4660 ha        1 NZT      0.153500
     36 H2          3.7710    5.3170   -4.6710 ha        1 NZT      0.153500
     37 H3          2.4560    7.2550   -5.1020 ha        1 NZT      0.141000
     38 H4          0.3110    8.4180   -4.8430 ha        1 NZT      0.153500
     39 H5         -1.8970    8.6660   -4.1240 ha        1 NZT      0.153500
     40 H6         -2.7220    6.7650   -2.9380 ha        1 NZT      0.169000
     41 H10         2.3960   -0.0280   -2.6190 ha        1 NZT      0.176000
     42 H11         2.5110   -2.1480   -1.7860 ha        1 NZT      0.152000
     43 H12         0.5140    1.2440    0.8110 ha        1 NZT      0.139000
     44 H13         0.6290   -0.8820    1.6600 ha        1 NZT      0.144000
     45 H14         1.7330   -4.8140    3.2510 h1        1 NZT      0.109500
     46 H15         1.4770   -5.4860    1.7910 h1        1 NZT      0.109500
     47 H16        -0.1510   -6.1390    3.4560 h1        1 NZT      0.095250
     48 H17        -0.7710   -5.4330    2.1840 h1        1 NZT      0.095250
     49 H18         0.3730   -1.6620    2.1420 h1        1 NZT      0.109500
     50 H19         1.0480   -2.3630    3.5050 h1        1 NZT      0.109500
     51 H20        -1.5050   -2.9980    2.3900 h1        1 NZT      0.095250
     52 H21        -1.2800   -2.2880    3.8420 h1        1 NZT      0.095250
     53 H22        -4.9510   -5.5100    2.5870 ha        1 NZT      0.169000
     54 H23        -5.6790   -5.6940    4.8050 ha        1 NZT      0.169000
     55 H24        -2.0260   -4.6440    6.1450 ha        1 NZT      0.173000
     56 H7          2.0790    2.7150   -1.0660 hn        1 NZT      0.259000
@<TRIPOS>BOND
     1    1    2 1   
     2    1   35 1   
     3    2   36 1   
     4    3    4 1   
     5    3   37 1   
     6    4    9 1   
     7    5    6 1   
     8    5   38 1   
     9    6   39 1   
    10    7    8 1   
    11    7   40 1   
    12    9   10 1   
    13   10   11 1   
    14   11   12 1   
    15   11   13 1   
    16   14   15 1   
    17   14   56 1   
    18   15   16 1   
    19   15   18 1   
    20   16   17 1   
    21   16   41 1   
    22   17   42 1   
    23   18   43 1   
    24   19   20 1   
    25   19   44 1   
    26   21   22 1   
    27   23   24 1   
    28   23   26 1   
    29   24   25 1   
    30   24   45 1   
    31   24   46 1   
    32   25   28 1   
    33   25   47 1   
    34   25   48 1   
    35   26   27 1   
    36   26   49 1   
    37   26   50 1   
    38   27   28 1   
    39   27   51 1   
    40   27   52 1   
    41   28   29 1   
    42   29   34 1   
    43   30   31 1   
    44   31   53 1   
    45   32   33 1   
    46   32   54 1   
    47   34   55 1   
@<TRIPOS>SUBSTRUCTURE
     1 NZT         1 TEMP              0 ****  ****    0 ROOT
