@<TRIPOS>MOLECULE
NZT
   56    60     1     0     0
SMALL
bcc


@<TRIPOS>ATOM
      1 CAI        -0.0280    0.8570    0.2480 ca        1 NZT      0.022000
      2 CAE         1.3190    1.2250    0.4540 ca        1 NZT     -0.164000
      3 CAO         1.8410    1.2480    1.7250 ca        1 NZT     -0.042000
      4 CBD         1.0350    0.8910    2.8350 ca        1 NZT     -0.172300
      5 CAN         1.5350    0.9080    4.1700 ca        1 NZT     -0.062000
      6 CAD         0.7080    0.5470    5.2030 ca        1 NZT     -0.257300
      7 CAF        -0.6330    0.1540    4.8970 ca        1 NZT      0.448200
      8 NAW        -1.1370    0.1210    3.6750 nb        1 NZT     -0.701000
      9 CBE        -0.3220    0.5020    2.6250 ca        1 NZT      0.482600
     10 CBC        -0.8570    0.5060    1.2950 ca        1 NZT     -0.419800
     11 S1         -2.4970    0.1610    1.0020 sy        1 NZT      1.520200
     12 OAB        -3.3160    1.0440    1.7240 o         1 NZT     -0.644800
     13 OAC        -2.6700    0.1800   -0.3990 o         1 NZT     -0.644800
     14 NAX        -2.7020   -1.3420    1.6020 nu        1 NZT     -0.758500
     15 CAZ        -2.3540   -2.5790    1.0470 ca        1 NZT      0.200600
     16 CAJ        -2.1790   -3.7020    1.8920 ca        1 NZT     -0.188000
     17 CAL        -1.8330   -4.9390    1.3630 ca        1 NZT     -0.062500
     18 CAK        -2.1890   -2.7530   -0.3470 ca        1 NZT     -0.188000
     19 CAM        -1.8460   -3.9980   -0.8610 ca        1 NZT     -0.062500
     20 CBA        -1.6510   -5.0930   -0.0140 ca        1 NZT     -0.169600
     21 CAY        -1.3340   -6.4180   -0.6160 c         1 NZT      0.669700
     22 OAA        -2.0180   -6.8710   -1.5550 o         1 NZT     -0.590100
     23 NBF        -0.3040   -7.1850   -0.0610 n         1 NZT     -0.456800
     24 CAQ         0.7970   -6.5850    0.6560 c3        1 NZT      0.075500
     25 CAS         2.1290   -6.5750   -0.1310 c3        1 NZT      0.158300
     26 CAR         0.0250   -8.4640   -0.6550 c3        1 NZT      0.075500
     27 CAT         1.3520   -8.4660   -1.4470 c3        1 NZT      0.158300
     28 NBG         2.4510   -7.8830   -0.6850 nh        1 NZT     -0.725300
     29 CBB         3.7270   -8.0200   -1.2920 ca        1 NZT      0.507900
     30 NAV         4.5500   -6.9390   -1.4800 nb        1 NZT     -0.685000
     31 CAH         5.7760   -7.1870   -1.9720 ca        1 NZT      0.311900
     32 CAG         6.2190   -8.4900   -2.3030 ca        1 NZT      0.245900
     33 NAU         5.4220   -9.5650   -2.1310 nb        1 NZT     -0.613000
     34 CAP         4.1970   -9.3420   -1.6340 ca        1 NZT      0.265900
     35 H1         -0.4270    0.8580   -0.7850 ha        1 NZT      0.170000
     36 H2          1.9380    1.4970   -0.4140 ha        1 NZT      0.148000
     37 H3          2.8880    1.5440    1.9020 ha        1 NZT      0.141000
     38 H4          2.5770    1.2130    4.3460 ha        1 NZT      0.144000
     39 H5          1.0440    0.5510    6.2480 ha        1 NZT      0.152000
     40 H6         -1.3160   -0.1470    5.7140 h4        1 NZT      0.029100
     41 H10        -2.3230   -3.6060    2.9790 ha        1 NZT      0.158000
     42 H11        -1.7090   -5.8020    2.0360 ha        1 NZT      0.148500
     43 H12        -2.3490   -1.9130   -1.0460 ha        1 NZT      0.158000
     44 H13        -1.7440   -4.1300   -1.9510 ha        1 NZT      0.148500
     45 H14         0.5610   -5.5200    0.9300 h1        1 NZT      0.070200
     46 H15         0.9400   -7.1740    1.6070 h1        1 NZT      0.070200
     47 H16         2.9450   -6.2850    0.5890 h1        1 NZT      0.054950
     48 H17         2.0730   -5.7860   -0.9350 h1        1 NZT      0.054950
     49 H18        -0.7950   -8.7860   -1.3570 h1        1 NZT      0.070200
     50 H19         0.0990   -9.2130    0.1850 h1        1 NZT      0.070200
     51 H20         1.6010   -9.5360   -1.6860 h1        1 NZT      0.054950
     52 H21         1.1970   -7.9170   -2.4210 h1        1 NZT      0.054950
     53 H22         6.4260   -6.3060   -2.1140 h4        1 NZT      0.031100
     54 H23         7.2260   -8.6750   -2.7090 h4        1 NZT      0.035100
     55 H24         3.5650  -10.2340   -1.4840 h4        1 NZT      0.037100
     56 H7         -3.0350   -1.4240    2.5420 hn        1 NZT      0.464800
@<TRIPOS>BOND
     1    1    2 ar  
     2    1   10 ar  
     3    1   35 1   
     4    2    3 ar  
     5    2   36 1   
     6    3    4 ar  
     7    3   37 1   
     8    4    5 ar  
     9    4    9 ar  
    10    5    6 ar  
    11    5   38 1   
    12    6    7 ar  
    13    6   39 1   
    14    7    8 ar  
    15    7   40 1   
    16    8    9 ar  
    17    9   10 ar  
    18   10   11 1   
    19   11   12 2   
    20   11   13 2   
    21   11   14 1   
    22   14   15 1   
    23   14   56 1   
    24   15   16 ar  
    25   15   18 ar  
    26   16   17 ar  
    27   16   41 1   
    28   17   20 ar  
    29   17   42 1   
    30   18   19 ar  
    31   18   43 1   
    32   19   20 ar  
    33   19   44 1   
    34   20   21 1   
    35   21   22 2   
    36   21   23 1   
    37   23   24 1   
    38   23   26 1   
    39   24   25 1   
    40   24   45 1   
    41   24   46 1   
    42   25   28 1   
    43   25   47 1   
    44   25   48 1   
    45   26   27 1   
    46   26   49 1   
    47   26   50 1   
    48   27   28 1   
    49   27   51 1   
    50   27   52 1   
    51   28   29 1   
    52   29   30 ar  
    53   29   34 ar  
    54   30   31 ar  
    55   31   32 ar  
    56   31   53 1   
    57   32   33 ar  
    58   32   54 1   
    59   33   34 ar  
    60   34   55 1   
@<TRIPOS>SUBSTRUCTURE
     1 NZT         1 TEMP              0 ****  ****    0 ROOT
