@<TRIPOS>MOLECULE
NZU
   46    49     1     0     0
SMALL
bcc


@<TRIPOS>ATOM
      1 C1          0.0590    0.2760    0.0810 c3        1 NZU      0.047600
      2 N2          1.4990    0.3180    0.0390 na        1 NZU     -0.005800
      3 C3          2.3350    0.1550    1.1630 ca        1 NZU      0.473800
      4 C4          3.6930    0.1400    0.6470 ca        1 NZU     -0.505500
      5 C5          3.5350    0.2760   -0.7830 cc        1 NZU      0.379800
      6 N6          2.2280    0.3660   -1.0980 nd        1 NZU     -0.510100
      7 C7          4.7430    0.0020    1.6020 ca        1 NZU      0.758200
      8 N8          4.4390   -0.0800    2.9340 nb        1 NZU     -0.792000
      9 C9          3.1110   -0.0650    3.2990 cp        1 NZU      0.765500
     10 N10         2.0200    0.0490    2.4880 nb        1 NZU     -0.728000
     11 C11         2.8360   -0.1900    4.7580 cp        1 NZU     -0.087500
     12 C12         1.8270   -1.0040    5.2190 ca        1 NZU     -0.097000
     13 C13         1.5520   -1.1310    6.6120 ca        1 NZU     -0.134000
     14 C14         2.2650   -0.4530    7.5620 ca        1 NZU     -0.077000
     15 C15         3.3160    0.4050    7.1320 ca        1 NZU     -0.085000
     16 C16         3.6090    0.5320    5.6980 ca        1 NZU     -0.104000
     17 C17         4.6880    1.4440    5.6410 cc        1 NZU     -0.141100
     18 N18         4.9630    1.7900    6.9580 na        1 NZU      0.045800
     19 N19         4.1790    1.1990    7.8530 nc        1 NZU     -0.279400
     20 N21         6.0510   -0.0930    1.1580 nh        1 NZU     -0.863900
     21 C22         7.1630   -0.1040    2.0740 c3        1 NZU      0.223800
     22 C23         8.5130   -0.1890    1.3610 c3        1 NZU     -0.072400
     23 C24         9.6270   -0.2870    2.3790 c3        1 NZU     -0.317600
     24 S25        11.1620   -0.3320    1.6210 s6        1 NZU      1.341000
     25 O26        11.2140   -1.3970    0.7150 o         1 NZU     -0.650300
     26 O27        11.4800    0.9450    1.1440 o         1 NZU     -0.650300
     27 C28        12.1060   -0.6880    2.9740 c3        1 NZU     -0.373300
     28 H1         -0.2840    0.7220    1.0520 h1        1 NZU      0.062700
     29 H1A        -0.3680    0.8610   -0.7760 h1        1 NZU      0.062700
     30 H1B        -0.2950   -0.7880    0.0140 h1        1 NZU      0.062700
     31 H5          4.3160    0.3040   -1.5440 h4        1 NZU      0.052800
     32 H12         1.2040   -1.5790    4.5160 ha        1 NZU      0.146000
     33 H13         0.7320   -1.8020    6.9110 ha        1 NZU      0.134000
     34 H14         2.0480   -0.5510    8.6350 ha        1 NZU      0.145000
     35 H17         5.2490    1.8360    4.7940 h4        1 NZU      0.188000
     36 HN21        6.2210    0.1980    0.2230 hn        1 NZU      0.435800
     37 H22         7.0480   -0.9930    2.7590 h1        1 NZU      0.053700
     38 H22A        7.1500    0.8230    2.7190 h1        1 NZU      0.053700
     39 H23         8.6690    0.7230    0.7240 hc        1 NZU      0.068700
     40 H23A        8.5430   -1.0900    0.6900 hc        1 NZU      0.068700
     41 H24         9.4500   -1.1960    3.0120 h1        1 NZU      0.112700
     42 H24A        9.5500    0.5870    3.0800 h1        1 NZU      0.112700
     43 H28        11.9010   -0.0300    3.8530 h1        1 NZU      0.119700
     44 H28A       11.9830   -1.7420    3.3280 h1        1 NZU      0.119700
     45 H28B       13.1970   -0.5650    2.7500 h1        1 NZU      0.119700
     46 HN18        5.6670    2.4220    7.2660 hn        1 NZU      0.320700
@<TRIPOS>BOND
     1    1    2 1   
     2    1   28 1   
     3    1   29 1   
     4    1   30 1   
     5    2    3 1   
     6    2    6 1   
     7    3    4 ar  
     8    3   10 ar  
     9    4    5 1   
    10    4    7 ar  
    11    5    6 2   
    12    5   31 1   
    13    7    8 ar  
    14    7   20 1   
    15    8    9 ar  
    16    9   10 ar  
    17    9   11 1   
    18   11   12 ar  
    19   11   16 ar  
    20   12   13 ar  
    21   12   32 1   
    22   13   14 ar  
    23   13   33 1   
    24   14   15 ar  
    25   14   34 1   
    26   15   16 ar  
    27   15   19 2   
    28   16   17 2   
    29   17   18 1   
    30   17   35 1   
    31   18   19 1   
    32   18   46 1   
    33   20   21 1   
    34   20   36 1   
    35   21   22 1   
    36   21   37 1   
    37   21   38 1   
    38   22   23 1   
    39   22   39 1   
    40   22   40 1   
    41   23   24 1   
    42   23   41 1   
    43   23   42 1   
    44   24   25 2   
    45   24   26 2   
    46   24   27 1   
    47   27   43 1   
    48   27   44 1   
    49   27   45 1   
@<TRIPOS>SUBSTRUCTURE
     1 NZU         1 TEMP              0 ****  ****    0 ROOT
