@<TRIPOS>MOLECULE
NZU
   46    49     1     0     0
SMALL
bcc


@<TRIPOS>ATOM
      1 C1          4.6330    3.9000   -0.2680 c3        1 NZU      0.047600
      2 N2          3.2190    3.6260   -0.3220 na        1 NZU     -0.005800
      3 C3          2.6460    2.3490   -0.1530 ca        1 NZU      0.473800
      4 C4          1.2080    2.5560   -0.1550 ca        1 NZU     -0.505500
      5 C5          1.0520    3.9850   -0.3060 cc        1 NZU      0.379800
      6 N6          2.2600    4.5760   -0.3900 nd        1 NZU     -0.510100
      7 C7          0.3910    1.3960   -0.0140 ca        1 NZU      0.758200
      8 N8          0.9770    0.1640    0.0860 nb        1 NZU     -0.792000
      9 C9          2.3530    0.0970    0.0860 cp        1 NZU      0.765500
     10 N10         3.2420    1.1260   -0.0290 nb        1 NZU     -0.728000
     11 C11         2.9390   -1.2650    0.2300 cp        1 NZU     -0.087500
     12 C12         4.0150   -1.4870    1.0580 ca        1 NZU     -0.097000
     13 C13         4.5860   -2.7850    1.2040 ca        1 NZU     -0.134000
     14 C14         4.1050   -3.8740    0.5300 ca        1 NZU     -0.077000
     15 C15         2.9940   -3.6920   -0.3410 ca        1 NZU     -0.085000
     16 C16         2.3970   -2.3580   -0.4870 ca        1 NZU     -0.104000
     17 C17         1.3420   -2.5460   -1.4090 cc        1 NZU     -0.141100
     18 N18         1.3650   -3.8950   -1.7420 na        1 NZU      0.045800
     19 N19         2.3190   -4.5910   -1.1340 nc        1 NZU     -0.279400
     20 N21        -0.9830    1.5440    0.0650 nh        1 NZU     -0.863900
     21 C22        -1.8690    0.4090    0.0790 c3        1 NZU      0.223800
     22 C23        -3.3430    0.8100    0.1440 c3        1 NZU     -0.072400
     23 C24        -4.2080   -0.4250    0.2490 c3        1 NZU     -0.317600
     24 S25        -5.8720   -0.0210    0.2730 s6        1 NZU      1.341000
     25 O26        -6.1300    0.8690    1.3210 o         1 NZU     -0.650300
     26 O27        -6.2760    0.3540   -1.0130 o         1 NZU     -0.650300
     27 C28        -6.5010   -1.5410    0.6490 c3        1 NZU     -0.373300
     28 H1          4.9520    4.0550    0.7980 h1        1 NZU      0.063033
     29 H1A         5.1840    3.0230   -0.6990 h1        1 NZU      0.063033
     30 H1B         4.8680    4.8240   -0.8600 h1        1 NZU      0.063033
     31 H5          0.1240    4.5560   -0.3500 h4        1 NZU      0.052800
     32 H12         4.4630   -0.6600    1.6300 ha        1 NZU      0.146000
     33 H13         5.4440   -2.8920    1.8860 ha        1 NZU      0.134000
     34 H14         4.5500   -4.8730    0.6420 ha        1 NZU      0.145000
     35 H17         0.6140   -1.8470   -1.8150 h4        1 NZU      0.188000
     36 HN21       -1.3500    2.4170   -0.2370 hn        1 NZU      0.435800
     37 H22        -1.7050   -0.2290   -0.8390 h1        1 NZU      0.053700
     38 H22A       -1.6160   -0.2250    0.9790 h1        1 NZU      0.053700
     39 H23        -3.5270    1.4690    1.0360 hc        1 NZU      0.068700
     40 H23A       -3.6250    1.3860   -0.7780 hc        1 NZU      0.068700
     41 H24        -3.9720   -1.1030   -0.6150 h1        1 NZU      0.112700
     42 H24A       -3.9060   -0.9940    1.1680 h1        1 NZU      0.112700
     43 H28        -6.3180   -1.8390    1.7120 h1        1 NZU      0.119700
     44 H28A       -7.6130   -1.5650    0.5110 h1        1 NZU      0.119700
     45 H28B       -6.0980   -2.3660    0.0120 h1        1 NZU      0.119700
     46 HN18        0.7520   -4.3550   -2.3760 hn        1 NZU      0.320700
@<TRIPOS>BOND
     1    1    2 1   
     2    1   28 1   
     3    1   29 1   
     4    1   30 1   
     5    2    3 1   
     6    2    6 1   
     7    3    4 ar  
     8    3   10 ar  
     9    4    5 1   
    10    4    7 ar  
    11    5    6 2   
    12    5   31 1   
    13    7    8 ar  
    14    7   20 1   
    15    8    9 ar  
    16    9   10 ar  
    17    9   11 1   
    18   11   12 ar  
    19   11   16 ar  
    20   12   13 ar  
    21   12   32 1   
    22   13   14 ar  
    23   13   33 1   
    24   14   15 ar  
    25   14   34 1   
    26   15   16 ar  
    27   15   19 2   
    28   16   17 2   
    29   17   18 1   
    30   17   35 1   
    31   18   19 1   
    32   18   46 1   
    33   20   21 1   
    34   20   36 1   
    35   21   22 1   
    36   21   37 1   
    37   21   38 1   
    38   22   23 1   
    39   22   39 1   
    40   22   40 1   
    41   23   24 1   
    42   23   41 1   
    43   23   42 1   
    44   24   25 2   
    45   24   26 2   
    46   24   27 1   
    47   27   43 1   
    48   27   44 1   
    49   27   45 1   
@<TRIPOS>SUBSTRUCTURE
     1 NZU         1 TEMP              0 ****  ****    0 ROOT
