@<TRIPOS>MOLECULE
NZU
   47    50     1     0     0
SMALL
bcc


@<TRIPOS>ATOM
      1 C1          0.6990    1.3990    0.0310 c3        1 NZU      0.034600
      2 N2          2.0420    0.8580    0.1050 na        1 NZU      0.025200
      3 C3          2.6360    0.3690    1.2840 ca        1 NZU      0.469800
      4 C4          3.9640   -0.1260    0.8810 ca        1 NZU     -0.456500
      5 C5          4.0130    0.1180   -0.5430 cc        1 NZU      0.346800
      6 N6          2.8620    0.6930   -0.9470 nd        1 NZU     -0.430100
      7 C7          4.7330   -0.6520    1.9290 ca        1 NZU      0.572200
      8 N8          4.3040   -0.7010    3.2040 nb        1 NZU     -0.706000
      9 C9          3.0260   -0.2190    3.4730 cp        1 NZU      0.784500
     10 N10         2.1700    0.3270    2.5590 nb        1 NZU     -0.646000
     11 C11         2.5540   -0.3340    4.8710 cp        1 NZU     -0.146500
     12 C12         1.2310   -0.6320    5.1320 ca        1 NZU     -0.044000
     13 C13         0.7430   -0.7610    6.4610 ca        1 NZU     -0.154000
     14 C14         1.5530   -0.5900    7.5520 ca        1 NZU     -0.026000
     15 C15         2.9220   -0.2730    7.3310 ca        1 NZU     -0.097000
     16 C16         3.4380   -0.1460    5.9610 ca        1 NZU     -0.094000
     17 C17         4.8030    0.1790    6.1350 cc        1 NZU     -0.172100
     18 N18         5.0140    0.2230    7.5100 na        1 NZU      0.064800
     19 N19         3.9370   -0.0370    8.2320 nc        1 NZU     -0.235400
     20 N21         6.0790   -1.1980    1.6280 n4        1 NZU     -0.753700
     21 C22         7.1610   -0.2340    2.0080 c3        1 NZU      0.117800
     22 C23         8.5420   -0.7580    1.6360 c3        1 NZU     -0.087400
     23 C24         9.5930    0.2680    1.9790 c3        1 NZU     -0.302600
     24 S25        11.1650   -0.3210    1.5100 s6        1 NZU      1.347000
     25 O26        11.4940   -1.3530    2.3870 o         1 NZU     -0.638800
     26 O27        11.0970   -0.6040    0.1440 o         1 NZU     -0.638800
     27 C28        12.0670    1.0530    1.8060 c3        1 NZU     -0.394300
     28 H1         -0.0380    0.5510    0.0030 h1        1 NZU      0.085033
     29 H1A         0.5180    2.0290    0.9430 h1        1 NZU      0.085033
     30 H1B         0.5880    2.0240   -0.8940 h1        1 NZU      0.085033
     31 H5          4.8170   -0.1000   -1.2480 h4        1 NZU      0.069800
     32 H12         0.5120   -0.7840    4.3100 ha        1 NZU      0.150000
     33 H13        -0.3230   -1.0050    6.5960 ha        1 NZU      0.154000
     34 H14         1.1750   -0.6890    8.5820 ha        1 NZU      0.165000
     35 H17         5.5960    0.3750    5.4190 h4        1 NZU      0.170000
     36 HN21        6.1240   -1.3910    0.6190 hn        1 NZU      0.466800
     37 H22         7.0930   -0.0630    3.1210 hx        1 NZU      0.112700
     38 H22A        6.9560    0.7410    1.4800 hx        1 NZU      0.112700
     39 H23         8.5950   -0.9810    0.5330 hc        1 NZU      0.086200
     40 H23A        8.7600   -1.7110    2.1950 hc        1 NZU      0.086200
     41 H24         9.3600    1.2360    1.4650 h1        1 NZU      0.111700
     42 H24A        9.5650    0.4830    3.0790 h1        1 NZU      0.111700
     43 H28        11.8900    1.5180    2.8090 h1        1 NZU      0.136367
     44 H28A       11.9090    1.8660    1.0510 h1        1 NZU      0.136367
     45 H28B       13.1700    0.8360    1.7780 h1        1 NZU      0.136367
     46 HN18        5.8750    0.4290    7.9690 hn        1 NZU      0.333700
     47 H212        6.2190   -2.0820    2.1390 hn        1 NZU      0.466800
@<TRIPOS>BOND
     1    1    2 1   
     2    1   28 1   
     3    1   29 1   
     4    1   30 1   
     5    2    3 1   
     6    2    6 1   
     7    3    4 ar  
     8    3   10 ar  
     9    4    5 1   
    10    4    7 ar  
    11    5    6 2   
    12    5   31 1   
    13    7    8 ar  
    14    7   20 1   
    15    8    9 ar  
    16    9   10 ar  
    17    9   11 1   
    18   11   12 ar  
    19   11   16 ar  
    20   12   13 ar  
    21   12   32 1   
    22   13   14 ar  
    23   13   33 1   
    24   14   15 ar  
    25   14   34 1   
    26   15   16 ar  
    27   15   19 2   
    28   16   17 2   
    29   17   18 1   
    30   17   35 1   
    31   18   19 1   
    32   18   46 1   
    33   20   21 1   
    34   20   36 1   
    35   20   47 1   
    36   21   22 1   
    37   21   37 1   
    38   21   38 1   
    39   22   23 1   
    40   22   39 1   
    41   22   40 1   
    42   23   24 1   
    43   23   41 1   
    44   23   42 1   
    45   24   25 2   
    46   24   26 2   
    47   24   27 1   
    48   27   43 1   
    49   27   44 1   
    50   27   45 1   
@<TRIPOS>SUBSTRUCTURE
     1 NZU         1 TEMP              0 ****  ****    0 ROOT
