@<TRIPOS>MOLECULE
NZU
   46    35     1     0     0
SMALL
bcc


@<TRIPOS>ATOM
      1 C1         -5.3780   -0.5510   -0.4260 c3        1 NZU     -0.050000
      2 N2         -3.9270   -0.4700   -0.6180 n3        1 NZU     -0.144000
      3 C3         -2.7400   -0.4180    0.0860 c1        1 NZU      0.068000
      4 C4         -1.7250   -0.4240   -0.8050 c1        1 NZU     -0.251000
      5 C5         -2.2770   -0.4800   -2.0850 c1        1 NZU     -0.118000
      6 N6         -3.6230   -0.5080   -1.9590 n2        1 NZU     -0.043000
      7 C7         -0.3950   -0.3760   -0.3530 c1        1 NZU      0.205000
      8 N8         -0.1350   -0.3250    0.9650 n1        1 NZU     -0.252000
      9 C9         -1.1640   -0.3190    1.8660 c1        1 NZU      0.129000
     10 N10        -2.4700   -0.3660    1.4250 n1        1 NZU     -0.195000
     11 C11        -0.9540   -0.3960    3.2440 c1        1 NZU     -0.045000
     12 C12        -0.6730    0.8430    3.7890 c1        1 NZU     -0.115000
     13 C13        -0.5940    0.9930    5.1700 c1        1 NZU     -0.115000
     14 C14        -0.7980   -0.1020    6.0010 c1        1 NZU     -0.073000
     15 C15        -1.0830   -1.3570    5.4490 c1        1 NZU     -0.086000
     16 C16        -1.1610   -1.5060    4.0880 c1        1 NZU     -0.045000
     17 C17        -1.4520   -2.8340    3.8210 c1        1 NZU     -0.112000
     18 N18        -1.5510   -3.4900    5.0070 n2        1 NZU     -0.109000
     19 N19        -1.3230   -2.5780    6.0210 n1        1 NZU     -0.099000
     20 N21         0.8540   -0.4130   -1.0940 n3        1 NZU     -0.270000
     21 C22         1.2500    0.7170   -1.8920 c3        1 NZU     -0.043000
     22 C23         2.4750    0.3550   -2.7160 c3        1 NZU     -0.144000
     23 C24         3.1100    1.6310   -3.2730 c3        1 NZU     -0.859000
     24 S25         4.3920    1.1940   -4.4820 s4        1 NZU      2.038800
     25 O26         5.3470    0.2680   -3.9200 o         1 NZU     -0.536400
     26 O27         3.8500    0.4120   -5.5650 o         1 NZU     -0.536400
     27 C28         5.2090    2.6920   -5.0990 c2        1 NZU     -0.951000
     28 H1         -5.8000    0.2710   -0.7620 h1        1 NZU      0.101000
     29 H1A        -5.5760   -0.6540    0.5300 h1        1 NZU      0.101000
     30 H1B        -5.7320   -1.3280   -0.9200 h1        1 NZU      0.101000
     31 H5         -1.7650   -0.4990   -2.9460 DU        1 NZU      0.216667
     32 H12        -0.5280    1.6160    3.2020 ha        1 NZU      0.139500
     33 H13        -0.3980    1.8580    5.5510 ha        1 NZU      0.139500
     34 H14        -0.7410    0.0060    6.9920 ha        1 NZU      0.146000
     35 H17        -1.5670   -3.2290    2.9350 DU        1 NZU      0.216667
     36 HN21        1.3830   -1.1570   -1.0610 hn        1 NZU      0.210000
     37 H22         0.5260    0.9630   -2.4810 h1        1 NZU      0.083500
     38 H22A        1.4660    1.4810   -1.2970 h1        1 NZU      0.083500
     39 H23         2.2050   -0.2350   -3.4680 hc        1 NZU      0.113000
     40 H23A        3.1320   -0.1190   -2.1410 hc        1 NZU      0.113000
     41 H24         2.4210    2.1750   -3.7100 h1        1 NZU      0.149500
     42 H24A        3.5070    2.1340   -2.5500 h1        1 NZU      0.149500
     43 H28         5.6260    3.1670   -4.3530 ha        1 NZU      0.158333
     44 H28A        5.8880    2.4480   -5.7450 ha        1 NZU      0.158333
     45 H28B        4.5400    3.2780   -5.5290 ha        1 NZU      0.158333
     46 HN18       -1.6480   -4.3680    5.1100 DU        1 NZU      0.216667
@<TRIPOS>BOND
     1    1    2 1   
     2    1   28 1   
     3    1   29 1   
     4    1   30 1   
     5    2    3 1   
     6    2    6 1   
     7    3    4 1   
     8    5    6 1   
     9    7    8 1   
    10    7   20 1   
    11    9   10 1   
    12   11   16 1   
    13   12   13 1   
    14   12   32 1   
    15   13   33 1   
    16   14   15 1   
    17   14   34 1   
    18   17   18 1   
    19   18   19 1   
    20   20   21 1   
    21   20   36 1   
    22   21   22 1   
    23   21   37 1   
    24   21   38 1   
    25   22   23 1   
    26   22   39 1   
    27   22   40 1   
    28   23   24 1   
    29   23   41 1   
    30   23   42 1   
    31   24   25 1   
    32   24   26 1   
    33   27   43 1   
    34   27   44 1   
    35   27   45 1   
@<TRIPOS>SUBSTRUCTURE
     1 NZU         1 TEMP              0 ****  ****    0 ROOT
