@<TRIPOS>MOLECULE
NZU
   46    49     1     0     0
SMALL
bcc


@<TRIPOS>ATOM
      1 C1          0.0440    0.1890    0.1020 c3        1 NZU      0.047600
      2 N2          1.4840    0.2370    0.0520 na        1 NZU     -0.005800
      3 C3          2.3260    0.1030    1.1750 ca        1 NZU      0.473800
      4 C4          3.6820    0.0810    0.6530 ca        1 NZU     -0.505500
      5 C5          3.5160    0.1830   -0.7790 cc        1 NZU      0.379800
      6 N6          2.2070    0.2610   -1.0890 nd        1 NZU     -0.510100
      7 C7          4.7370   -0.0300    1.6060 ca        1 NZU      0.758200
      8 N8          4.4400   -0.0820    2.9410 nb        1 NZU     -0.792000
      9 C9          3.1140   -0.0630    3.3120 cp        1 NZU      0.765500
     10 N10         2.0180    0.0270    2.5040 nb        1 NZU     -0.728000
     11 C11         2.8460   -0.1540    4.7750 cp        1 NZU     -0.087500
     12 C12         1.8430   -0.9620    5.2600 ca        1 NZU     -0.097000
     13 C13         1.5750   -1.0570    6.6570 ca        1 NZU     -0.134000
     14 C14         2.2900   -0.3520    7.5870 ca        1 NZU     -0.077000
     15 C15         3.3350    0.4990    7.1310 ca        1 NZU     -0.085000
     16 C16         3.6200    0.5930    5.6940 ca        1 NZU     -0.104000
     17 C17         4.6950    1.5080    5.6090 cc        1 NZU     -0.141100
     18 N18         4.9750    1.8870    6.9160 na        1 NZU      0.045800
     19 N19         4.1980    1.3140    7.8290 nc        1 NZU     -0.279400
     20 N21         6.0430   -0.1300    1.1580 nu        1 NZU     -0.863900
     21 C22         7.1590   -0.1170    2.0670 c3        1 NZU      0.223800
     22 C23         8.5070   -0.2120    1.3510 c3        1 NZU     -0.072400
     23 C24         9.6250   -0.2860    2.3640 c3        1 NZU     -0.317600
     24 S25        11.1570   -0.3430    1.6000 s6        1 NZU      1.341000
     25 O26        11.2050   -1.4230    0.7120 o         1 NZU     -0.650300
     26 O27        11.4710    0.9260    1.1000 o         1 NZU     -0.650300
     27 C28        12.1070   -0.6760    2.9540 c3        1 NZU     -0.373300
     28 H1         -0.3060   -0.8770    0.0610 h1        1 NZU      0.063033
     29 H1A        -0.2960    0.6560    1.0640 h1        1 NZU      0.063033
     30 H1B        -0.3890    0.7530   -0.7660 h1        1 NZU      0.063033
     31 H5          4.2930    0.1960   -1.5440 h4        1 NZU      0.052800
     32 H12         1.2190   -1.5560    4.5740 ha        1 NZU      0.146000
     33 H13         0.7600   -1.7240    6.9770 ha        1 NZU      0.134000
     34 H14         2.0790   -0.4250    8.6640 ha        1 NZU      0.145000
     35 H17         5.2500    1.8820    4.7510 h4        1 NZU      0.188000
     36 HN21        6.2070    0.1380    0.2150 hn        1 NZU      0.435800
     37 H22         7.0510   -0.9910    2.7720 h1        1 NZU      0.053700
     38 H22A        7.1460    0.8240    2.6930 h1        1 NZU      0.053700
     39 H23         8.6560    0.6870    0.6940 hc        1 NZU      0.068700
     40 H23A        8.5350   -1.1270    0.6980 hc        1 NZU      0.068700
     41 H24         9.4540   -1.1820    3.0180 h1        1 NZU      0.112700
     42 H24A        9.5490    0.6030    3.0470 h1        1 NZU      0.112700
     43 H28        11.9020   -0.0080    3.8250 h1        1 NZU      0.119700
     44 H28A       13.1970   -0.5500    2.7240 h1        1 NZU      0.119700
     45 H28B       11.9920   -1.7260    3.3220 h1        1 NZU      0.119700
     46 HN18        5.6770    2.5290    7.2050 hn        1 NZU      0.320700
@<TRIPOS>BOND
     1    1    2 1   
     2    1   28 1   
     3    1   29 1   
     4    1   30 1   
     5    2    3 1   
     6    2    6 1   
     7    3    4 ar  
     8    3   10 ar  
     9    4    5 1   
    10    4    7 ar  
    11    5    6 2   
    12    5   31 1   
    13    7    8 ar  
    14    7   20 1   
    15    8    9 ar  
    16    9   10 ar  
    17    9   11 1   
    18   11   12 ar  
    19   11   16 ar  
    20   12   13 ar  
    21   12   32 1   
    22   13   14 ar  
    23   13   33 1   
    24   14   15 ar  
    25   14   34 1   
    26   15   16 ar  
    27   15   19 2   
    28   16   17 2   
    29   17   18 1   
    30   17   35 1   
    31   18   19 1   
    32   18   46 1   
    33   20   21 1   
    34   20   36 1   
    35   21   22 1   
    36   21   37 1   
    37   21   38 1   
    38   22   23 1   
    39   22   39 1   
    40   22   40 1   
    41   23   24 1   
    42   23   41 1   
    43   23   42 1   
    44   24   25 2   
    45   24   26 2   
    46   24   27 1   
    47   27   43 1   
    48   27   44 1   
    49   27   45 1   
@<TRIPOS>SUBSTRUCTURE
     1 NZU         1 TEMP              0 ****  ****    0 ROOT
