@<TRIPOS>MOLECULE
501
   45    47     1     0     0
SMALL
bcc


@<TRIPOS>ATOM
      1 C1         -5.1860    1.9030    0.4600 ca        1 501     -0.111000
      2 C2         -3.8180    2.1450    0.3070 ca        1 501     -0.110300
      3 C3         -3.0390    1.2520   -0.4730 ca        1 501      0.129600
      4 C4         -3.6580    0.1370   -1.0740 ca        1 501     -0.097000
      5 C5         -5.0240   -0.0780   -0.8920 ca        1 501      0.025400
      6 C6         -5.7970    0.8000   -0.1280 ca        1 501     -0.132000
      7 N10        -1.6720    1.5250   -0.7330 nh        1 501     -0.640600
      8 C11        -0.6870    0.5970   -0.3510 cc        1 501      0.721200
      9 N12        -0.9420   -0.7860   -0.1320 nc        1 501     -0.390300
     10 C13         0.2990   -1.3130    0.1110 cd        1 501      0.454500
     11 N14         1.2730   -0.2170    0.0340 na        1 501     -0.025800
     12 N15         0.6600    0.9500   -0.2380 nd        1 501     -0.653100
     13 N16         0.6760   -2.6150    0.3810 nd        1 501     -0.671000
     14 C17         1.9800   -2.8250    0.5810 cc        1 501      0.504600
     15 C18         2.9790   -1.8080    0.5310 cc        1 501     -0.411300
     16 C19         2.6320   -0.4690    0.2610 cd        1 501      0.310300
     17 N21         3.5510    0.5700    0.2730 nh        1 501     -0.750600
     18 C22         4.9560    0.2700    0.1310 c3        1 501      0.204800
     19 C23         5.7970    1.5000   -0.2100 c3        1 501     -0.095400
     20 C26         7.2570    1.1120   -0.3100 c3        1 501     -0.078400
     21 C29         8.1160    2.3030   -0.6460 c3        1 501     -0.094100
     22 C37         2.4620   -4.2120    0.8810 c3        1 501     -0.157400
     23 CL41       -5.7610   -1.4270   -1.6200 cl        1 501     -0.092400
     24 C42        -3.2130    3.3310    0.9590 c3        1 501     -0.059800
     25 H1         -5.7910    2.5970    1.0640 ha        1 501      0.136000
     26 H4         -3.0700   -0.5700   -1.6830 ha        1 501      0.174000
     27 H6         -6.8740    0.6240    0.0100 ha        1 501      0.147000
     28 H10        -1.4090    2.4740   -0.5460 hn        1 501      0.427800
     29 H18         4.0240   -2.0790    0.7210 ha        1 501      0.159000
     30 H21         3.2560    1.4660   -0.0520 hn        1 501      0.447800
     31 H221        5.1150   -0.5130   -0.6680 h1        1 501      0.048200
     32 H222        5.3180   -0.1650    1.1080 h1        1 501      0.048200
     33 H231        5.6700    2.2860    0.5810 hc        1 501      0.053200
     34 H232        5.4580    1.9440   -1.1830 hc        1 501      0.053200
     35 H261        7.3830    0.3230   -1.0980 hc        1 501      0.043200
     36 H262        7.5940    0.6650    0.6630 hc        1 501      0.043200
     37 H291        7.8120    2.7470   -1.6240 hc        1 501      0.037700
     38 H292        8.0240    3.0910    0.1410 hc        1 501      0.037700
     39 H293        9.1880    1.9980   -0.7150 hc        1 501      0.037700
     40 H371        2.9630   -4.2140    1.8810 hc        1 501      0.061700
     41 H372        1.6310   -4.9580    0.8950 hc        1 501      0.061700
     42 H373        3.2040   -4.5160    0.1030 hc        1 501      0.061700
     43 H421       -2.3420    3.0350    1.5960 hc        1 501      0.047033
     44 H422       -2.8590    4.0660    0.1910 hc        1 501      0.047033
     45 H423       -3.9550    3.8510    1.6130 hc        1 501      0.047033
@<TRIPOS>BOND
     1    1    2 ar  
     2    1    6 ar  
     3    1   25 1   
     4    2    3 ar  
     5    2   24 1   
     6    3    4 ar  
     7    3    7 1   
     8    4    5 ar  
     9    4   26 1   
    10    5    6 ar  
    11    5   23 1   
    12    6   27 1   
    13    7    8 1   
    14    7   28 1   
    15    8    9 1   
    16    8   12 2   
    17    9   10 2   
    18   10   11 1   
    19   10   13 1   
    20   11   12 1   
    21   11   16 1   
    22   13   14 2   
    23   14   15 1   
    24   14   22 1   
    25   15   16 2   
    26   15   29 1   
    27   16   17 1   
    28   17   18 1   
    29   17   30 1   
    30   18   19 1   
    31   18   31 1   
    32   18   32 1   
    33   19   20 1   
    34   19   33 1   
    35   19   34 1   
    36   20   21 1   
    37   20   35 1   
    38   20   36 1   
    39   21   37 1   
    40   21   38 1   
    41   21   39 1   
    42   22   40 1   
    43   22   41 1   
    44   22   42 1   
    45   24   43 1   
    46   24   44 1   
    47   24   45 1   
@<TRIPOS>SUBSTRUCTURE
     1 501         1 TEMP              0 ****  ****    0 ROOT
