@<TRIPOS>MOLECULE
501
   47    49     1     0     0
SMALL
bcc


@<TRIPOS>ATOM
      1 C1          1.5560    0.8190   -0.4010 ca        1 501     -0.100000
      2 C2          2.3170   -0.1740    0.2290 ca        1 501     -0.038300
      3 C3          1.9820   -0.5110    1.5580 ca        1 501     -0.070400
      4 C4          0.9320    0.1290    2.2420 ca        1 501     -0.097000
      5 C5          0.1980    1.1170    1.5810 ca        1 501      0.026400
      6 C6          0.5110    1.4600    0.2560 ca        1 501     -0.053000
      7 N10         2.7080   -1.5920    2.2460 n4        1 501     -0.539400
      8 C11         3.5900   -1.0810    3.3040 cc        1 501      0.591200
      9 N12         3.0900   -0.8000    4.5930 nc        1 501     -0.279300
     10 C13         4.1910   -0.3430    5.2710 cd        1 501      0.467500
     11 N14         5.3240   -0.3710    4.3270 na        1 501     -0.013800
     12 N15         4.9450   -0.8210    3.1280 nd        1 501     -0.551100
     13 N16         4.3340    0.0860    6.5780 nd        1 501     -0.551000
     14 C17         5.5420    0.4730    6.9650 cc        1 501      0.513600
     15 C18         6.7070    0.4670    6.0850 cc        1 501     -0.189300
     16 C19         6.5900    0.0440    4.7760 cd        1 501      0.084300
     17 N21         7.7150    0.0060    3.8220 n4        1 501     -0.647400
     18 C22         9.0310    0.4530    4.4000 c3        1 501      0.107800
     19 C23        10.1460    0.3760    3.3630 c3        1 501     -0.115400
     20 C26        11.4450    0.8370    4.0040 c3        1 501     -0.075400
     21 C29        12.5760    0.7760    3.0090 c3        1 501     -0.103100
     22 C37         5.7780    0.9490    8.3620 c3        1 501     -0.185400
     23 CL41       -1.0660    1.8890    2.3830 cl        1 501      0.007600
     24 C42         3.4090   -0.8470   -0.5130 c3        1 501     -0.092800
     25 H1          1.7890    1.0930   -1.4460 ha        1 501      0.181000
     26 H4          0.6740   -0.1370    3.2830 ha        1 501      0.183000
     27 H6         -0.0770    2.2370   -0.2670 ha        1 501      0.193000
     28 H10         3.2680   -2.1240    1.5610 hn        1 501      0.491300
     29 H18         7.6640    0.8100    6.5170 ha        1 501      0.206000
     30 H21         7.8240   -0.9600    3.4710 hn        1 501      0.476800
     31 H221        8.9120    1.5160    4.7580 hx        1 501      0.115200
     32 H222        9.2730   -0.2170    5.2750 hx        1 501      0.115200
     33 H231        9.9160    1.0320    2.4820 hc        1 501      0.075700
     34 H232       10.2720   -0.6760    2.9910 hc        1 501      0.075700
     35 H261       11.6840    0.1860    4.8860 hc        1 501      0.059200
     36 H262       11.3290    1.8890    4.3790 hc        1 501      0.059200
     37 H291       12.7280   -0.2680    2.6400 hc        1 501      0.059700
     38 H292       12.3730    1.4370    2.1320 hc        1 501      0.059700
     39 H293       13.5230    1.1180    3.4950 hc        1 501      0.059700
     40 H371        6.1640    2.0000    8.3340 hc        1 501      0.104700
     41 H372        4.8440    0.9310    8.9820 hc        1 501      0.104700
     42 H373        6.5400    0.2910    8.8520 hc        1 501      0.104700
     43 H421        3.1540   -1.9210   -0.7090 hc        1 501      0.070033
     44 H422        3.5700   -0.3600   -1.5100 hc        1 501      0.070033
     45 H423        4.3760   -0.7930    0.0460 hc        1 501      0.070033
     46 H102        2.0130   -2.2240    2.6850 hn        1 501      0.491300
     47 H212        7.4890    0.6120    3.0150 hn        1 501      0.476800
@<TRIPOS>BOND
     1    1    2 ar  
     2    1    6 ar  
     3    1   25 1   
     4    2    3 ar  
     5    2   24 1   
     6    3    4 ar  
     7    3    7 1   
     8    4    5 ar  
     9    4   26 1   
    10    5    6 ar  
    11    5   23 1   
    12    6   27 1   
    13    7    8 1   
    14    7   28 1   
    15    7   46 1   
    16    8    9 1   
    17    8   12 2   
    18    9   10 2   
    19   10   11 1   
    20   10   13 1   
    21   11   12 1   
    22   11   16 1   
    23   13   14 2   
    24   14   15 1   
    25   14   22 1   
    26   15   16 2   
    27   15   29 1   
    28   16   17 1   
    29   17   18 1   
    30   17   30 1   
    31   17   47 1   
    32   18   19 1   
    33   18   31 1   
    34   18   32 1   
    35   19   20 1   
    36   19   33 1   
    37   19   34 1   
    38   20   21 1   
    39   20   35 1   
    40   20   36 1   
    41   21   37 1   
    42   21   38 1   
    43   21   39 1   
    44   22   40 1   
    45   22   41 1   
    46   22   42 1   
    47   24   43 1   
    48   24   44 1   
    49   24   45 1   
@<TRIPOS>SUBSTRUCTURE
     1 501         1 TEMP              0 ****  ****    0 ROOT
