@<TRIPOS>MOLECULE
501
   45    47     1     0     0
SMALL
bcc


@<TRIPOS>ATOM
      1 C1          0.1770    0.3500   -0.0240 ca        1 501     -0.111000
      2 C2          1.5480    0.1690    0.1790 ca        1 501     -0.110300
      3 C3          1.9950   -0.4600    1.3690 ca        1 501      0.129600
      4 C4          1.0500   -0.8830    2.3260 ca        1 501     -0.097000
      5 C5         -0.3100   -0.6770    2.0940 ca        1 501      0.025400
      6 C6         -0.7560   -0.0620    0.9210 ca        1 501     -0.132000
      7 N10         3.3700   -0.7520    1.5590 nh        1 501     -0.640600
      8 C11         4.0510   -0.2260    2.6700 cc        1 501      0.721200
      9 N12         3.4090    0.2030    3.8650 nc        1 501     -0.390300
     10 C13         4.4490    0.5320    4.6960 cd        1 501      0.454500
     11 N14         5.6980    0.2920    3.9640 na        1 501     -0.025800
     12 N15         5.4460   -0.1610    2.7220 nd        1 501     -0.653100
     13 N16         4.4350    1.0010    5.9950 nd        1 501     -0.671000
     14 C17         5.6250    1.2390    6.5520 cc        1 501      0.504600
     15 C18         6.8780    1.0370    5.8980 cc        1 501     -0.411300
     16 C19         6.9300    0.5630    4.5730 cd        1 501      0.310300
     17 N21         8.1150    0.4200    3.8640 nh        1 501     -0.751600
     18 C22         9.3620    0.3350    4.5860 c3        1 501      0.204800
     19 C23        10.5140   -0.1840    3.7270 c3        1 501     -0.095400
     20 C26        11.7900   -0.2120    4.5420 c3        1 501     -0.078400
     21 C29        12.9490   -0.7200    3.7230 c3        1 501     -0.094100
     22 C37         5.6890    1.7520    7.9580 c3        1 501     -0.157400
     23 CL41       -1.4420   -1.1910    3.2550 cl        1 501     -0.092400
     24 C42         2.5020    0.6300   -0.8570 c3        1 501     -0.059800
     25 H1         -0.1710    0.8360   -0.9490 ha        1 501      0.136000
     26 H4          1.3770   -1.3720    3.2590 ha        1 501      0.174000
     27 H6         -1.8310    0.0960    0.7460 ha        1 501      0.147000
     28 H10         3.9090   -0.7130    0.7140 hn        1 501      0.427800
     29 H18         7.8030    1.2730    6.4370 ha        1 501      0.159000
     30 H21         8.0840   -0.0420    2.9800 hn        1 501      0.447800
     31 H221        9.6170    1.3690    4.9590 h1        1 501      0.048200
     32 H222        9.2510   -0.3340    5.4900 h1        1 501      0.048200
     33 H231       10.6550    0.4760    2.8300 hc        1 501      0.053200
     34 H232       10.2840   -1.2160    3.3520 hc        1 501      0.053200
     35 H261       11.6470   -0.8700    5.4410 hc        1 501      0.043200
     36 H262       12.0180    0.8200    4.9190 hc        1 501      0.043200
     37 H291       13.1230   -0.0640    2.8360 hc        1 501      0.037700
     38 H292       13.8800   -0.7330    4.3400 hc        1 501      0.037700
     39 H293       12.7520   -1.7570    3.3590 hc        1 501      0.037700
     40 H371        4.6760    1.8780    8.4120 hc        1 501      0.061700
     41 H372        6.2750    1.0330    8.5820 hc        1 501      0.061700
     42 H373        6.2090    2.7410    7.9610 hc        1 501      0.061700
     43 H421        1.9740    1.1920   -1.6670 hc        1 501      0.047033
     44 H422        3.0250   -0.2400   -1.3290 hc        1 501      0.047033
     45 H423        3.2730    1.3110   -0.4130 hc        1 501      0.047033
@<TRIPOS>BOND
     1    1    2 ar  
     2    1    6 ar  
     3    1   25 1   
     4    2    3 ar  
     5    2   24 1   
     6    3    4 ar  
     7    3    7 1   
     8    4    5 ar  
     9    4   26 1   
    10    5    6 ar  
    11    5   23 1   
    12    6   27 1   
    13    7    8 1   
    14    7   28 1   
    15    8    9 1   
    16    8   12 2   
    17    9   10 2   
    18   10   11 1   
    19   10   13 1   
    20   11   12 1   
    21   11   16 1   
    22   13   14 2   
    23   14   15 1   
    24   14   22 1   
    25   15   16 2   
    26   15   29 1   
    27   16   17 1   
    28   17   18 1   
    29   17   30 1   
    30   18   19 1   
    31   18   31 1   
    32   18   32 1   
    33   19   20 1   
    34   19   33 1   
    35   19   34 1   
    36   20   21 1   
    37   20   35 1   
    38   20   36 1   
    39   21   37 1   
    40   21   38 1   
    41   21   39 1   
    42   22   40 1   
    43   22   41 1   
    44   22   42 1   
    45   24   43 1   
    46   24   44 1   
    47   24   45 1   
@<TRIPOS>SUBSTRUCTURE
     1 501         1 TEMP              0 ****  ****    0 ROOT
