@<TRIPOS>MOLECULE
501
   45    47     1     0     0
SMALL
bcc


@<TRIPOS>ATOM
      1 C1          0.1890    0.3430   -0.0440 ca        1 501     -0.111000
      2 C2          1.5590    0.1630    0.1640 ca        1 501     -0.110300
      3 C3          2.0020   -0.4640    1.3570 ca        1 501      0.129600
      4 C4          1.0540   -0.8860    2.3110 ca        1 501     -0.097000
      5 C5         -0.3050   -0.6810    2.0730 ca        1 501      0.025400
      6 C6         -0.7470   -0.0690    0.8980 ca        1 501     -0.132000
      7 N10         3.3770   -0.7540    1.5510 nu        1 501     -0.640600
      8 C11         4.0540   -0.2260    2.6630 cc        1 501      0.721200
      9 N12         3.4080    0.2050    3.8560 nc        1 501     -0.390300
     10 C13         4.4440    0.5360    4.6900 cd        1 501      0.454500
     11 N14         5.6960    0.2950    3.9620 na        1 501     -0.025800
     12 N15         5.4490   -0.1600    2.7200 nd        1 501     -0.653100
     13 N16         4.4260    1.0080    5.9880 nd        1 501     -0.671000
     14 C17         5.6140    1.2470    6.5490 cc        1 501      0.504600
     15 C18         6.8690    1.0450    5.8990 cc        1 501     -0.411300
     16 C19         6.9260    0.5670    4.5750 cd        1 501      0.310300
     17 N21         8.1130    0.4230    3.8710 nu        1 501     -0.751600
     18 C22         9.3580    0.3380    4.5980 c3        1 501      0.204800
     19 C23        10.5130   -0.1840    3.7450 c3        1 501     -0.095400
     20 C26        11.7850   -0.2130    4.5650 c3        1 501     -0.078400
     21 C29        12.9460   -0.7250    3.7520 c3        1 501     -0.094100
     22 C37         5.6730    1.7630    7.9540 c3        1 501     -0.157400
     23 Cl41       -1.4400   -1.1940    3.2310 cl        1 501     -0.092400
     24 C42         2.5170    0.6240   -0.8690 c3        1 501     -0.059800
     25 H1         -0.1560    0.8280   -0.9710 ha        1 501      0.136000
     26 H4          1.3790   -1.3730    3.2450 ha        1 501      0.174000
     27 H6         -1.8210    0.0890    0.7190 ha        1 501      0.147000
     28 H10         3.9190   -0.7170    0.7080 hn        1 501      0.427800
     29 H18         7.7920    1.2810    6.4410 ha        1 501      0.159000
     30 H21         8.0860   -0.0400    2.9880 hn        1 501      0.447800
     31 H221        9.6130    1.3730    4.9700 h1        1 501      0.048200
     32 H222        9.2430   -0.3280    5.5040 h1        1 501      0.048200
     33 H231       10.6590    0.4730    2.8480 hc        1 501      0.053200
     34 H232       10.2820   -1.2170    3.3720 hc        1 501      0.053200
     35 H261       12.0130    0.8190    4.9410 hc        1 501      0.043200
     36 H262       11.6370   -0.8680    5.4650 hc        1 501      0.043200
     37 H291       13.8750   -0.7390    4.3730 hc        1 501      0.037700
     38 H292       13.1250   -0.0710    2.8650 hc        1 501      0.037700
     39 H293       12.7490   -1.7620    3.3900 hc        1 501      0.037700
     40 H371        6.1890    2.7550    7.9560 hc        1 501      0.061700
     41 H372        4.6570    1.8870    8.4050 hc        1 501      0.061700
     42 H373        6.2590    1.0480    8.5810 hc        1 501      0.061700
     43 H421        3.0420   -0.2460   -1.3380 hc        1 501      0.047033
     44 H422        3.2850    1.3060   -0.4240 hc        1 501      0.047033
     45 H423        1.9910    1.1850   -1.6810 hc        1 501      0.047033
@<TRIPOS>BOND
     1    1    2 ar  
     2    1    6 ar  
     3    1   25 1   
     4    2    3 ar  
     5    2   24 1   
     6    3    4 ar  
     7    3    7 1   
     8    4    5 ar  
     9    4   26 1   
    10    5    6 ar  
    11    5   23 1   
    12    6   27 1   
    13    7    8 1   
    14    7   28 1   
    15    8    9 1   
    16    8   12 2   
    17    9   10 2   
    18   10   11 1   
    19   10   13 1   
    20   11   12 1   
    21   11   16 1   
    22   13   14 2   
    23   14   15 1   
    24   14   22 1   
    25   15   16 2   
    26   15   29 1   
    27   16   17 1   
    28   17   18 1   
    29   17   30 1   
    30   18   19 1   
    31   18   31 1   
    32   18   32 1   
    33   19   20 1   
    34   19   33 1   
    35   19   34 1   
    36   20   21 1   
    37   20   35 1   
    38   20   36 1   
    39   21   37 1   
    40   21   38 1   
    41   21   39 1   
    42   22   40 1   
    43   22   41 1   
    44   22   42 1   
    45   24   43 1   
    46   24   44 1   
    47   24   45 1   
@<TRIPOS>SUBSTRUCTURE
     1 501         1 TEMP              0 ****  ****    0 ROOT
