@<TRIPOS>MOLECULE
501
   45    40     1     0     0
SMALL
bcc


@<TRIPOS>ATOM
      1 C1         -4.4000    2.5450   -3.6530 c1        1 501     -0.120500
      2 C2         -3.3620    1.6300   -3.5390 c1        1 501     -0.101000
      3 C3         -3.4900    0.5340   -2.6830 c1        1 501      0.049000
      4 C4         -4.6560    0.3600   -1.9460 c1        1 501     -0.113000
      5 C5         -5.6940    1.2760   -2.0610 c1        1 501     -0.056000
      6 C6         -5.5670    2.3690   -2.9140 c1        1 501     -0.120500
      7 N10        -2.4290   -0.4350   -2.5910 n3        1 501     -0.201000
      8 C11        -1.5710   -0.4560   -1.4330 c2        1 501      0.058000
      9 N12        -0.9290   -1.4990   -1.9880 n2        1 501     -0.186000
     10 C13         0.0680   -1.8970   -1.1220 c1        1 501      0.104000
     11 N14         0.0270   -1.0910   -0.0420 n1        1 501     -0.132000
     12 N15        -0.9850   -0.1930   -0.2240 n1        1 501     -0.160000
     13 N16         1.0470   -2.8780   -1.2220 n1        1 501     -0.148000
     14 C17         1.9520   -3.0240   -0.2450 c1        1 501      0.085000
     15 C18         1.9130   -2.2050    0.8550 c1        1 501     -0.355000
     16 C19         0.9480   -1.2380    0.9540 c1        1 501      0.247000
     17 N21         1.2800   -0.9540    2.3140 n3        1 501     -0.281000
     18 C22         1.6480    0.3910    2.7050 c3        1 501     -0.046000
     19 C23         2.7040    0.3300    3.8320 c3        1 501     -0.189000
     20 C26         3.3810    1.7150    3.9790 c3        1 501     -0.157000
     21 C29         4.5810    1.6020    4.9470 c3        1 501     -0.210000
     22 C37         3.0600   -3.9590   -0.6790 c3        1 501     -0.181000
     23 CL41       -7.1730    1.0440   -1.1510 cl        1 501     -0.019000
     24 C42        -2.1670    1.7140   -4.4890 c3        1 501     -0.188000
     25 H1         -4.3120    3.3130   -4.2520 ha        1 501      0.143500
     26 H4         -4.7460   -0.4070   -1.3460 ha        1 501      0.168000
     27 H6         -6.2910    3.0070   -2.9940 ha        1 501      0.143500
     28 H10        -2.2620   -0.9870   -3.2860 hn        1 501      0.232000
     29 H18         2.5850   -2.3130    1.5800 ha        1 501      0.155000
     30 H21         1.2210   -1.6130    2.9460 hn        1 501      0.216000
     31 H221        0.8510    0.8690    3.0270 h1        1 501      0.112500
     32 H222        2.0220    0.8640    1.9330 h1        1 501      0.112500
     33 H231        3.3760   -0.3370    3.6100 hc        1 501      0.088000
     34 H232        2.2680    0.0880    4.6750 hc        1 501      0.088000
     35 H261        2.7350    2.3590    4.3330 hc        1 501      0.084000
     36 H262        3.6960    2.0170    3.1050 hc        1 501      0.084000
     37 H291        4.9310    2.5040    5.1430 hc        1 501      0.074333
     38 H292        5.2860    1.0610    4.5320 hc        1 501      0.074333
     39 H293        4.2890    1.1750    5.7830 hc        1 501      0.074333
     40 H371        2.7980   -4.4160   -1.5000 hc        1 501      0.101333
     41 H372        3.2230   -4.6220    0.0260 hc        1 501      0.101333
     42 H373        3.8790   -3.4440   -0.8390 hc        1 501      0.101333
     43 H421       -2.0310    0.8430   -4.9210 hc        1 501      0.089333
     44 H422       -1.3630    1.9580   -3.9830 hc        1 501      0.089333
     45 H423       -2.3410    2.3970   -5.1760 hc        1 501      0.089333
@<TRIPOS>BOND
     1    1    6 1   
     2    1   25 1   
     3    2    3 1   
     4    2   24 1   
     5    3    7 1   
     6    4    5 1   
     7    4   26 1   
     8    5   23 1   
     9    6   27 1   
    10    7    8 1   
    11    7   28 1   
    12    8    9 1   
    13    8   12 1   
    14    9   10 1   
    15   10   13 1   
    16   11   16 1   
    17   14   15 1   
    18   14   22 1   
    19   15   29 1   
    20   16   17 1   
    21   17   18 1   
    22   17   30 1   
    23   18   19 1   
    24   18   31 1   
    25   18   32 1   
    26   19   20 1   
    27   19   33 1   
    28   19   34 1   
    29   20   21 1   
    30   20   35 1   
    31   20   36 1   
    32   21   37 1   
    33   21   38 1   
    34   21   39 1   
    35   22   40 1   
    36   22   41 1   
    37   22   42 1   
    38   24   43 1   
    39   24   44 1   
    40   24   45 1   
@<TRIPOS>SUBSTRUCTURE
     1 501         1 TEMP              0 ****  ****    0 ROOT
