@<TRIPOS>MOLECULE
505
   31    31     1     0     0
SMALL
bcc


@<TRIPOS>ATOM
      1 C1          0.0540    0.2860    0.1070 c3        1 505     -0.136100
      2 C2          1.5440    0.0030    0.0010 c3        1 505      0.126500
      3 N3          2.1430   -0.2410    1.3640 n4        1 505     -0.839600
      4 C4          1.8020   -1.2060   -0.9200 c3        1 505      0.102400
      5 O5          1.3980   -2.3670   -0.1860 os        1 505     -0.383900
      6 C6          1.4940   -3.5490   -0.9300 ca        1 505      0.052100
      7 C7          0.3300   -4.0610   -1.5290 ca        1 505     -0.071800
      8 C8         -0.9620   -3.3420   -1.4720 c3        1 505     -0.051800
      9 C9          0.4120   -5.3010   -2.1740 ca        1 505     -0.118500
     10 C10         1.6160   -5.9990   -2.2210 ca        1 505     -0.098000
     11 C11         2.7610   -5.4740   -1.6230 ca        1 505     -0.118500
     12 C12         2.7190   -4.2370   -0.9700 ca        1 505     -0.071800
     13 C13         3.9460   -3.6930   -0.3460 c3        1 505     -0.051800
     14 H1C1       -0.3240    0.5600   -0.9110 hc        1 505      0.084367
     15 H1C2       -0.5010   -0.6220    0.4510 hc        1 505      0.084367
     16 H1C3       -0.1590    1.1390    0.7970 hc        1 505      0.084367
     17 H2          2.0770    0.9020   -0.4330 hx        1 505      0.110700
     18 H3N1        1.9370    0.5430    1.9860 hn        1 505      0.464133
     19 H3N2        3.1550   -0.3670    1.2800 hn        1 505      0.464133
     20 H4C1        2.8890   -1.2910   -1.1880 h1        1 505      0.080700
     21 H4C2        1.1870   -1.0950   -1.8510 h1        1 505      0.080700
     22 H8C1       -0.8170   -2.2690   -1.1900 hc        1 505      0.047367
     23 H8C2       -1.6280   -3.8170   -0.7070 hc        1 505      0.047367
     24 H8C3       -1.4810   -3.3850   -2.4620 hc        1 505      0.047367
     25 H9         -0.4900   -5.7220   -2.6470 ha        1 505      0.152000
     26 H10         1.6650   -6.9730   -2.7330 ha        1 505      0.154000
     27 H11         3.7080   -6.0340   -1.6600 ha        1 505      0.152000
     28 H131        3.7000   -2.8940    0.3980 hc        1 505      0.047367
     29 H132        4.5110   -4.5020    0.1810 hc        1 505      0.047367
     30 H133        4.6150   -3.2550   -1.1290 hc        1 505      0.047367
     31 H33         1.7360   -1.1050    1.7490 hn        1 505      0.464133
@<TRIPOS>BOND
     1    1    2 1   
     2    1   14 1   
     3    1   15 1   
     4    1   16 1   
     5    2    3 1   
     6    2    4 1   
     7    2   17 1   
     8    3   18 1   
     9    3   19 1   
    10    3   31 1   
    11    4    5 1   
    12    4   20 1   
    13    4   21 1   
    14    5    6 1   
    15    6    7 ar  
    16    6   12 ar  
    17    7    8 1   
    18    7    9 ar  
    19    8   22 1   
    20    8   23 1   
    21    8   24 1   
    22    9   10 ar  
    23    9   25 1   
    24   10   11 ar  
    25   10   26 1   
    26   11   12 ar  
    27   11   27 1   
    28   12   13 1   
    29   13   28 1   
    30   13   29 1   
    31   13   30 1   
@<TRIPOS>SUBSTRUCTURE
     1 505         1 TEMP              0 ****  ****    0 ROOT
