@<TRIPOS>MOLECULE
505
   30    28     1     0     0
SMALL
bcc


@<TRIPOS>ATOM
      1 C1         -3.5290   -0.0300    0.4740 c3        1 505     -0.252000
      2 C2         -2.3690    0.8440    0.7250 c3        1 505     -0.041000
      3 N3         -2.5130    1.4750    2.0100 n3        1 505     -0.335000
      4 C4         -1.0860    0.0080    0.7090 c3        1 505     -0.019000
      5 O5         -0.4780    0.1070   -0.5590 os        1 505     -0.234000
      6 C6          0.9420   -0.1620   -0.5510 c2        1 505      0.043000
      7 C7          1.8410    0.8780   -0.6780 c1        1 505     -0.074000
      8 C8          1.3440    2.2680   -0.8760 c2        1 505     -0.182000
      9 C9          3.1940    0.6170   -0.7440 c2        1 505     -0.129000
     10 C10         3.6500   -0.6830   -0.6840 c1        1 505     -0.128000
     11 C11         2.7480   -1.7320   -0.5570 c1        1 505     -0.131000
     12 C12         1.4010   -1.4740   -0.4910 c2        1 505     -0.072000
     13 C13         0.4090   -2.6250   -0.4880 c3        1 505     -0.177000
     14 H1C1       -4.3470    0.4960    0.5160 hc        1 505      0.081000
     15 H1C2       -3.4460   -0.4340   -0.4120 hc        1 505      0.081000
     16 H1C3       -3.5590   -0.7300    1.1470 hc        1 505      0.081000
     17 H2         -2.3210    1.5390    0.0200 h1        1 505      0.114000
     18 H3N1       -2.8460    2.3170    1.8990 hn        1 505      0.143000
     19 H3N2       -3.1010    0.9760    2.5380 hn        1 505      0.143000
     20 H4C1       -1.3050   -0.9360    0.8960 h1        1 505      0.082000
     21 H4C2       -0.4710    0.3420    1.3930 h1        1 505      0.082000
     22 H8C1        0.6390    2.2650   -1.5160 ha        1 505      0.089000
     23 H8C2        2.0720    2.8300   -1.1970 ha        1 505      0.089000
     24 H8C3        1.0140    2.6170   -0.0340 ha        1 505      0.089000
     25 H9          3.8350    1.3610   -0.8350 ha        1 505      0.133000
     26 H10         4.6050   -0.8650   -0.7300 ha        1 505      0.132000
     27 H11         3.0750   -2.6570   -0.5150 ha        1 505      0.133000
     28 H131        0.8420   -3.4270   -0.8230 hc        1 505      0.086667
     29 H132        0.0970   -2.7800    0.4140 hc        1 505      0.086667
     30 H133       -0.3360   -2.4050   -1.0500 hc        1 505      0.086667
@<TRIPOS>BOND
     1    1    2 1   
     2    1   14 1   
     3    1   15 1   
     4    1   16 1   
     5    2    3 1   
     6    2    4 1   
     7    2   17 1   
     8    3   18 1   
     9    3   19 1   
    10    4    5 1   
    11    4   20 1   
    12    4   21 1   
    13    5    6 1   
    14    6    7 1   
    15    6   12 1   
    16    7    9 1   
    17    8   22 1   
    18    8   23 1   
    19    8   24 1   
    20    9   10 1   
    21    9   25 1   
    22   10   26 1   
    23   11   12 1   
    24   11   27 1   
    25   12   13 1   
    26   13   28 1   
    27   13   29 1   
    28   13   30 1   
@<TRIPOS>SUBSTRUCTURE
     1 505         1 TEMP              0 ****  ****    0 ROOT
