@<TRIPOS>MOLECULE
505
   30    30     1     0     0
SMALL
bcc


@<TRIPOS>ATOM
      1 C1         31.7490    3.6620   28.1670 c3        1 505     -0.094100
      2 C2         32.6480    4.8070   27.7060 c3        1 505      0.166500
      3 N3         33.0770    4.6570   26.3280 n3        1 505     -0.891800
      4 C4         31.9490    6.1470   28.0260 c3        1 505      0.085400
      5 O5         30.8450    6.2720   27.1180 os        1 505     -0.353900
      6 C6         30.0670    7.4010   27.3610 ca        1 505      0.087100
      7 C7         28.8690    7.2520   28.0830 ca        1 505     -0.081300
      8 C8         28.4720    5.9460   28.6550 c3        1 505     -0.053800
      9 C9         28.0380    8.3670   28.2350 ca        1 505     -0.128500
     10 C10        28.3920    9.5970   27.6840 ca        1 505     -0.128000
     11 C11        29.5800    9.7310   26.9700 ca        1 505     -0.128500
     12 C12        30.4360    8.6370   26.7990 ca        1 505     -0.081300
     13 C13        31.6980    8.7930   26.0410 c3        1 505     -0.053800
     14 H1C1       31.5600    3.7610   29.2620 hc        1 505      0.043700
     15 H1C2       30.7690    3.6970   27.6320 hc        1 505      0.043700
     16 H1C3       32.2340    2.6760   27.9740 hc        1 505      0.043700
     17 H2         33.5900    4.7960   28.3360 h1        1 505      0.059700
     18 H3N1       32.2890    4.4590   25.7410 hn        1 505      0.349800
     19 H3N2       33.5020    5.5080   26.0110 hn        1 505      0.349800
     20 H4C1       31.5740    6.1490   29.0820 h1        1 505      0.038700
     21 H4C2       32.6450    7.0130   27.8730 h1        1 505      0.038700
     22 H8C1       27.6990    5.4650   28.0040 hc        1 505      0.047533
     23 H8C2       29.3500    5.2540   28.7210 hc        1 505      0.047533
     24 H8C3       28.0380    6.0770   29.6770 hc        1 505      0.047533
     25 H9         27.0960    8.2650   28.7960 ha        1 505      0.133500
     26 H10        27.7290   10.4650   27.8120 ha        1 505      0.133000
     27 H11        29.8520   10.7030   26.5320 ha        1 505      0.133500
     28 H131       31.5580    9.4940   25.1810 hc        1 505      0.047533
     29 H132       32.4960    9.2080   26.7060 hc        1 505      0.047533
     30 H133       32.0470    7.8070   25.6430 hc        1 505      0.047533
@<TRIPOS>BOND
     1    1    2 1   
     2    1   14 1   
     3    1   15 1   
     4    1   16 1   
     5    2    3 1   
     6    2    4 1   
     7    2   17 1   
     8    3   18 1   
     9    3   19 1   
    10    4    5 1   
    11    4   20 1   
    12    4   21 1   
    13    5    6 1   
    14    6    7 ar  
    15    6   12 ar  
    16    7    8 1   
    17    7    9 ar  
    18    8   22 1   
    19    8   23 1   
    20    8   24 1   
    21    9   10 ar  
    22    9   25 1   
    23   10   11 ar  
    24   10   26 1   
    25   11   12 ar  
    26   11   27 1   
    27   12   13 1   
    28   13   28 1   
    29   13   29 1   
    30   13   30 1   
@<TRIPOS>SUBSTRUCTURE
     1 505         1 TEMP              0 ****  ****    0 ROOT
