@<TRIPOS>MOLECULE
505
   31    31     1     0     0
SMALL
bcc


@<TRIPOS>ATOM
      1 C1          0.0610    0.2900    0.1170 c3        1 505     -0.136100
      2 C2          1.5500   -0.0020    0.0170 c3        1 505      0.126500
      3 N3          2.1400   -0.2580    1.3810 n4        1 505     -0.839600
      4 C4          1.8070   -1.2060   -0.9100 c3        1 505      0.102400
      5 O5          1.3920   -2.3690   -0.1870 os        1 505     -0.383900
      6 C6          1.4900   -3.5470   -0.9360 ca        1 505      0.052100
      7 C7          0.3310   -4.0510   -1.5490 ca        1 505     -0.071800
      8 C8         -0.9600   -3.3280   -1.5000 c3        1 505     -0.051800
      9 C9          0.4130   -5.2880   -2.2000 ca        1 505     -0.118500
     10 C10         1.6160   -5.9900   -2.2390 ca        1 505     -0.098000
     11 C11         2.7560   -5.4730   -1.6270 ca        1 505     -0.118500
     12 C12         2.7130   -4.2400   -0.9680 ca        1 505     -0.071800
     13 C13         3.9360   -3.7040   -0.3300 c3        1 505     -0.051800
     14 H1C1       -0.5010   -0.6190    0.4490 hc        1 505      0.084367
     15 H1C2       -0.3090    0.5730   -0.9020 hc        1 505      0.084367
     16 H1C3       -0.1520    1.1380    0.8110 hc        1 505      0.084367
     17 H2          2.0910    0.8970   -0.4080 hx        1 505      0.110700
     18 H3N1        1.9340    0.5220    2.0080 hn        1 505      0.464133
     19 H3N2        1.7260   -1.1220    1.7590 hn        1 505      0.464133
     20 H4C1        1.1970   -1.0850   -1.8440 h1        1 505      0.080700
     21 H4C2        2.8950   -1.2950   -1.1730 h1        1 505      0.080700
     22 H8C1       -0.8140   -2.2590   -1.2050 hc        1 505      0.047367
     23 H8C2       -1.4660   -3.3580   -2.4970 hc        1 505      0.047367
     24 H8C3       -1.6370   -3.8090   -0.7500 hc        1 505      0.047367
     25 H9         -0.4850   -5.7040   -2.6840 ha        1 505      0.152000
     26 H10         1.6650   -6.9630   -2.7560 ha        1 505      0.154000
     27 H11         3.7020   -6.0370   -1.6590 ha        1 505      0.152000
     28 H131        3.6870   -2.9070    0.4140 hc        1 505      0.047367
     29 H132        4.4910   -4.5180    0.2000 hc        1 505      0.047367
     30 H133        4.6150   -3.2660   -1.1050 hc        1 505      0.047367
     31 H33         3.1520   -0.3890    1.3030 hn        1 505      0.464133
@<TRIPOS>BOND
     1    1    2 1   
     2    1   14 1   
     3    1   15 1   
     4    1   16 1   
     5    2    3 1   
     6    2    4 1   
     7    2   17 1   
     8    3   18 1   
     9    3   19 1   
    10    3   31 1   
    11    4    5 1   
    12    4   20 1   
    13    4   21 1   
    14    5    6 1   
    15    6    7 ar  
    16    6   12 ar  
    17    7    8 1   
    18    7    9 ar  
    19    8   22 1   
    20    8   23 1   
    21    8   24 1   
    22    9   10 ar  
    23    9   25 1   
    24   10   11 ar  
    25   10   26 1   
    26   11   12 ar  
    27   11   27 1   
    28   12   13 1   
    29   13   28 1   
    30   13   29 1   
    31   13   30 1   
@<TRIPOS>SUBSTRUCTURE
     1 505         1 TEMP              0 ****  ****    0 ROOT
