@<TRIPOS>MOLECULE
505
   31    31     1     0     0
SMALL
bcc


@<TRIPOS>ATOM
      1 C1          0.0590    0.2890    0.1110 c3        1 505     -0.136100
      2 C2          1.5480    0.0020    0.0050 c3        1 505      0.126500
      3 N3          2.1460   -0.2460    1.3670 nz        1 505     -0.839600
      4 C4          1.8040   -1.2070   -0.9180 c3        1 505      0.102400
      5 O5          1.3970   -2.3680   -0.1870 os        1 505     -0.383900
      6 C6          1.4920   -3.5480   -0.9320 ca        1 505      0.052100
      7 C7          0.3290   -4.0570   -1.5330 ca        1 505     -0.071800
      8 C8         -0.9630   -3.3360   -1.4780 c3        1 505     -0.051800
      9 C9          0.4090   -5.2970   -2.1800 ca        1 505     -0.118500
     10 C10         1.6120   -5.9970   -2.2250 ca        1 505     -0.098000
     11 C11         2.7570   -5.4750   -1.6240 ca        1 505     -0.118500
     12 C12         2.7150   -4.2390   -0.9700 ca        1 505     -0.071800
     13 C13         3.9420   -3.6970   -0.3430 c3        1 505     -0.051800
     14 H1C1       -0.4990   -0.6200    0.4520 hc        1 505      0.084367
     15 H1C2       -0.3180    0.5650   -0.9070 hc        1 505      0.084367
     16 H1C3       -0.1530    1.1400    0.8020 hc        1 505      0.084367
     17 H2          2.0840    0.9000   -0.4270 hx        1 505      0.110700
     18 H3N1        3.1580   -0.3740    1.2840 hn        1 505      0.464133
     19 H3N2        1.9410    0.5370    1.9920 hn        1 505      0.464133
     20 H4C1        2.8910   -1.2930   -1.1850 h1        1 505      0.080700
     21 H4C2        1.1890   -1.0920   -1.8490 h1        1 505      0.080700
     22 H8C1       -0.8160   -2.2650   -1.1930 hc        1 505      0.047367
     23 H8C2       -1.6320   -3.8130   -0.7170 hc        1 505      0.047367
     24 H8C3       -1.4790   -3.3760   -2.4700 hc        1 505      0.047367
     25 H9         -0.4920   -5.7160   -2.6550 ha        1 505      0.152000
     26 H10         1.6600   -6.9710   -2.7380 ha        1 505      0.154000
     27 H11         3.7030   -6.0370   -1.6610 ha        1 505      0.152000
     28 H131        4.6140   -3.2600   -1.1250 hc        1 505      0.047367
     29 H132        4.5050   -4.5080    0.1840 hc        1 505      0.047367
     30 H133        3.6970   -2.8990    0.4010 hc        1 505      0.047367
     31 H33         1.7370   -1.1090    1.7510 hn        1 505      0.464133
@<TRIPOS>BOND
     1    1    2 1   
     2    1   14 1   
     3    1   15 1   
     4    1   16 1   
     5    2    3 1   
     6    2    4 1   
     7    2   17 1   
     8    3   18 1   
     9    3   19 1   
    10    3   31 1   
    11    4    5 1   
    12    4   20 1   
    13    4   21 1   
    14    5    6 1   
    15    6    7 ar  
    16    6   12 ar  
    17    7    8 1   
    18    7    9 ar  
    19    8   22 1   
    20    8   23 1   
    21    8   24 1   
    22    9   10 ar  
    23    9   25 1   
    24   10   11 ar  
    25   10   26 1   
    26   11   12 ar  
    27   11   27 1   
    28   12   13 1   
    29   13   28 1   
    30   13   29 1   
    31   13   30 1   
@<TRIPOS>SUBSTRUCTURE
     1 505         1 TEMP              0 ****  ****    0 ROOT
