@<TRIPOS>MOLECULE
506
   45    47     1     0     0
SMALL
bcc


@<TRIPOS>ATOM
      1 OAC        -5.7000   -1.2130   -1.3670 o         1 506     -0.647500
      2 CBC        -4.7560   -1.6430   -0.6680 c         1 506      0.805500
      3 NAS        -4.9590   -2.6840    0.2470 n         1 506     -0.584500
      4 CBB        -3.9340   -3.1960    1.0670 c         1 506      0.714700
      5 OAB        -4.2010   -4.1230    1.8480 o         1 506     -0.606500
      6 CAK        -2.6180   -2.5650    0.9200 cc        1 506     -0.322200
      7 CAL        -2.4270   -1.5610    0.0270 cd        1 506      0.054600
      8 NBD        -3.4490   -1.0950   -0.7890 n         1 506     -0.381000
      9 CAR        -3.2090   -0.0370   -1.7420 c3        1 506      0.092000
     10 CAQ        -2.8740    1.3250   -1.1190 c3        1 506      0.102400
     11 OAT        -1.5180    1.2120   -0.6630 os        1 506     -0.328900
     12 CBA        -1.0690    2.2150    0.1660 ca        1 506      0.153100
     13 CAO        -1.6890    3.4590    0.3010 ca        1 506     -0.235000
     14 CAV        -1.1130    4.4180    1.1550 ca        1 506      0.168900
     15 FAD        -1.7080    5.6260    1.2890 f         1 506     -0.128900
     16 CAI         0.0680    4.1390    1.8670 ca        1 506     -0.187000
     17 CAJ         0.6760    2.8960    1.7270 ca        1 506     -0.079000
     18 CAZ         0.1140    1.9310    0.8860 ca        1 506      0.031100
     19 OAU         0.6220    0.6350    0.8520 os        1 506     -0.236200
     20 CAY         1.8000    0.4550    0.1320 ca        1 506      0.139100
     21 CAP         2.4220   -0.7860    0.3340 ca        1 506     -0.152000
     22 CAN         2.3200    1.4030   -0.7510 ca        1 506     -0.214000
     23 CAW         3.4990    1.0860   -1.4480 ca        1 506      0.158900
     24 FAE         4.0220    1.9860   -2.3140 f         1 506     -0.132900
     25 CAM         4.1390   -0.1500   -1.2600 ca        1 506     -0.180000
     26 CAX         3.5990   -1.0830   -0.3650 ca        1 506     -0.019800
     27 CAH         4.2310   -2.3770   -0.1450 ce        1 506     -0.059200
     28 CAG         5.5300   -2.6300   -0.3730 cf        1 506     -0.049700
     29 CAF         6.1090   -3.9030   -0.1440 ch        1 506      0.179500
     30 NAA         6.6030   -4.9410    0.0390 n1        1 506     -0.353800
     31 H1         -5.8800   -3.0640    0.3050 hn        1 506      0.353500
     32 H2         -1.8150   -2.9420    1.5660 ha        1 506      0.180000
     33 H3         -1.4500   -1.0450   -0.0960 h4        1 506      0.190000
     34 H4         -2.3490   -0.3470   -2.4040 h1        1 506      0.092700
     35 H5         -4.1330    0.0960   -2.3770 h1        1 506      0.092700
     36 H6         -2.9250    2.1160   -1.9130 h1        1 506      0.063200
     37 H7         -3.5540    1.5870   -0.2690 h1        1 506      0.063200
     38 H8         -2.6100    3.7040   -0.2460 ha        1 506      0.162000
     39 H9          0.4990    4.9030    2.5300 ha        1 506      0.161000
     40 H10         1.5980    2.6590    2.2820 ha        1 506      0.160000
     41 H11         1.9830   -1.5080    1.0370 ha        1 506      0.158000
     42 H12         1.8250    2.3720   -0.9070 ha        1 506      0.166000
     43 H13         5.0540   -0.3750   -1.8260 ha        1 506      0.155000
     44 H14         3.5620   -3.1650    0.2480 ha        1 506      0.145000
     45 H15         6.2310   -1.8620   -0.7470 ha        1 506      0.156000
@<TRIPOS>BOND
     1    1    2 2   
     2    2    3 1   
     3    2    8 1   
     4    3    4 1   
     5    3   31 1   
     6    4    5 2   
     7    4    6 1   
     8    6    7 2   
     9    6   32 1   
    10    7    8 1   
    11    7   33 1   
    12    8    9 1   
    13    9   10 1   
    14    9   34 1   
    15    9   35 1   
    16   10   11 1   
    17   10   36 1   
    18   10   37 1   
    19   11   12 1   
    20   12   13 ar  
    21   12   18 ar  
    22   13   14 ar  
    23   13   38 1   
    24   14   15 1   
    25   14   16 ar  
    26   16   17 ar  
    27   16   39 1   
    28   17   18 ar  
    29   17   40 1   
    30   18   19 1   
    31   19   20 1   
    32   20   21 ar  
    33   20   22 ar  
    34   21   26 ar  
    35   21   41 1   
    36   22   23 ar  
    37   22   42 1   
    38   23   24 1   
    39   23   25 ar  
    40   25   26 ar  
    41   25   43 1   
    42   26   27 1   
    43   27   28 2   
    44   27   44 1   
    45   28   29 1   
    46   28   45 1   
    47   29   30 3   
@<TRIPOS>SUBSTRUCTURE
     1 506         1 TEMP              0 ****  ****    0 ROOT
