@<TRIPOS>MOLECULE
506
   45    39     1     0     0
SMALL
bcc


@<TRIPOS>ATOM
      1 OAC        -2.0260   -4.7410    2.2430 o         1 506     -0.371000
      2 CBC        -1.9990   -4.4850    1.0530 c1        1 506      0.396000
      3 NAS        -2.7320   -5.3390    0.0950 n2        1 506     -0.364000
      4 CBB        -2.7570   -4.9990   -1.2760 c2        1 506      0.353000
      5 OAB        -3.2460   -5.7870   -2.0940 o         1 506     -0.331000
      6 CAK        -2.0070   -3.8070   -1.7580 c2        1 506     -0.304000
      7 CAL        -1.2770   -2.9620   -0.8030 c1        1 506      0.056000
      8 NBD        -1.2580   -3.2960    0.5670 n2        1 506     -0.272000
      9 CAR        -0.4770   -2.5070    1.4840 c3        1 506     -0.022000
     10 CAQ        -1.2320   -1.2170    1.8330 c3        1 506     -0.051000
     11 OAT        -0.3590   -0.3330    2.5010 os        1 506     -0.207000
     12 CBA        -0.6590    1.0780    2.2980 c1        1 506      0.109000
     13 CAO        -1.9580    1.5550    2.4950 c1        1 506     -0.239000
     14 CAV        -2.2350    2.9110    2.3350 c1        1 506      0.131000
     15 FAD        -3.4320    3.4000    2.7390 f         1 506     -0.096000
     16 CAI        -1.2100    3.7950    1.9770 c2        1 506     -0.187000
     17 CAJ         0.0770    3.3220    1.7820 c1        1 506     -0.083000
     18 CAZ         0.3550    1.9550    1.9430 c1        1 506     -0.010000
     19 OAU         1.7260    1.4520    1.7480 os        1 506     -0.140000
     20 CAY         2.2050    1.8650    0.4980 c2        1 506      0.088000
     21 CAP         1.9680    1.0880   -0.6230 c2        1 506     -0.187000
     22 CAN         3.0430    2.9560    0.4180 c1        1 506     -0.183000
     23 CAW         3.6490    3.2770   -0.7800 c1        1 506      0.122000
     24 FAE         4.3430    4.3470   -0.8760 f         1 506     -0.095000
     25 CAM         3.4150    2.5070   -1.8940 c1        1 506     -0.170000
     26 CAX         2.5630    1.3990   -1.8100 c1        1 506     -0.011000
     27 CAH         2.4510    0.3860   -3.0360 c2        1 506     -0.070000
     28 CAG         1.6560    0.7030   -4.1330 c1        1 506     -0.084000
     29 CAF         0.8880    2.0330   -4.1670 c1        1 506     -0.112000
     30 NAA         0.3080    3.0440   -4.1950 n1        1 506     -0.030000
     31 H1         -3.2310   -6.0540    0.4020 hn        1 506      0.267000
     32 H2         -2.0200   -3.5710   -2.7060 ha        1 506      0.182000
     33 H3         -0.7710   -2.1560   -1.1310 ha        1 506      0.185000
     34 H4         -0.3100   -3.0290    2.3080 h1        1 506      0.131500
     35 H5          0.3620   -2.2790    1.0710 h1        1 506      0.131500
     36 H6         -1.5640   -0.7880    0.9890 h1        1 506      0.101500
     37 H7         -1.9840   -1.4240    2.4110 h1        1 506      0.101500
     38 H8         -2.6700    0.9400    2.7150 ha        1 506      0.161000
     39 H9         -1.3970    4.7170    1.8680 ha        1 506      0.160000
     40 H10         0.7870    3.9370    1.5340 ha        1 506      0.161000
     41 H11         1.3870    0.3310   -0.5660 ha        1 506      0.152000
     42 H12         3.2270    3.4710    1.1990 ha        1 506      0.170000
     43 H13         3.8460    2.7330   -2.7500 ha        1 506      0.163000
     44 H14         2.9640   -0.5020   -3.0150 ha        1 506      0.144000
     45 H15         1.5890    0.0760   -4.8890 ha        1 506      0.157000
@<TRIPOS>BOND
     1    1    2 1   
     2    2    8 1   
     3    3    4 1   
     4    3   31 1   
     5    4    5 1   
     6    4    6 1   
     7    6    7 1   
     8    6   32 1   
     9    7   33 1   
    10    8    9 1   
    11    9   10 1   
    12    9   34 1   
    13    9   35 1   
    14   10   11 1   
    15   10   36 1   
    16   10   37 1   
    17   11   12 1   
    18   12   18 1   
    19   13   14 1   
    20   13   38 1   
    21   14   16 1   
    22   16   17 1   
    23   16   39 1   
    24   17   40 1   
    25   18   19 1   
    26   19   20 1   
    27   20   21 1   
    28   20   22 1   
    29   21   26 1   
    30   21   41 1   
    31   22   42 1   
    32   23   24 1   
    33   23   25 1   
    34   25   43 1   
    35   26   27 1   
    36   27   28 1   
    37   27   44 1   
    38   28   45 1   
    39   29   30 1   
@<TRIPOS>SUBSTRUCTURE
     1 506         1 TEMP              0 ****  ****    0 ROOT
