@<TRIPOS>MOLECULE
506
   45    46     1     0     0
SMALL
bcc


@<TRIPOS>ATOM
      1 OAC         1.4330   -1.6360   -0.8870 o         1 506     -0.372000
      2 CBC         2.0180   -0.6320   -0.4240 c2        1 506      0.396000
      3 NAS         2.0940   -0.4220    0.9590 n         1 506     -0.364000
      4 CBB         2.7300    0.6980    1.5300 c2        1 506      0.353000
      5 OAB         2.7570    0.8030    2.7670 o         1 506     -0.332000
      6 CAK         3.3100    1.6600    0.5870 c2        1 506     -0.305000
      7 CAL         3.2370    1.4470   -0.7520 c2        1 506      0.053000
      8 NBD         2.6290    0.3200   -1.2870 n         1 506     -0.273000
      9 CAR         2.5900    0.1090   -2.7160 c3        1 506     -0.025000
     10 CAQ         1.7530    1.1340   -3.4930 c3        1 506     -0.048000
     11 OAT         2.5480    2.3290   -3.5270 os        1 506     -0.212000
     12 CBA         1.8990    3.4790   -3.9120 ca        1 506      0.107000
     13 CAO         0.6980    3.5020   -4.6260 ca        1 506     -0.234000
     14 CAV         0.1520    4.7430   -5.0010 ca        1 506      0.133000
     15 FAD        -1.0090    4.7720   -5.6940 f         1 506     -0.094000
     16 CAI         0.7960    5.9490   -4.6670 ca        1 506     -0.185000
     17 CAJ         1.9890    5.9160   -3.9530 ca        1 506     -0.080000
     18 CAZ         2.5410    4.6910   -3.5680 ca        1 506     -0.013000
     19 OAU         3.6480    4.6410   -2.7240 os        1 506     -0.146000
     20 CAY         4.8780    4.9380   -3.3020 ca        1 506      0.102000
     21 CAP         5.9250    5.1140   -2.3820 ca        1 506     -0.167000
     22 CAN         5.0860    5.0270   -4.6790 ca        1 506     -0.225000
     23 CAW         6.3870    5.3010   -5.1400 ca        1 506      0.135000
     24 FAE         6.6150    5.3930   -6.4710 f         1 506     -0.096000
     25 CAM         7.4490    5.4780   -4.2380 ca        1 506     -0.200000
     26 CAX         7.2110    5.3820   -2.8600 ca        1 506      0.058000
     27 CAH         8.3000    5.5640   -1.9190 c2        1 506     -0.421000
     28 CAG         9.5660    5.8170   -2.1750 c1        1 506      0.192000
     29 CAF        12.8020    6.4750   -2.6370 c1        1 506     -0.201000
     30 NAA        13.9290    6.7080   -2.7920 n1        1 506     -0.070000
     31 H1          1.6710   -1.1090    1.5460 hn        1 506      0.267000
     32 H2          3.7900    2.5460    1.0180 ha        1 506      0.179000
     33 H3          3.6460    2.1640   -1.4960 h4        1 506      0.191000
     34 H4          2.1550   -0.9130   -2.9200 h1        1 506      0.132000
     35 H5          3.6480    0.1450   -3.1070 h1        1 506      0.132000
     36 H6          0.7620    1.3330   -3.0110 h1        1 506      0.102500
     37 H7          1.6050    0.7690   -4.5440 h1        1 506      0.102500
     38 H8          0.1790    2.5740   -4.9030 ha        1 506      0.162000
     39 H9          0.3500    6.9080   -4.9700 ha        1 506      0.161000
     40 H10         2.5020    6.8510   -3.6790 ha        1 506      0.160000
     41 H11         5.7200    5.0380   -1.3050 ha        1 506      0.155000
     42 H12         4.2620    4.8850   -5.3930 ha        1 506      0.166000
     43 H13         8.4570    5.6910   -4.6230 ha        1 506      0.155000
     44 H14         8.0230    5.4770   -0.8430 ha        1 506      0.205000
     45 H15        11.7570    6.2590   -2.4930 ha        1 506      0.262000
@<TRIPOS>BOND
     1    1    2 1   
     2    2    3 1   
     3    2    8 1   
     4    3    4 1   
     5    3   31 1   
     6    4    5 1   
     7    4    6 1   
     8    6    7 1   
     9    6   32 1   
    10    7    8 1   
    11    7   33 1   
    12    8    9 1   
    13    9   10 1   
    14    9   34 1   
    15    9   35 1   
    16   10   11 1   
    17   10   36 1   
    18   10   37 1   
    19   11   12 1   
    20   12   13 1   
    21   12   18 1   
    22   13   14 1   
    23   13   38 1   
    24   14   15 1   
    25   14   16 1   
    26   16   17 1   
    27   16   39 1   
    28   17   18 1   
    29   17   40 1   
    30   18   19 1   
    31   19   20 1   
    32   20   21 1   
    33   20   22 1   
    34   21   26 1   
    35   21   41 1   
    36   22   23 1   
    37   22   42 1   
    38   23   24 1   
    39   23   25 1   
    40   25   26 1   
    41   25   43 1   
    42   26   27 1   
    43   27   28 1   
    44   27   44 1   
    45   29   30 1   
    46   29   45 1   
@<TRIPOS>SUBSTRUCTURE
     1 506         1 TEMP              0 ****  ****    0 ROOT
