@<TRIPOS>MOLECULE
506
   45    46     1     0     0
SMALL
bcc


@<TRIPOS>ATOM
      1 OAC         1.0810   -0.4700    0.2120 o         1 506     -0.371000
      2 CBC         2.2460   -0.1360   -0.0990 c2        1 506      0.396000
      3 NAS         3.2920   -0.2370    0.8270 ns        1 506     -0.364000
      4 CBB         4.6170    0.1430    0.5310 c2        1 506      0.352000
      5 OAB         5.4830    0.0220    1.4130 o         1 506     -0.330000
      6 CAK         4.8520    0.6630   -0.8200 c2        1 506     -0.302000
      7 CAL         3.8330    0.7520   -1.7130 c2        1 506      0.055000
      8 NBD         2.5430    0.3440   -1.4040 n         1 506     -0.272000
      9 CAR         1.4800    0.4700   -2.3730 c3        1 506     -0.022000
     10 CAQ         0.9950    1.9060   -2.6190 c3        1 506     -0.051000
     11 OAT         2.0410    2.5500   -3.3600 os        1 506     -0.207000
     12 CBA         1.7640    3.8160   -3.8220 ca        1 506      0.111000
     13 CAO         0.6140    4.5410   -3.4990 ca        1 506     -0.240000
     14 CAV         0.4500    5.8350   -4.0270 ca        1 506      0.133000
     15 FAD        -0.6600    6.5410   -3.7130 f         1 506     -0.095000
     16 CAI         1.4220    6.4010   -4.8730 ca        1 506     -0.189000
     17 CAJ         2.5600    5.6700   -5.1930 ca        1 506     -0.082000
     18 CAZ         2.7380    4.3840   -4.6770 ca        1 506     -0.013000
     19 OAU         3.7950    3.5840   -5.1040 os        1 506     -0.139000
     20 CAY         5.0570    3.9260   -4.6300 ca        1 506      0.099000
     21 CAP         5.2800    4.8140   -3.5750 ca        1 506     -0.201000
     22 CAN         6.1130    3.2720   -5.2820 ca        1 506     -0.194000
     23 CAW         7.4210    3.5290   -4.8430 ca        1 506      0.131000
     24 FAE         8.4610    2.9110   -5.4510 f         1 506     -0.095000
     25 CAM         7.6680    4.4220   -3.7840 ca        1 506     -0.199000
     26 CAX         6.5950    5.0620   -3.1550 ca        1 506      0.062000
     27 CAH         6.8340    5.9850   -2.0620 c2        1 506     -0.423000
     28 CAG         7.9830    6.4590   -1.6300 c1        1 506      0.194000
     29 CAF        10.7430    7.9560   -0.5050 c1        1 506     -0.200000
     30 NAA        11.6810    8.5300   -0.1320 n1        1 506     -0.070000
     31 H1          3.0670   -0.5950    1.7300 hn        1 506      0.267000
     32 H2          5.8770    0.9690   -1.0610 ha        1 506      0.182000
     33 H3          3.9650    1.1600   -2.7370 h4        1 506      0.184000
     34 H4          0.5930   -0.1300   -2.0150 h1        1 506      0.132000
     35 H5          1.8450    0.0440   -3.3520 h1        1 506      0.132000
     36 H6          0.8130    2.4620   -1.6630 h1        1 506      0.101500
     37 H7          0.0570    1.8740   -3.2330 h1        1 506      0.101500
     38 H8         -0.1630    4.1280   -2.8410 ha        1 506      0.162000
     39 H9          1.2710    7.4120   -5.2770 ha        1 506      0.161000
     40 H10         3.3280    6.0950   -5.8590 ha        1 506      0.160000
     41 H11         4.4330    5.3130   -3.0830 ha        1 506      0.152000
     42 H12         5.9170    2.5760   -6.1100 ha        1 506      0.171000
     43 H13         8.7030    4.6050   -3.4610 ha        1 506      0.156000
     44 H14         5.9230    6.3360   -1.5230 ha        1 506      0.204000
     45 H15         9.8730    7.4240   -0.8530 ha        1 506      0.262000
@<TRIPOS>BOND
     1    1    2 1   
     2    2    3 1   
     3    2    8 1   
     4    3    4 1   
     5    3   31 1   
     6    4    5 1   
     7    4    6 1   
     8    6    7 1   
     9    6   32 1   
    10    7    8 1   
    11    7   33 1   
    12    8    9 1   
    13    9   10 1   
    14    9   34 1   
    15    9   35 1   
    16   10   11 1   
    17   10   36 1   
    18   10   37 1   
    19   11   12 1   
    20   12   13 1   
    21   12   18 1   
    22   13   14 1   
    23   13   38 1   
    24   14   15 1   
    25   14   16 1   
    26   16   17 1   
    27   16   39 1   
    28   17   18 1   
    29   17   40 1   
    30   18   19 1   
    31   19   20 1   
    32   20   21 1   
    33   20   22 1   
    34   21   26 1   
    35   21   41 1   
    36   22   23 1   
    37   22   42 1   
    38   23   24 1   
    39   23   25 1   
    40   25   26 1   
    41   25   43 1   
    42   26   27 1   
    43   27   28 1   
    44   27   44 1   
    45   29   30 1   
    46   29   45 1   
@<TRIPOS>SUBSTRUCTURE
     1 506         1 TEMP              0 ****  ****    0 ROOT
