@<TRIPOS>MOLECULE
507
   45    40     1     0     0
SMALL
bcc


@<TRIPOS>ATOM
      1 CAA        -5.3510    2.1080   -3.1370 c3        1 507     -0.266000
      2 OAB        -3.8710    2.2330   -4.9800 o         1 507     -0.298000
      3 CAC        -3.0830   -1.9230   -3.3310 c1        1 507     -0.118000
      4 CAD        -3.8470   -0.8240   -3.6930 c1        1 507     -0.118000
      5 CAE        -1.8240   -1.7410   -2.7810 c1        1 507     -0.076000
      6 CAF         3.0180   -1.4910    0.2890 c1        1 507     -0.205000
      7 CAG         3.0360   -1.7770   -1.0440 c1        1 507     -0.018000
      8 CAH         0.5470   -0.9890   -3.4750 c1        1 507     -0.130000
      9 CAI        -2.0910    0.6380   -2.9560 c1        1 507     -0.062000
     10 CAJ         3.1580    1.2230    5.2230 c3        1 507     -0.020000
     11 CAK         0.7710    1.4500    4.8310 c3        1 507     -0.020000
     12 CAL         3.2850    0.3190    4.0130 c3        1 507     -0.208000
     13 CAM         0.8700    0.5480    3.6170 c3        1 507     -0.208000
     14 NAN         1.7350   -1.5460   -3.1970 n2        1 507     -0.113000
     15 NAO         0.8940   -0.4590    0.0490 n1        1 507     -0.114000
     16 NAP         2.2080   -0.9320    2.2260 n3        1 507     -0.261000
     17 OAQ         2.0680    2.4230    5.0230 os        1 507     -0.270000
     18 CAR        -4.1600    1.6540   -3.9520 c2        1 507      0.268000
     19 CAS        -3.3510    0.4570   -3.5050 c1        1 507     -0.158000
     20 CAT        -1.3280   -0.4600   -2.5940 c1        1 507     -0.016000
     21 CAU         1.9370   -0.8270    0.8380 c1        1 507      0.082000
     22 CAV         0.0270   -0.4910   -2.3050 c1        1 507     -0.063000
     23 CAW         1.9680   -1.4000   -1.8500 c1        1 507     -0.080000
     24 CAX         2.1800    0.4230    3.1810 c3        1 507      0.007000
     25 NAY         0.9110   -0.7500   -1.3100 n2        1 507     -0.014000
     26 HAA        -6.0980    1.4900   -3.2780 hc        1 507      0.104000
     27 HAAA       -5.6150    3.0090   -3.4180 hc        1 507      0.104000
     28 HAAB       -5.1110    2.1190   -2.1870 hc        1 507      0.104000
     29 HAC        -3.4330   -2.8240   -3.4630 ha        1 507      0.136500
     30 HAD        -4.7340   -0.9520   -4.0800 ha        1 507      0.136500
     31 HAE        -1.2870   -2.5150   -2.5260 ha        1 507      0.151000
     32 HAF         3.7680   -1.7550    0.8560 ha        1 507      0.153000
     33 HAG         3.7990   -2.2460   -1.4320 ha        1 507      0.170000
     34 HAH         0.1370   -0.9230   -4.3590 DU        1 507      0.190000
     35 HAI        -1.7420    1.5400   -2.8240 ha        1 507      0.160000
     36 HAJ         2.8900    0.6810    5.9920 h1        1 507      0.088750
     37 HAJA        4.0320    1.6220    5.4080 h1        1 507      0.088750
     38 HAK         0.6770    0.8920    5.6290 h1        1 507      0.088750
     39 HAKA       -0.0280    2.0080    4.7430 h1        1 507      0.088750
     40 HAL         3.3710   -0.6090    4.3150 hc        1 507      0.095750
     41 HALA        4.0880    0.5670    3.5100 hc        1 507      0.095750
     42 HAM         0.3260    0.9250    2.8940 hc        1 507      0.095750
     43 HAMA        0.5240   -0.3390    3.8480 hc        1 507      0.095750
     44 HNAP        2.3790   -1.7470    2.5970 hn        1 507      0.200000
     45 HAX         2.3490    1.1900    2.5950 h1        1 507      0.133000
@<TRIPOS>BOND
     1    1   18 1   
     2    1   26 1   
     3    1   27 1   
     4    1   28 1   
     5    2   18 1   
     6    3    4 1   
     7    3   29 1   
     8    4   30 1   
     9    5   20 1   
    10    5   31 1   
    11    6   21 1   
    12    6   32 1   
    13    7   23 1   
    14    7   33 1   
    15    8   14 1   
    16    8   22 1   
    17    9   19 1   
    18    9   35 1   
    19   10   12 1   
    20   10   17 1   
    21   10   36 1   
    22   10   37 1   
    23   11   13 1   
    24   11   17 1   
    25   11   38 1   
    26   11   39 1   
    27   12   24 1   
    28   12   40 1   
    29   12   41 1   
    30   13   24 1   
    31   13   42 1   
    32   13   43 1   
    33   14   23 1   
    34   15   25 1   
    35   16   21 1   
    36   16   24 1   
    37   16   44 1   
    38   18   19 1   
    39   22   25 1   
    40   24   45 1   
@<TRIPOS>SUBSTRUCTURE
     1 507         1 TEMP              0 ****  ****    0 ROOT
