@<TRIPOS>MOLECULE
507
   45    48     1     0     0
SMALL
bcc


@<TRIPOS>ATOM
      1 CAA         5.7640    2.6020    0.8160 c3        1 507     -0.198100
      2 OAB         5.8240    0.2230    0.9800 o         1 507     -0.535100
      3 CAC         1.8740    2.1130   -0.9590 ca        1 507     -0.149000
      4 CAD         3.1580    2.2480   -0.4390 ca        1 507     -0.089000
      5 CAE         1.2320    0.8750   -0.9530 ca        1 507     -0.079000
      6 CAF        -2.5510   -3.0330    0.1370 cc        1 507     -0.270300
      7 CAG        -1.5020   -3.8670   -0.1020 cd        1 507     -0.017000
      8 CAH         1.9100   -2.8210   -0.5870 cc        1 507      0.011600
      9 CAI         3.1740   -0.1090    0.1040 ca        1 507     -0.061000
     10 CAJ        -4.4600    2.8040    1.1500 c3        1 507      0.127900
     11 CAK        -3.3240    2.7290   -0.9270 c3        1 507      0.127900
     12 CAL        -4.5610    1.2900    1.2210 c3        1 507     -0.130400
     13 CAM        -3.3560    1.2110   -0.9560 c3        1 507     -0.130400
     14 NAN         1.0210   -3.8650   -0.5130 nc        1 507     -0.252600
     15 NAO        -1.1040   -1.0280    0.0080 nd        1 507     -0.552800
     16 OAQ        -4.4150    3.2720   -0.1920 os        1 507     -0.413600
     17 CAR         5.1840    1.2320    0.6540 c         1 507      0.577700
     18 CAS         3.8180    1.1340    0.0960 ca        1 507     -0.176600
     19 CAT         1.8780   -0.2470   -0.4160 ca        1 507     -0.023800
     20 CAU        -2.3260   -1.5850    0.2060 cc        1 507      0.607200
     21 CAV         1.2690   -1.5580   -0.4080 cd        1 507     -0.081300
     22 CAW        -0.2000   -3.2960   -0.2820 cd        1 507     -0.104300
     23 CAX        -3.3680    0.6580    0.4790 c3        1 507      0.200500
     24 NAY        -0.0910   -1.8560   -0.2130 na        1 507      0.209200
     25 HAA         6.7500    2.5450    1.3400 hc        1 507      0.064700
     26 HAAA        5.9180    3.0680   -0.1880 hc        1 507      0.064700
     27 HAAB        5.0730    3.2440    1.4130 hc        1 507      0.064700
     28 HAC         1.3610    2.9890   -1.3830 ha        1 507      0.135000
     29 HAD         3.6500    3.2330   -0.4540 ha        1 507      0.135000
     30 HAE         0.2200    0.7880   -1.3780 ha        1 507      0.147000
     31 HAF        -3.5660   -3.4250    0.2930 ha        1 507      0.154000
     32 HAG        -1.6060   -4.9610   -0.1600 ha        1 507      0.170000
     33 HAH         2.9750   -2.9830   -0.7670 h4        1 507      0.190000
     34 HAI         3.6990   -0.9830    0.5270 ha        1 507      0.161000
     35 HAJA       -3.5530    3.1640    1.7040 h1        1 507      0.051950
     36 HAK        -2.3580    3.0920   -0.4840 h1        1 507      0.051950
     37 HAKA       -3.4530    3.1540   -1.9580 h1        1 507      0.051950
     38 HAL        -4.5640    0.9710    2.2950 hc        1 507      0.058450
     39 HALA       -5.5240    0.9590    0.7540 hc        1 507      0.058450
     40 HAM        -4.2710    0.8690   -1.5040 hc        1 507      0.058450
     41 HAMA       -2.4570    0.8400   -1.5100 hc        1 507      0.058450
     42 HAX        -2.4210    0.9980    0.9970 h1        1 507      0.085700
     43 NAP        -3.4240   -0.7900    0.5710 nh        1 507     -0.818900
     44 HAJ        -5.3810    3.2860    1.5750 h1        1 507      0.051950
     45 HNAP       -4.2940   -1.1760    0.2660 hn        1 507      0.408800
@<TRIPOS>BOND
     1    1   17 1   
     2    1   25 1   
     3    1   26 1   
     4    1   27 1   
     5    2   17 2   
     6    3    4 ar  
     7    3    5 ar  
     8    3   28 1   
     9    4   18 ar  
    10    4   29 1   
    11    5   19 ar  
    12    5   30 1   
    13    6    7 2   
    14    6   20 1   
    15    6   31 1   
    16    7   22 1   
    17    7   32 1   
    18    8   14 1   
    19    8   21 2   
    20    8   33 1   
    21    9   18 ar  
    22    9   19 ar  
    23    9   34 1   
    24   10   12 1   
    25   10   16 1   
    26   10   35 1   
    27   10   44 1   
    28   11   13 1   
    29   11   16 1   
    30   11   36 1   
    31   11   37 1   
    32   12   23 1   
    33   12   38 1   
    34   12   39 1   
    35   13   23 1   
    36   13   40 1   
    37   13   41 1   
    38   14   22 2   
    39   15   20 2   
    40   15   24 1   
    41   17   18 1   
    42   19   21 1   
    43   20   43 1   
    44   21   24 1   
    45   22   24 1   
    46   23   42 1   
    47   23   43 1   
    48   43   45 1   
@<TRIPOS>SUBSTRUCTURE
     1 507         1 TEMP              0 ****  ****    0 ROOT
