@<TRIPOS>MOLECULE
507
   45    44     1     0     0
SMALL
bcc


@<TRIPOS>ATOM
      1 CAA         0.0450   -0.4640    1.8140 c3        1 507     -0.267000
      2 OAB         1.2990    0.9980    3.2300 o         1 507     -0.288000
      3 CAC         5.3510   -2.3030    0.0180 c1        1 507     -0.177000
      4 CAD         2.4730   -2.1050    2.0290 c2        1 507     -0.131000
      5 CAE         5.1330   -1.3820    0.7530 c1        1 507     -0.143000
      6 CAF         8.1530   -0.5870    5.2070 c2        1 507     -0.086000
      7 CAG         8.7990   -0.6740    4.0290 c2        1 507     -0.130000
      8 CAH         6.2990    1.5210    0.8260 c1        1 507      0.268000
      9 CAI         3.7590   -0.0070    2.2550 c2        1 507     -0.035000
     10 CAJ         4.7350    2.2950    8.7500 c3        1 507     -0.014000
     11 CAK         3.1270    0.5540    7.9860 c2        1 507     -0.180000
     12 CAL         4.5710    0.8930    8.1490 c3        1 507     -0.108000
     13 CAM         2.5340   -0.4500    8.6270 c2        1 507     -0.201000
     14 NAN         8.8670   -0.1620    1.6770 n2        1 507     -0.273000
     15 NAO         6.2390    0.4990    4.1320 n2        1 507     -0.050000
     16 OAQ         4.3520    2.3260   10.1090 oh        1 507     -0.319000
     17 CAR         1.2920    0.0080    2.4910 c2        1 507      0.262000
     18 CAS         2.5280   -0.7790    2.2230 c2        1 507     -0.158000
     19 CAT         4.9100   -0.2870    1.6070 c2        1 507      0.013000
     20 CAU         6.8250    0.0450    5.2450 c2        1 507     -0.040000
     21 CAV         6.0840    0.6160    1.7920 c2        1 507     -0.247000
     22 CAW         8.2050   -0.1300    2.7850 c2        1 507      0.114000
     23 CAX         5.2280    0.8830    6.7880 c2        1 507     -0.019000
     24 NAY         6.8920    0.4940    2.9750 na        1 507     -0.143000
     25 HAA         0.2580   -0.7480    0.7560 hc        1 507      0.106667
     26 HAAA       -0.3560   -1.3580    2.3540 hc        1 507      0.106667
     27 HAAB       -0.7330    0.3380    1.8300 hc        1 507      0.106667
     28 HAC         1.5260   -2.6610    2.0380 ha        1 507      0.129500
     29 HAD         5.5470   -3.1150   -0.6350 ha        1 507      0.230000
     30 HAE         3.3760   -2.7110    1.8660 ha        1 507      0.129500
     31 HAF         9.7800   -1.1650    3.9270 ha        1 507      0.169000
     32 HAG         8.5730   -0.9870    6.1420 ha        1 507      0.166000
     33 HAH         8.4250    0.1900    0.8540 hn        1 507      0.161000
     34 HAI         3.7060    0.9050    2.8860 ha        1 507      0.172000
     35 HAJA        4.1390    3.0420    8.1610 h1        1 507      0.091000
     36 HAK         3.4420    2.0070   10.1560 ho        1 507      0.202000
     37 HAKA        2.5710    1.2020    7.2870 ha        1 507      0.130000
     38 HAL         5.2130   -1.8910   10.0810 ha        1 507      0.001000
     39 HALA        5.0610    0.1550    8.8490 hc        1 507      0.133000
     40 HAM         5.0780   -1.4700   10.5940 ha        1 507      0.001000
     41 HAMA        1.4680   -0.6770    8.4950 ha        1 507      0.118500
     42 HAX         3.0710   -1.1130    9.3210 ha        1 507      0.118500
     43 NAP         6.1980    0.0790    6.5180 n2        1 507     -0.137000
     44 HAJ         5.8180    2.5930    8.7550 h1        1 507      0.091000
     45 HNAP        4.7850    1.6220    6.0850 h4        1 507      0.126000
@<TRIPOS>BOND
     1    1   17 1   
     2    1   25 1   
     3    1   26 1   
     4    1   27 1   
     5    2   17 1   
     6    3    5 1   
     7    3   29 1   
     8    4   18 1   
     9    4   28 1   
    10    4   30 1   
    11    5   19 1   
    12    6    7 1   
    13    6   20 1   
    14    6   32 1   
    15    7   22 1   
    16    7   31 1   
    17    8   21 1   
    18    9   18 1   
    19    9   19 1   
    20    9   34 1   
    21   10   12 1   
    22   10   16 1   
    23   10   35 1   
    24   10   44 1   
    25   11   12 1   
    26   11   13 1   
    27   11   37 1   
    28   12   23 1   
    29   12   39 1   
    30   13   41 1   
    31   13   42 1   
    32   14   22 1   
    33   14   33 1   
    34   15   20 1   
    35   15   24 1   
    36   16   36 1   
    37   17   18 1   
    38   19   21 1   
    39   20   43 1   
    40   21   24 1   
    41   22   24 1   
    42   23   43 1   
    43   23   45 1   
    44   38   40 1   
@<TRIPOS>SUBSTRUCTURE
     1 507         1 TEMP              0 ****  ****    0 ROOT
