@<TRIPOS>MOLECULE
507
   46    46     1     0     0
SMALL
bcc


@<TRIPOS>ATOM
      1 CAA         0.6240   -0.8260   -0.8920 c3        1 507     -0.267000
      2 OAB         2.9370   -1.2890   -1.2960 o         1 507     -0.266000
      3 CAC         2.8610    1.7730    3.9020 c1        1 507     -0.179000
      4 CAD         1.6840    1.3870    0.6820 c2        1 507     -0.073000
      5 CAE         3.5320    1.2360    3.0670 c1        1 507     -0.143000
      6 CAF         8.4720    0.8080    5.4910 c3        1 507     -0.107000
      7 CAG         8.7880    0.2140    4.1960 c1        1 507     -0.161000
      8 CAH         6.6320   -0.3200    1.3410 c1        1 507     -0.025000
      9 CAI         3.8360    0.1950    0.8660 c2        1 507      0.092000
     10 CAJ         5.0590   -1.0860    8.8700 c3        1 507     -0.127000
     11 CAK         4.8410   -3.3650    9.6790 c1        1 507      0.048000
     12 CAL         5.9820   -0.5060    7.8060 c3        1 507     -0.294000
     13 CAM         3.7690   -3.1230   10.6460 c3        1 507     -0.323000
     14 NAN         7.8280   -0.4150    1.9270 n3        1 507     -0.081000
     15 NAO         6.0780    1.0920    4.6660 n2        1 507     -0.007000
     16 OAQ         5.3960   -2.5080    8.9180 os        1 507     -0.095000
     17 CAR         2.0890   -0.6430   -0.6740 c2        1 507      0.260000
     18 CAS         2.4970    0.3690    0.3490 c2        1 507     -0.205000
     19 CAT         4.3140    0.5970    2.0880 c2        1 507     -0.059000
     20 CAU         7.0020    1.2080    5.6090 c2        1 507     -0.155000
     21 CAV         5.6960    0.3260    2.3690 c2        1 507      0.113000
     22 CAW         7.8430    0.0920    3.2530 c2        1 507     -0.170000
     23 CAX         6.1480    0.9200    7.9810 c1        1 507      0.136000
     24 NAY         6.4330    0.5570    3.4970 n3        1 507     -0.079000
     25 HAA         0.0790   -0.8600    0.0820 hc        1 507      0.114667
     26 HAAA        0.2260    0.0230   -1.5020 hc        1 507      0.114667
     27 HAAB        0.4340   -1.7770   -1.4480 hc        1 507      0.114667
     28 HAC         0.6870    1.5110    0.2330 ha        1 507      0.139500
     29 HAD         2.2470    2.2500    4.6250 ha        1 507      0.233000
     30 HAE         1.9770    2.1670    1.4010 ha        1 507      0.139500
     31 HAF         9.1200    1.7210    5.6300 hc        1 507      0.147000
     32 HAG         8.7280    0.0690    6.3010 hc        1 507      0.147000
     33 HAH         8.6620   -0.7900    1.5290 hn        1 507      0.305000
     34 HAI         4.5310   -0.3480    0.1770 ha        1 507      0.211000
     35 HAK         3.1060    0.1740   10.4090 ha        1 507      0.000500
     36 HAKA        2.6530    0.2460   10.9080 ha        1 507      0.000500
     37 HAL         5.6530   -0.8490    6.7830 hc        1 507      0.187000
     38 HALA        7.0150   -0.9770    7.9570 hc        1 507      0.187000
     39 HAM         2.9010   -3.7840   10.3820 hc        1 507      0.122667
     40 HAMA        4.1320   -3.4420   11.6590 hc        1 507      0.122667
     41 HAX         3.4160   -2.0620   10.7030 hc        1 507      0.122667
     42 HAJ         3.9860   -0.9720    8.5790 h1        1 507      0.113000
     43 NAP         6.5680    1.7900    6.9060 n4        1 507     -0.048000
     44 HAJA        5.2420   -0.6290    9.8740 h1        1 507      0.113000
     45 HNAP        7.3690    2.3340    7.2780 hn        1 507      0.289500
     46 HAP2        5.7810    2.4590    6.7830 hn        1 507      0.289500
@<TRIPOS>BOND
     1    1   17 1   
     2    1   25 1   
     3    1   26 1   
     4    1   27 1   
     5    2   17 1   
     6    3    5 1   
     7    3   29 1   
     8    4   18 1   
     9    4   28 1   
    10    4   30 1   
    11    5   19 1   
    12    6    7 1   
    13    6   20 1   
    14    6   31 1   
    15    6   32 1   
    16    7   22 1   
    17    8   14 1   
    18    8   21 1   
    19    9   18 1   
    20    9   19 1   
    21    9   34 1   
    22   10   12 1   
    23   10   16 1   
    24   10   42 1   
    25   10   44 1   
    26   11   13 1   
    27   11   16 1   
    28   12   23 1   
    29   12   37 1   
    30   12   38 1   
    31   13   39 1   
    32   13   40 1   
    33   13   41 1   
    34   14   22 1   
    35   14   33 1   
    36   15   20 1   
    37   15   24 1   
    38   17   18 1   
    39   19   21 1   
    40   20   43 1   
    41   21   24 1   
    42   22   24 1   
    43   23   43 1   
    44   35   36 1   
    45   43   45 1   
    46   43   46 1   
@<TRIPOS>SUBSTRUCTURE
     1 507         1 TEMP              0 ****  ****    0 ROOT
