@<TRIPOS>MOLECULE
508
   68    65     1     0     0
SMALL
bcc


@<TRIPOS>ATOM
      1 C           2.6820   -1.0990   -1.0240 c3        1 508     -0.016000
      2 C1          3.7600   -1.5630   -0.0380 c3        1 508     -0.091000
      3 N           3.1820   -1.7070    1.0470 n3        1 508     -0.260000
      4 C2          1.7150   -2.0540    0.7270 c3        1 508     -0.094000
      5 C3          1.3490   -1.3110   -0.3140 c3        1 508     -0.144000
      6 C4          0.7040    0.1250    0.0940 c1        1 508      0.299000
      7 O           1.4470    1.0670    0.4470 o         1 508     -0.332000
      8 N5         -0.7750    0.3500   -0.0520 n2        1 508     -0.287000
      9 C6         -1.7270   -0.7260   -0.4610 c3        1 508     -0.052000
     10 C7         -2.8910   -0.8570    0.5020 c3        1 508     -0.187000
     11 C8         -3.5600    0.4520    0.7560 c3        1 508     -0.065000
     12 C9         -2.5650    1.5290    1.1690 c3        1 508     -0.181000
     13 C10        -1.4060    1.6360    0.2020 c3        1 508      0.041000
     14 C11        -4.6120    0.2740    1.8890 c1        1 508     -0.071000
     15 C12        -5.9830    0.4700    1.6130 c1        1 508     -0.129250
     16 C13        -6.9220    0.2550    2.5960 c1        1 508     -0.129250
     17 C14        -6.5190   -0.1590    3.8700 c1        1 508     -0.129250
     18 C15        -5.1470   -0.3550    4.1500 c1        1 508     -0.129250
     19 C16        -4.2070   -0.1400    3.1650 c1        1 508     -0.124000
     20 C17         2.8510    0.3040   -1.2490 c3        1 508     -0.159000
     21 C18         3.8160    0.7020   -2.2710 c3        1 508     -0.153000
     22 C19         3.6540    0.1230   -3.5390 c3        1 508     -0.124000
     23 C20         3.1660   -1.4010   -3.5560 c2        1 508     -0.053000
     24 C21         2.7290   -2.0050   -2.2590 c2        1 508     -0.058000
     25 C22         3.2890   -2.2010   -4.6830 c1        1 508     -0.132000
     26 C23         3.0000   -3.5910   -4.6010 c1        1 508     -0.129250
     27 C24         2.5760   -4.1750   -3.3400 c1        1 508     -0.129250
     28 C25         2.4490   -3.3630   -2.1870 c1        1 508     -0.136000
     29 C26        -0.3650    2.5810    0.7880 c2        1 508     -0.083000
     30 C27         0.0070    3.7110    0.0960 c2        1 508     -0.116000
     31 C28         0.8100    4.6930    0.7280 c1        1 508     -0.141000
     32 C29         1.2190    4.5130    2.0410 c1        1 508     -0.129250
     33 C30         0.8450    3.3800    2.7310 c1        1 508     -0.129250
     34 C31         0.0510    2.4070    2.1100 c1        1 508     -0.094000
     35 H1          4.4740   -0.8780    0.0390 h1        1 508      0.102500
     36 H2          4.1450   -2.4280   -0.3360 h1        1 508      0.102500
     37 H3          3.5740   -2.4100    1.5250 hn        1 508      0.140000
     38 H5          1.1510   -1.8570    1.4930 h1        1 508      0.099500
     39 H6          1.6460   -2.9550    0.5050 h1        1 508      0.099500
     40 H7          0.6380   -1.7100   -0.7960 hc        1 508      0.117000
     41 H8         -1.2500   -1.5730   -0.4910 h1        1 508      0.095000
     42 H9         -2.1000   -0.5090   -1.4210 h1        1 508      0.095000
     43 H10        -2.5540   -1.2220    1.3690 hc        1 508      0.093500
     44 H11        -3.5190   -1.4570    0.1410 hc        1 508      0.093500
     45 H12        -4.0660    0.7670   -0.1450 hc        1 508      0.091000
     46 H13        -3.0150    2.3740    1.2070 hc        1 508      0.104500
     47 H14        -2.2120    1.3120    2.0710 hc        1 508      0.104500
     48 H15        -1.7420    2.0120   -0.6620 h1        1 508      0.098000
     49 H16        -6.2750    0.7680    0.6960 ha        1 508      0.131000
     50 H17        -7.8740    0.3900    2.4030 ha        1 508      0.131000
     51 H18        -7.1860   -0.3110    4.5670 ha        1 508      0.131000
     52 H19        -4.8630   -0.6480    5.0500 ha        1 508      0.131000
     53 H20        -3.2300   -0.2800    3.3630 ha        1 508      0.136000
     54 H21         3.1200    0.7220   -0.3960 hc        1 508      0.105500
     55 H22         2.0080    0.6550   -1.4960 hc        1 508      0.105500
     56 H23         4.6910    0.4340   -1.9480 hc        1 508      0.085000
     57 H24         3.7290    1.6440   -2.3830 hc        1 508      0.085000
     58 H25         2.9040    0.6950   -4.0480 hc        1 508      0.091000
     59 H26         4.5290    0.1490   -3.9810 hc        1 508      0.091000
     60 H27         3.5830   -1.7940   -5.5640 ha        1 508      0.131000
     61 H28         3.0890   -4.1630   -5.4030 ha        1 508      0.131000
     62 H29         2.3700   -5.1710   -3.2850 ha        1 508      0.131000
     63 H30         2.1630   -3.7560   -1.3460 ha        1 508      0.123000
     64 H31        -0.2780    3.8330   -0.8200 ha        1 508      0.133000
     65 H32         1.0780    5.5030    0.2360 ha        1 508      0.129000
     66 H33         1.7700    5.1870    2.4760 ha        1 508      0.131000
     67 H34         1.1160    3.2630    3.5950 ha        1 508      0.131000
     68 H35        -0.2330    1.5520    2.6370 ha        1 508      0.150000
@<TRIPOS>BOND
     1    1    2 1   
     2    1    5 1   
     3    1   20 1   
     4    1   24 1   
     5    2    3 1   
     6    2   35 1   
     7    2   36 1   
     8    3    4 1   
     9    3   37 1   
    10    4    5 1   
    11    4   38 1   
    12    4   39 1   
    13    5    6 1   
    14    5   40 1   
    15    6    7 1   
    16    8    9 1   
    17    8   13 1   
    18    9   10 1   
    19    9   41 1   
    20    9   42 1   
    21   10   11 1   
    22   10   43 1   
    23   10   44 1   
    24   11   12 1   
    25   11   14 1   
    26   11   45 1   
    27   12   13 1   
    28   12   46 1   
    29   12   47 1   
    30   13   29 1   
    31   13   48 1   
    32   14   19 1   
    33   15   16 1   
    34   15   49 1   
    35   16   50 1   
    36   17   18 1   
    37   17   51 1   
    38   18   52 1   
    39   19   53 1   
    40   20   21 1   
    41   20   54 1   
    42   20   55 1   
    43   21   22 1   
    44   21   56 1   
    45   21   57 1   
    46   22   23 1   
    47   22   58 1   
    48   22   59 1   
    49   23   24 1   
    50   23   25 1   
    51   24   28 1   
    52   25   60 1   
    53   26   27 1   
    54   26   61 1   
    55   27   62 1   
    56   28   63 1   
    57   29   30 1   
    58   29   34 1   
    59   30   31 1   
    60   30   64 1   
    61   31   65 1   
    62   32   33 1   
    63   32   66 1   
    64   33   67 1   
    65   34   68 1   
@<TRIPOS>SUBSTRUCTURE
     1 508         1 TEMP              0 ****  ****    0 ROOT
