@<TRIPOS>MOLECULE
508
   68    73     1     0     0
SMALL
bcc


@<TRIPOS>ATOM
      1 C           0.0350    0.2150   -0.3750 c3        1 508     -0.017700
      2 C1          1.5810    0.4150   -0.5420 c3        1 508      0.148800
      3 N           2.2500    0.1130    0.7150 n3        1 508     -0.781200
      4 C2          1.2560    0.2590    1.7710 c3        1 508      0.143800
      5 C3         -0.1610    0.0810    1.1600 c3        1 508     -0.157700
      6 C4         -1.1090    1.1080    1.7640 c         1 508      0.660100
      7 O          -0.7570    2.2870    1.9380 o         1 508     -0.572100
      8 N5         -2.3670    0.6420    2.2230 n         1 508     -0.454800
      9 C6         -3.1590   -0.0910    1.2510 c3        1 508      0.077000
     10 C7         -4.3940   -0.7700    1.8310 c3        1 508     -0.077400
     11 C8         -5.2520    0.2590    2.5530 c3        1 508     -0.023400
     12 C9         -4.4200    0.9040    3.6490 c3        1 508     -0.074400
     13 C10        -3.1210    1.5360    3.1080 c3        1 508      0.139000
     14 C11        -6.4970   -0.3560    3.1070 ca        1 508     -0.076300
     15 C12        -7.7500    0.1060    2.6850 ca        1 508     -0.125500
     16 C13        -8.9180   -0.4600    3.1940 ca        1 508     -0.128500
     17 C14        -8.8470   -1.4930    4.1280 ca        1 508     -0.130000
     18 C15        -7.6020   -1.9580    4.5520 ca        1 508     -0.128500
     19 C16        -6.4330   -1.3930    4.0450 ca        1 508     -0.125500
     20 C17        -0.7030    1.4330   -0.9170 c3        1 508     -0.076400
     21 C18        -0.6880    1.4630   -2.4280 c3        1 508     -0.077400
     22 C19        -1.4560    0.2780   -2.9730 c3        1 508     -0.038100
     23 C20        -1.0590   -1.0010   -2.3210 ca        1 508     -0.066300
     24 C21        -0.3620   -1.0410   -1.1010 ca        1 508     -0.072300
     25 C22        -1.3980   -2.1990   -2.9680 ca        1 508     -0.132000
     26 C23        -1.0360   -3.4280   -2.4290 ca        1 508     -0.126000
     27 C24        -0.3130   -3.4720   -1.2370 ca        1 508     -0.132000
     28 C25         0.0240   -2.2890   -0.5880 ca        1 508     -0.134000
     29 C26        -2.3190    1.9720    4.3160 ca        1 508     -0.083300
     30 C27        -2.1690    3.3360    4.5890 ca        1 508     -0.108500
     31 C28        -1.4780    3.7490    5.7270 ca        1 508     -0.134000
     32 C29        -0.9310    2.8060    6.5960 ca        1 508     -0.126000
     33 C30        -1.0720    1.4460    6.3230 ca        1 508     -0.134000
     34 C31        -1.7650    1.0290    5.1880 ca        1 508     -0.108500
     35 H1          1.7930    1.4930   -0.7860 h1        1 508      0.061700
     36 H2          1.9760   -0.2180   -1.3790 h1        1 508      0.061700
     37 H3          2.5990   -0.8290    0.7000 hn        1 508      0.343800
     38 H5          1.4220   -0.4800    2.5970 h1        1 508      0.069700
     39 H6          1.3630    1.2980    2.1940 h1        1 508      0.069700
     40 H7         -0.5260   -0.9510    1.4120 hc        1 508      0.076700
     41 H8         -3.5050    0.6090    0.4300 h1        1 508      0.043200
     42 H9         -2.5050   -0.8750    0.7730 h1        1 508      0.043200
     43 H10        -4.0980   -1.5870    2.5380 hc        1 508      0.055700
     44 H11        -4.9690   -1.2350    0.9890 hc        1 508      0.055700
     45 H12        -5.5410    1.0580    1.8100 hc        1 508      0.053700
     46 H13        -4.1670    0.1360    4.4260 hc        1 508      0.058700
     47 H14        -5.0080    1.7160    4.1480 hc        1 508      0.058700
     48 H15        -3.4060    2.4630    2.5180 h1        1 508      0.044700
     49 H16        -7.8140    0.9220    1.9490 ha        1 508      0.132000
     50 H17        -9.8970   -0.0890    2.8570 ha        1 508      0.131000
     51 H18        -9.7680   -1.9380    4.5290 ha        1 508      0.131000
     52 H19        -7.5420   -2.7720    5.2900 ha        1 508      0.131000
     53 H20        -5.4550   -1.7640    4.3850 ha        1 508      0.132000
     54 H21        -0.2380    2.3660   -0.5000 hc        1 508      0.058200
     55 H22        -1.7710    1.4080   -0.5690 hc        1 508      0.058200
     56 H23         0.3700    1.4380   -2.7990 hc        1 508      0.048200
     57 H24        -1.1530    2.4150   -2.7950 hc        1 508      0.048200
     58 H25        -1.2940    0.2020   -4.0820 hc        1 508      0.051200
     59 H26        -2.5570    0.4370   -2.8090 hc        1 508      0.051200
     60 H27        -1.9520   -2.1580   -3.9170 ha        1 508      0.132000
     61 H28        -1.3100   -4.3600   -2.9440 ha        1 508      0.133000
     62 H29        -0.0060   -4.4390   -0.8120 ha        1 508      0.133000
     63 H30         0.6170   -2.3380    0.3400 ha        1 508      0.128000
     64 H31        -2.5800    4.0840    3.8950 ha        1 508      0.134500
     65 H32        -1.3610    4.8230    5.9350 ha        1 508      0.129500
     66 H33        -0.3850    3.1350    7.4920 ha        1 508      0.129000
     67 H34        -0.6360    0.7000    7.0030 ha        1 508      0.129500
     68 H35        -1.8730   -0.0450    4.9740 ha        1 508      0.134500
@<TRIPOS>BOND
     1    1    2 1   
     2    1    5 1   
     3    1   20 1   
     4    1   24 1   
     5    2    3 1   
     6    2   35 1   
     7    2   36 1   
     8    3    4 1   
     9    3   37 1   
    10    4    5 1   
    11    4   38 1   
    12    4   39 1   
    13    5    6 1   
    14    5   40 1   
    15    6    7 2   
    16    6    8 1   
    17    8    9 1   
    18    8   13 1   
    19    9   10 1   
    20    9   41 1   
    21    9   42 1   
    22   10   11 1   
    23   10   43 1   
    24   10   44 1   
    25   11   12 1   
    26   11   14 1   
    27   11   45 1   
    28   12   13 1   
    29   12   46 1   
    30   12   47 1   
    31   13   29 1   
    32   13   48 1   
    33   14   15 ar  
    34   14   19 ar  
    35   15   16 ar  
    36   15   49 1   
    37   16   17 ar  
    38   16   50 1   
    39   17   18 ar  
    40   17   51 1   
    41   18   19 ar  
    42   18   52 1   
    43   19   53 1   
    44   20   21 1   
    45   20   54 1   
    46   20   55 1   
    47   21   22 1   
    48   21   56 1   
    49   21   57 1   
    50   22   23 1   
    51   22   58 1   
    52   22   59 1   
    53   23   24 ar  
    54   23   25 ar  
    55   24   28 ar  
    56   25   26 ar  
    57   25   60 1   
    58   26   27 ar  
    59   26   61 1   
    60   27   28 ar  
    61   27   62 1   
    62   28   63 1   
    63   29   30 ar  
    64   29   34 ar  
    65   30   31 ar  
    66   30   64 1   
    67   31   32 ar  
    68   31   65 1   
    69   32   33 ar  
    70   32   66 1   
    71   33   34 ar  
    72   33   67 1   
    73   34   68 1   
@<TRIPOS>SUBSTRUCTURE
     1 508         1 TEMP              0 ****  ****    0 ROOT
