@<TRIPOS>MOLECULE
508
   68    73     1     0     0
SMALL
bcc


@<TRIPOS>ATOM
      1 C           0.0350    0.2130   -0.3740 c3        1 508     -0.017700
      2 C1          1.5820    0.4130   -0.5410 c3        1 508      0.148800
      3 N           2.2500    0.1110    0.7170 n7        1 508     -0.781200
      4 C2          1.2560    0.2580    1.7720 c3        1 508      0.143800
      5 C3         -0.1610    0.0800    1.1610 c3        1 508     -0.157700
      6 C4         -1.1090    1.1070    1.7640 c         1 508      0.660100
      7 O          -0.7560    2.2870    1.9370 o         1 508     -0.572100
      8 N5         -2.3680    0.6420    2.2220 n         1 508     -0.454800
      9 C6         -3.1590   -0.0910    1.2510 c3        1 508      0.077000
     10 C7         -4.3950   -0.7690    1.8310 c3        1 508     -0.077400
     11 C8         -5.2520    0.2600    2.5520 c3        1 508     -0.023400
     12 C9         -4.4200    0.9060    3.6470 c3        1 508     -0.074400
     13 C10        -3.1210    1.5380    3.1070 c3        1 508      0.139000
     14 C11        -6.4980   -0.3540    3.1060 ca        1 508     -0.076300
     15 C12        -7.7500    0.1090    2.6840 ca        1 508     -0.125500
     16 C13        -8.9180   -0.4570    3.1930 ca        1 508     -0.128500
     17 C14        -8.8480   -1.4890    4.1280 ca        1 508     -0.130000
     18 C15        -7.6040   -1.9540    4.5530 ca        1 508     -0.128500
     19 C16        -6.4350   -1.3900    4.0460 ca        1 508     -0.125500
     20 C17        -0.7030    1.4310   -0.9180 c3        1 508     -0.076400
     21 C18        -0.6870    1.4590   -2.4290 c3        1 508     -0.077400
     22 C19        -1.4540    0.2740   -2.9730 c3        1 508     -0.038100
     23 C20        -1.0580   -1.0050   -2.3200 ca        1 508     -0.066300
     24 C21        -0.3610   -1.0430   -1.1000 ca        1 508     -0.072300
     25 C22        -1.3960   -2.2030   -2.9660 ca        1 508     -0.132000
     26 C23        -1.0350   -3.4320   -2.4260 ca        1 508     -0.126000
     27 C24        -0.3130   -3.4750   -1.2340 ca        1 508     -0.132000
     28 C25         0.0250   -2.2910   -0.5850 ca        1 508     -0.134000
     29 C26        -2.3200    1.9740    4.3140 ca        1 508     -0.083300
     30 C27        -2.1680    3.3380    4.5860 ca        1 508     -0.108500
     31 C28        -1.4780    3.7520    5.7250 ca        1 508     -0.134000
     32 C29        -0.9310    2.8100    6.5950 ca        1 508     -0.126000
     33 C30        -1.0730    1.4490    6.3220 ca        1 508     -0.134000
     34 C31        -1.7660    1.0310    5.1870 ca        1 508     -0.108500
     35 H1          1.9770   -0.2210   -1.3780 h1        1 508      0.061700
     36 H2          1.7940    1.4900   -0.7850 h1        1 508      0.061700
     37 H3          2.5990   -0.8310    0.7020 hn        1 508      0.343800
     38 H5          1.4210   -0.4810    2.5980 h1        1 508      0.069700
     39 H6          1.3630    1.2970    2.1950 h1        1 508      0.069700
     40 H7         -0.5270   -0.9520    1.4130 hc        1 508      0.076700
     41 H8         -3.5050    0.6080    0.4300 h1        1 508      0.043200
     42 H9         -2.5050   -0.8760    0.7740 h1        1 508      0.043200
     43 H10        -4.9700   -1.2350    0.9900 hc        1 508      0.055700
     44 H11        -4.0990   -1.5860    2.5390 hc        1 508      0.055700
     45 H12        -5.5410    1.0600    1.8090 hc        1 508      0.053700
     46 H13        -4.1680    0.1390    4.4260 hc        1 508      0.058700
     47 H14        -5.0090    1.7190    4.1460 hc        1 508      0.058700
     48 H15        -3.4060    2.4640    2.5160 h1        1 508      0.044700
     49 H16        -7.8150    0.9230    1.9480 ha        1 508      0.132000
     50 H17        -9.8980   -0.0860    2.8550 ha        1 508      0.131000
     51 H18        -9.7700   -1.9340    4.5290 ha        1 508      0.131000
     52 H19        -7.5440   -2.7670    5.2910 ha        1 508      0.131000
     53 H20        -5.4560   -1.7610    4.3860 ha        1 508      0.132000
     54 H21        -0.2370    2.3640   -0.5010 hc        1 508      0.058200
     55 H22        -1.7710    1.4060   -0.5710 hc        1 508      0.058200
     56 H23        -1.1520    2.4110   -2.7960 hc        1 508      0.048200
     57 H24         0.3720    1.4350   -2.7990 hc        1 508      0.048200
     58 H25        -1.2910    0.1970   -4.0820 hc        1 508      0.051200
     59 H26        -2.5550    0.4330   -2.8100 hc        1 508      0.051200
     60 H27        -1.9500   -2.1620   -3.9160 ha        1 508      0.132000
     61 H28        -1.3090   -4.3640   -2.9410 ha        1 508      0.133000
     62 H29        -0.0060   -4.4410   -0.8080 ha        1 508      0.133000
     63 H30         0.6160   -2.3390    0.3430 ha        1 508      0.128000
     64 H31        -2.5790    4.0860    3.8910 ha        1 508      0.134500
     65 H32        -1.3610    4.8260    5.9320 ha        1 508      0.129500
     66 H33        -0.3850    3.1390    7.4900 ha        1 508      0.129000
     67 H34        -0.6380    0.7040    7.0030 ha        1 508      0.129500
     68 H35        -1.8740   -0.0430    4.9740 ha        1 508      0.134500
@<TRIPOS>BOND
     1    1    2 1   
     2    1    5 1   
     3    1   20 1   
     4    1   24 1   
     5    2    3 1   
     6    2   35 1   
     7    2   36 1   
     8    3    4 1   
     9    3   37 1   
    10    4    5 1   
    11    4   38 1   
    12    4   39 1   
    13    5    6 1   
    14    5   40 1   
    15    6    7 2   
    16    6    8 1   
    17    8    9 1   
    18    8   13 1   
    19    9   10 1   
    20    9   41 1   
    21    9   42 1   
    22   10   11 1   
    23   10   43 1   
    24   10   44 1   
    25   11   12 1   
    26   11   14 1   
    27   11   45 1   
    28   12   13 1   
    29   12   46 1   
    30   12   47 1   
    31   13   29 1   
    32   13   48 1   
    33   14   15 ar  
    34   14   19 ar  
    35   15   16 ar  
    36   15   49 1   
    37   16   17 ar  
    38   16   50 1   
    39   17   18 ar  
    40   17   51 1   
    41   18   19 ar  
    42   18   52 1   
    43   19   53 1   
    44   20   21 1   
    45   20   54 1   
    46   20   55 1   
    47   21   22 1   
    48   21   56 1   
    49   21   57 1   
    50   22   23 1   
    51   22   58 1   
    52   22   59 1   
    53   23   24 ar  
    54   23   25 ar  
    55   24   28 ar  
    56   25   26 ar  
    57   25   60 1   
    58   26   27 ar  
    59   26   61 1   
    60   27   28 ar  
    61   27   62 1   
    62   28   63 1   
    63   29   30 ar  
    64   29   34 ar  
    65   30   31 ar  
    66   30   64 1   
    67   31   32 ar  
    68   31   65 1   
    69   32   33 ar  
    70   32   66 1   
    71   33   34 ar  
    72   33   67 1   
    73   34   68 1   
@<TRIPOS>SUBSTRUCTURE
     1 508         1 TEMP              0 ****  ****    0 ROOT
