@<TRIPOS>MOLECULE
508
   68    73     1     0     0
SMALL
bcc


@<TRIPOS>ATOM
      1 C          -3.1930   -0.0390    0.1240 c3        1 508     -0.015700
      2 C1         -4.4150    0.8940   -0.1880 c3        1 508      0.148800
      3 N          -3.9610    2.0630   -0.9300 n3        1 508     -0.785200
      4 C2         -2.6910    1.7070   -1.5470 c3        1 508      0.152800
      5 C3         -2.0360    0.5630   -0.7240 c3        1 508     -0.158700
      6 C4         -0.9140    1.1670    0.1130 c         1 508      0.656100
      7 O          -1.0970    2.2300    0.7350 o         1 508     -0.585100
      8 N5          0.3610    0.5580    0.0570 n         1 508     -0.452800
      9 C6          0.3970   -0.8690    0.3220 c3        1 508      0.079000
     10 C7          1.7390   -1.5310    0.0300 c3        1 508     -0.078400
     11 C8          2.8420   -0.8130    0.7940 c3        1 508     -0.023400
     12 C9          2.8550    0.6460    0.3700 c3        1 508     -0.075400
     13 C10         1.4910    1.3340    0.5800 c3        1 508      0.140000
     14 C11         4.1730   -1.4560    0.5710 ca        1 508     -0.077300
     15 C12         4.8880   -1.9740    1.6580 ca        1 508     -0.125000
     16 C13         6.1290   -2.5770    1.4620 ca        1 508     -0.128500
     17 C14         6.6690   -2.6690    0.1800 ca        1 508     -0.130000
     18 C15         5.9630   -2.1550   -0.9070 ca        1 508     -0.128500
     19 C16         4.7220   -1.5520   -0.7140 ca        1 508     -0.125000
     20 C17        -2.8710    0.0190    1.6130 c3        1 508     -0.079400
     21 C18        -3.8290   -0.8120    2.4350 c3        1 508     -0.076400
     22 C19        -3.7000   -2.2720    2.0600 c3        1 508     -0.037100
     23 C20        -3.7530   -2.4780    0.5870 ca        1 508     -0.066300
     24 C21        -3.5170   -1.4360   -0.3240 ca        1 508     -0.070300
     25 C22        -4.0540   -3.7630    0.1110 ca        1 508     -0.133000
     26 C23        -4.1400   -4.0160   -1.2540 ca        1 508     -0.126000
     27 C24        -3.9370   -2.9760   -2.1620 ca        1 508     -0.133000
     28 C25        -3.6350   -1.7000   -1.6980 ca        1 508     -0.128000
     29 C26         1.6010    2.7040   -0.0520 ca        1 508     -0.083300
     30 C27         1.6430    3.8400    0.7640 ca        1 508     -0.109000
     31 C28         1.7990    5.1040    0.1980 ca        1 508     -0.134000
     32 C29         1.9090    5.2440   -1.1850 ca        1 508     -0.126000
     33 C30         1.8600    4.1150   -2.0030 ca        1 508     -0.134000
     34 C31         1.7080    2.8490   -1.4400 ca        1 508     -0.109000
     35 H1         -5.1480    0.3440   -0.8400 h1        1 508      0.058700
     36 H2         -4.9390    1.1900    0.7580 h1        1 508      0.058700
     37 H3         -3.8260    2.8380   -0.3040 hn        1 508      0.360800
     38 H5         -2.9050    1.3290   -2.5850 h1        1 508      0.062200
     39 H6         -2.0130    2.5960   -1.6250 h1        1 508      0.062200
     40 H7         -1.6270   -0.2040   -1.4300 hc        1 508      0.084700
     41 H8          0.1480   -1.0630    1.4090 h1        1 508      0.042700
     42 H9         -0.3940   -1.3720   -0.3030 h1        1 508      0.042700
     43 H10         1.6790   -2.6040    0.3470 hc        1 508      0.056700
     44 H11         1.9570   -1.5090   -1.0690 hc        1 508      0.056700
     45 H12         2.5950   -0.8610    1.8940 hc        1 508      0.053700
     46 H13         3.6140    1.2120    0.9700 hc        1 508      0.059200
     47 H14         3.1480    0.7180   -0.7100 hc        1 508      0.059200
     48 H15         1.3390    1.4690    1.6970 h1        1 508      0.044700
     49 H16         4.4690   -1.9050    2.6730 ha        1 508      0.132000
     50 H17         6.6830   -2.9800    2.3220 ha        1 508      0.131500
     51 H18         7.6490   -3.1440    0.0260 ha        1 508      0.132000
     52 H19         6.3860   -2.2240   -1.9200 ha        1 508      0.131500
     53 H20         4.1700   -1.1470   -1.5760 ha        1 508      0.132000
     54 H21        -1.8290   -0.3650    1.7860 hc        1 508      0.054700
     55 H22        -2.8950    1.0890    1.9540 hc        1 508      0.054700
     56 H23        -3.6020   -0.6810    3.5260 hc        1 508      0.047200
     57 H24        -4.8820   -0.4660    2.2660 hc        1 508      0.047200
     58 H25        -2.7230   -2.6750    2.4450 hc        1 508      0.050700
     59 H26        -4.5180   -2.8610    2.5550 hc        1 508      0.050700
     60 H27        -4.2290   -4.5760    0.8320 ha        1 508      0.131000
     61 H28        -4.3750   -5.0280   -1.6150 ha        1 508      0.132000
     62 H29        -4.0210   -3.1630   -3.2420 ha        1 508      0.133000
     63 H30        -3.5000   -0.8790   -2.4200 ha        1 508      0.137000
     64 H31         1.5350    3.7370    1.8550 ha        1 508      0.135000
     65 H32         1.8300    5.9930    0.8450 ha        1 508      0.130000
     66 H33         2.0310    6.2420   -1.6310 ha        1 508      0.129000
     67 H34         1.9420    4.2220   -3.0940 ha        1 508      0.130000
     68 H35         1.6680    1.9600   -2.0880 ha        1 508      0.135000
@<TRIPOS>BOND
     1    1    2 1   
     2    1    5 1   
     3    1   20 1   
     4    1   24 1   
     5    2    3 1   
     6    2   35 1   
     7    2   36 1   
     8    3    4 1   
     9    3   37 1   
    10    4    5 1   
    11    4   38 1   
    12    4   39 1   
    13    5    6 1   
    14    5   40 1   
    15    6    7 2   
    16    6    8 1   
    17    8    9 1   
    18    8   13 1   
    19    9   10 1   
    20    9   41 1   
    21    9   42 1   
    22   10   11 1   
    23   10   43 1   
    24   10   44 1   
    25   11   12 1   
    26   11   14 1   
    27   11   45 1   
    28   12   13 1   
    29   12   46 1   
    30   12   47 1   
    31   13   29 1   
    32   13   48 1   
    33   14   15 ar  
    34   14   19 ar  
    35   15   16 ar  
    36   15   49 1   
    37   16   17 ar  
    38   16   50 1   
    39   17   18 ar  
    40   17   51 1   
    41   18   19 ar  
    42   18   52 1   
    43   19   53 1   
    44   20   21 1   
    45   20   54 1   
    46   20   55 1   
    47   21   22 1   
    48   21   56 1   
    49   21   57 1   
    50   22   23 1   
    51   22   58 1   
    52   22   59 1   
    53   23   24 ar  
    54   23   25 ar  
    55   24   28 ar  
    56   25   26 ar  
    57   25   60 1   
    58   26   27 ar  
    59   26   61 1   
    60   27   28 ar  
    61   27   62 1   
    62   28   63 1   
    63   29   30 ar  
    64   29   34 ar  
    65   30   31 ar  
    66   30   64 1   
    67   31   32 ar  
    68   31   65 1   
    69   32   33 ar  
    70   32   66 1   
    71   33   34 ar  
    72   33   67 1   
    73   34   68 1   
@<TRIPOS>SUBSTRUCTURE
     1 508         1 TEMP              0 ****  ****    0 ROOT
