@<TRIPOS>MOLECULE
508
   68    73     1     0     0
SMALL
bcc


@<TRIPOS>ATOM
      1 C           0.0290    0.2290   -0.3770 c3        1 508     -0.017700
      2 C1          1.5750    0.4360   -0.5470 c3        1 508      0.148800
      3 N           2.2470    0.1350    0.7090 n3        1 508     -0.781200
      4 C2          1.2540    0.2760    1.7670 c3        1 508      0.143800
      5 C3         -0.1630    0.0920    1.1580 c3        1 508     -0.157700
      6 C4         -1.1150    1.1140    1.7650 c         1 508      0.660100
      7 O          -0.7670    2.2950    1.9400 o         1 508     -0.572100
      8 N5         -2.3700    0.6420    2.2250 n         1 508     -0.454800
      9 C6         -3.1600   -0.0930    1.2540 c3        1 508      0.077000
     10 C7         -4.3920   -0.7780    1.8360 c3        1 508     -0.077400
     11 C8         -5.2520    0.2460    2.5610 c3        1 508     -0.023400
     12 C9         -4.4210    0.8940    3.6550 c3        1 508     -0.074400
     13 C10        -3.1260    1.5320    3.1130 c3        1 508      0.139000
     14 C11        -6.4930   -0.3750    3.1160 ca        1 508     -0.076300
     15 C12        -7.7490    0.0820    2.6980 ca        1 508     -0.125500
     16 C13        -8.9140   -0.4890    3.2080 ca        1 508     -0.128500
     17 C14        -8.8360   -1.5230    4.1410 ca        1 508     -0.130000
     18 C15        -7.5890   -1.9830    4.5620 ca        1 508     -0.128500
     19 C16        -6.4240   -1.4130    4.0540 ca        1 508     -0.125500
     20 C17        -0.7150    1.4440   -0.9170 c3        1 508     -0.076400
     21 C18        -0.7030    1.4760   -2.4280 c3        1 508     -0.077400
     22 C19        -1.4650    0.2880   -2.9720 c3        1 508     -0.038100
     23 C20        -1.0620   -0.9900   -2.3230 ca        1 508     -0.066300
     24 C21        -0.3630   -1.0280   -1.1040 ca        1 508     -0.072300
     25 C22        -1.3960   -2.1880   -2.9700 ca        1 508     -0.132000
     26 C23        -1.0280   -3.4170   -2.4340 ca        1 508     -0.126000
     27 C24        -0.3030   -3.4590   -1.2430 ca        1 508     -0.132000
     28 C25         0.0300   -2.2750   -0.5930 ca        1 508     -0.134000
     29 C26        -2.3240    1.9700    4.3200 ca        1 508     -0.083300
     30 C27        -2.1790    3.3340    4.5940 ca        1 508     -0.108500
     31 C28        -1.4880    3.7500    5.7320 ca        1 508     -0.134000
     32 C29        -0.9350    2.8090    6.5990 ca        1 508     -0.126000
     33 C30        -1.0710    1.4480    6.3240 ca        1 508     -0.134000
     34 C31        -1.7640    1.0280    5.1900 ca        1 508     -0.108500
     35 H1          1.7810    1.5150   -0.7890 h1        1 508      0.061700
     36 H2          1.9710   -0.1940   -1.3850 h1        1 508      0.061700
     37 H3          2.6010   -0.8050    0.6930 hn        1 508      0.343800
     38 H5          1.4240   -0.4640    2.5920 h1        1 508      0.069700
     39 H6          1.3570    1.3140    2.1910 h1        1 508      0.069700
     40 H7         -0.5230   -0.9420    1.4100 hc        1 508      0.076700
     41 H8         -2.5030   -0.8740    0.7750 h1        1 508      0.043200
     42 H9         -3.5110    0.6060    0.4350 h1        1 508      0.043200
     43 H10        -4.0900   -1.5950    2.5420 hc        1 508      0.055700
     44 H11        -4.9660   -1.2450    0.9950 hc        1 508      0.055700
     45 H12        -5.5460    1.0450    1.8190 hc        1 508      0.053700
     46 H13        -5.0120    1.7030    4.1570 hc        1 508      0.058700
     47 H14        -4.1630    0.1270    4.4320 hc        1 508      0.058700
     48 H15        -3.4170    2.4580    2.5250 h1        1 508      0.044700
     49 H16        -7.8190    0.8980    1.9620 ha        1 508      0.132000
     50 H17        -9.8950   -0.1230    2.8730 ha        1 508      0.131000
     51 H18        -9.7550   -1.9730    4.5430 ha        1 508      0.131000
     52 H19        -7.5240   -2.7970    5.2990 ha        1 508      0.131000
     53 H20        -5.4430   -1.7790    4.3920 ha        1 508      0.132000
     54 H21        -1.7820    1.4140   -0.5670 hc        1 508      0.058200
     55 H22        -0.2530    2.3780   -0.4990 hc        1 508      0.058200
     56 H23        -1.1730    2.4260   -2.7920 hc        1 508      0.048200
     57 H24         0.3550    1.4560   -2.8000 hc        1 508      0.048200
     58 H25        -2.5670    0.4410   -2.8070 hc        1 508      0.051200
     59 H26        -1.3050    0.2140   -4.0820 hc        1 508      0.051200
     60 H27        -1.9530   -2.1490   -3.9190 ha        1 508      0.132000
     61 H28        -1.2990   -4.3500   -2.9500 ha        1 508      0.133000
     62 H29         0.0090   -4.4250   -0.8200 ha        1 508      0.133000
     63 H30         0.6240   -2.3220    0.3340 ha        1 508      0.128000
     64 H31        -2.5950    4.0820    3.9010 ha        1 508      0.134500
     65 H32        -1.3750    4.8240    5.9410 ha        1 508      0.129500
     66 H33        -0.3880    3.1380    7.4940 ha        1 508      0.129000
     67 H34        -0.6300    0.7030    7.0030 ha        1 508      0.129500
     68 H35        -1.8680   -0.0460    4.9750 ha        1 508      0.134500
@<TRIPOS>BOND
     1    1    2 1   
     2    1    5 1   
     3    1   20 1   
     4    1   24 1   
     5    2    3 1   
     6    2   35 1   
     7    2   36 1   
     8    3    4 1   
     9    3   37 1   
    10    4    5 1   
    11    4   38 1   
    12    4   39 1   
    13    5    6 1   
    14    5   40 1   
    15    6    7 2   
    16    6    8 1   
    17    8    9 1   
    18    8   13 1   
    19    9   10 1   
    20    9   41 1   
    21    9   42 1   
    22   10   11 1   
    23   10   43 1   
    24   10   44 1   
    25   11   12 1   
    26   11   14 1   
    27   11   45 1   
    28   12   13 1   
    29   12   46 1   
    30   12   47 1   
    31   13   29 1   
    32   13   48 1   
    33   14   15 ar  
    34   14   19 ar  
    35   15   16 ar  
    36   15   49 1   
    37   16   17 ar  
    38   16   50 1   
    39   17   18 ar  
    40   17   51 1   
    41   18   19 ar  
    42   18   52 1   
    43   19   53 1   
    44   20   21 1   
    45   20   54 1   
    46   20   55 1   
    47   21   22 1   
    48   21   56 1   
    49   21   57 1   
    50   22   23 1   
    51   22   58 1   
    52   22   59 1   
    53   23   24 ar  
    54   23   25 ar  
    55   24   28 ar  
    56   25   26 ar  
    57   25   60 1   
    58   26   27 ar  
    59   26   61 1   
    60   27   28 ar  
    61   27   62 1   
    62   28   63 1   
    63   29   30 ar  
    64   29   34 ar  
    65   30   31 ar  
    66   30   64 1   
    67   31   32 ar  
    68   31   65 1   
    69   32   33 ar  
    70   32   66 1   
    71   33   34 ar  
    72   33   67 1   
    73   34   68 1   
@<TRIPOS>SUBSTRUCTURE
     1 508         1 TEMP              0 ****  ****    0 ROOT
