@<TRIPOS>MOLECULE
509
   27    28     1     0     0
SMALL
bcc


@<TRIPOS>ATOM
      1 C1         -5.6590   -0.0090   -0.1900 ca        1 509     -0.165000
      2 C2         -5.0360    0.9560    0.6000 ca        1 509     -0.141000
      3 C3         -3.6510    1.0940    0.5790 ca        1 509     -0.126500
      4 C4         -2.8610    0.2660   -0.2380 ca        1 509      0.057000
      5 C5         -3.5000   -0.6990   -1.0350 ca        1 509     -0.126500
      6 C6         -4.8860   -0.8340   -1.0060 ca        1 509     -0.141000
      7 C7         -1.4290    0.4360   -0.2710 cc        1 509     -0.153100
      8 C8         -0.4480   -0.5410   -0.1320 cd        1 509     -0.044900
      9 C9          0.8830    0.0170   -0.2440 cd        1 509      0.138100
     10 C10         0.8400    1.3870   -0.4590 cc        1 509     -0.171700
     11 S1         -0.7380    1.9420   -0.4980 ss        1 509      0.025200
     12 C11         1.9420    2.4060   -0.6730 c         1 509      0.939200
     13 O1          2.5500    2.4030   -1.7770 o         1 509     -0.818800
     14 O2          2.1340    3.2580    0.2410 o         1 509     -0.818800
     15 O3          1.9320   -0.8440   -0.1230 os        1 509     -0.287900
     16 C12         3.2510   -0.2700   -0.1650 c3        1 509      0.005400
     17 C13         4.2400   -1.4290    0.1130 c         1 509      0.917600
     18 O4          4.6780   -1.5650    1.2920 o         1 509     -0.851800
     19 O5          4.6110   -2.1510   -0.8550 o         1 509     -0.851800
     20 BR1        -0.8140   -2.3310    0.2040 br        1 509     -0.103100
     21 H1         -6.7510   -0.1190   -0.1700 ha        1 509      0.104000
     22 H2         -5.6390    1.6090    1.2460 ha        1 509      0.109500
     23 H3         -3.1600    1.8530    1.2080 ha        1 509      0.144000
     24 H5         -2.8930   -1.3470   -1.6850 ha        1 509      0.144000
     25 H6         -5.3710   -1.5960   -1.6330 ha        1 509      0.109500
     26 H121        3.3320    0.5240    0.6200 h1        1 509      0.054200
     27 H122        3.4210    0.1750   -1.1780 h1        1 509      0.054200
@<TRIPOS>BOND
     1    1    2 ar  
     2    1    6 ar  
     3    1   21 1   
     4    2    3 ar  
     5    2   22 1   
     6    3    4 ar  
     7    3   23 1   
     8    4    5 ar  
     9    4    7 1   
    10    5    6 ar  
    11    5   24 1   
    12    6   25 1   
    13    7    8 2   
    14    7   11 1   
    15    8    9 1   
    16    8   20 1   
    17    9   10 2   
    18    9   15 1   
    19   10   11 1   
    20   10   12 1   
    21   12   13 1   
    22   12   14 1   
    23   15   16 1   
    24   16   17 1   
    25   16   26 1   
    26   16   27 1   
    27   17   18 1   
    28   17   19 1   
@<TRIPOS>SUBSTRUCTURE
     1 509         1 TEMP              0 ****  ****    0 ROOT
