@<TRIPOS>MOLECULE
509
   27    21     1     0     0
SMALL
bcc


@<TRIPOS>ATOM
      1 C1         -2.0740    0.8070   -4.2790 c1        1 509     -0.083750
      2 C2         -2.3960    1.6240   -3.2070 c1        1 509     -0.083750
      3 C3         -1.7290    1.4800   -2.0010 c1        1 509     -0.083750
      4 C4         -0.7390    0.5190   -1.8660 c1        1 509      0.057000
      5 C5         -0.4170   -0.2980   -2.9380 c1        1 509     -0.077500
      6 C6         -1.0840   -0.1540   -4.1440 c1        1 509     -0.083750
      7 C7         -0.0190    0.4280   -0.6850 c1        1 509     -0.196900
      8 C8         -0.4980   -0.1360    0.5630 cg        1 509     -0.046000
      9 C9          0.6320    0.0630    1.6680 cg        1 509     -0.046000
     10 C10         1.7570    0.7420    1.0520 c1        1 509     -0.196900
     11 S1          1.4030    0.9980   -0.4370 ss        1 509      0.114800
     12 C11         3.0160    1.1950    1.7570 c1        1 509      0.855000
     13 O1          4.0670    0.5050    1.6740 o         1 509     -0.787000
     14 O2          3.0240    2.2800    2.3960 o         1 509     -0.787000
     15 O3          0.5520   -0.3450    3.0100 o         1 509     -0.332500
     16 C12         0.7330   -1.7290    3.1970 c3        1 509      0.095100
     17 C13         0.8420   -2.0280    4.6750 c         1 509      0.917600
     18 O4          1.9220   -2.4710    5.1500 o         1 509     -0.851800
     19 O5         -0.1440   -1.8300    5.4320 o         1 509     -0.851800
     20 BR1        -2.1940   -0.9760    0.8350 br        1 509      0.037000
     21 H1         -2.5440    0.9080   -5.1280 ha        1 509      0.060250
     22 H2         -3.0940    2.3010   -3.3020 ha        1 509      0.060250
     23 H3         -1.9560    2.0560   -1.2460 ha        1 509      0.060250
     24 H5          0.2800   -0.9750   -2.8440 ha        1 509      0.082500
     25 H6         -0.8600   -0.7330   -4.8980 ha        1 509      0.060250
     26 H121        1.5540   -2.0150    2.7440 h1        1 509      0.054200
     27 H122       -0.0320   -2.2120    2.8210 h1        1 509      0.054200
@<TRIPOS>BOND
     1    1    6 3   
     2    1   21 1   
     3    2    3 3   
     4    2   22 1   
     5    3   23 1   
     6    4    5 3   
     7    5   24 1   
     8    6   25 1   
     9    7    8 3   
    10    7   11 1   
    11    8    9 1   
    12    9   10 3   
    13   10   11 1   
    14   12   13 2   
    15   12   14 2   
    16   15   16 1   
    17   16   17 1   
    18   16   26 1   
    19   16   27 1   
    20   17   18 1   
    21   17   19 1   
@<TRIPOS>SUBSTRUCTURE
     1 509         1 TEMP              0 ****  ****    0 ROOT
