@<TRIPOS>MOLECULE
509
   27    28     1     0     0
SMALL
bcc


@<TRIPOS>ATOM
      1 C1          0.2550   -0.0060   -0.2740 ca        1 509     -0.165000
      2 C2          1.6090    0.2050   -0.0150 ca        1 509     -0.141000
      3 C3          2.0840    0.1970    1.2940 ca        1 509     -0.126500
      4 C4          1.2080   -0.0250    2.3720 ca        1 509      0.057000
      5 C5         -0.1530   -0.2420    2.0980 ca        1 509     -0.126500
      6 C6         -0.6220   -0.2290    0.7870 ca        1 509     -0.141000
      7 C7          1.7160   -0.0570    3.7210 cc        1 509     -0.153100
      8 C8          1.2330    0.6250    4.8330 cd        1 509     -0.044900
      9 C9          1.9990    0.3180    6.0240 cd        1 509      0.138100
     10 C10         3.0220   -0.5780    5.7490 cc        1 509     -0.171700
     11 S1          3.0430   -0.9910    4.1280 ss        1 509      0.025200
     12 C11         4.0600   -1.2230    6.6460 c         1 509      0.939200
     13 O1          3.6830   -2.1300    7.4360 o         1 509     -0.818800
     14 O2          5.2640   -0.8720    6.4910 o         1 509     -0.818800
     15 O3          1.6220    0.9290    7.1810 os        1 509     -0.287900
     16 C12         2.4300    0.6720    8.3440 c3        1 509      0.005400
     17 C13         1.8650    1.5670    9.4750 c         1 509      0.917600
     18 O4          2.4430    2.6680    9.7040 o         1 509     -0.851800
     19 O5          0.8910    1.1360   10.1560 o         1 509     -0.851800
     20 Br1        -0.1900    1.8180    4.7760 br        1 509     -0.103100
     21 H1         -0.1180    0.0050   -1.3060 ha        1 509      0.104000
     22 H2          2.3050    0.3830   -0.8470 ha        1 509      0.109500
     23 H3          3.1520    0.3690    1.4970 ha        1 509      0.144000
     24 H5         -0.8470   -0.4250    2.9330 ha        1 509      0.144000
     25 H6         -1.6900   -0.3970    0.5900 ha        1 509      0.109500
     26 H121        2.3530   -0.4130    8.6080 h1        1 509      0.054200
     27 H122        3.4940    0.9350    8.1180 h1        1 509      0.054200
@<TRIPOS>BOND
     1    1    2 ar  
     2    1    6 ar  
     3    1   21 1   
     4    2    3 ar  
     5    2   22 1   
     6    3    4 ar  
     7    3   23 1   
     8    4    5 ar  
     9    4    7 1   
    10    5    6 ar  
    11    5   24 1   
    12    6   25 1   
    13    7    8 2   
    14    7   11 1   
    15    8    9 1   
    16    8   20 1   
    17    9   10 2   
    18    9   15 1   
    19   10   11 1   
    20   10   12 1   
    21   12   13 1   
    22   12   14 1   
    23   15   16 1   
    24   16   17 1   
    25   16   26 1   
    26   16   27 1   
    27   17   18 1   
    28   17   19 1   
@<TRIPOS>SUBSTRUCTURE
     1 509         1 TEMP              0 ****  ****    0 ROOT
