@<TRIPOS>MOLECULE
509
   27    28     1     0     0
SMALL
bcc


@<TRIPOS>ATOM
      1 C1          0.2940    0.0440   -0.2870 ca        1 509     -0.165000
      2 C2          1.6430    0.2690   -0.0150 ca        1 509     -0.141000
      3 C3          2.1080    0.2470    1.2980 ca        1 509     -0.126500
      4 C4          1.2270   -0.0010    2.3650 ca        1 509      0.057000
      5 C5         -0.1290   -0.2320    2.0780 ca        1 509     -0.126500
      6 C6         -0.5880   -0.2050    0.7640 ca        1 509     -0.141000
      7 C7          1.7240   -0.0470    3.7180 cc        1 509     -0.153100
      8 C8          1.2240    0.6130    4.8360 cd        1 509     -0.044900
      9 C9          1.9840    0.2990    6.0280 cd        1 509      0.138100
     10 C10         3.0210   -0.5800    5.7490 cc        1 509     -0.171700
     11 S1          3.0590   -0.9700    4.1230 ss        1 509      0.025200
     12 C11         4.0600   -1.2260    6.6450 c         1 509      0.939200
     13 O1          3.6870   -2.1470    7.4210 o         1 509     -0.818800
     14 O2          5.2610   -0.8600    6.5030 o         1 509     -0.818800
     15 O3          1.5900    0.8880    7.1920 os        1 509     -0.287900
     16 C12         2.3930    0.6260    8.3560 c3        1 509      0.005400
     17 C13         1.8090    1.4990    9.4950 c         1 509      0.917600
     18 O4          2.3720    2.6040    9.7430 o         1 509     -0.851800
     19 O5          0.8370    1.0470   10.1640 o         1 509     -0.851800
     20 BR1        -0.2130    1.7890    4.7850 br        1 509     -0.103100
     21 H1         -0.0710    0.0650   -1.3220 ha        1 509      0.104000
     22 H2          2.3440    0.4670   -0.8380 ha        1 509      0.109500
     23 H3          3.1720    0.4300    1.5120 ha        1 509      0.144000
     24 H5         -0.8270   -0.4350    2.9050 ha        1 509      0.144000
     25 H6         -1.6520   -0.3840    0.5550 ha        1 509      0.109500
     26 H121        2.3280   -0.4640    8.6050 h1        1 509      0.054200
     27 H122        3.4560    0.9050    8.1420 h1        1 509      0.054200
@<TRIPOS>BOND
     1    1    2 ar  
     2    1    6 ar  
     3    1   21 1   
     4    2    3 ar  
     5    2   22 1   
     6    3    4 ar  
     7    3   23 1   
     8    4    5 ar  
     9    4    7 1   
    10    5    6 ar  
    11    5   24 1   
    12    6   25 1   
    13    7    8 2   
    14    7   11 1   
    15    8    9 1   
    16    8   20 1   
    17    9   10 2   
    18    9   15 1   
    19   10   11 1   
    20   10   12 1   
    21   12   13 1   
    22   12   14 1   
    23   15   16 1   
    24   16   17 1   
    25   16   26 1   
    26   16   27 1   
    27   17   18 1   
    28   17   19 1   
@<TRIPOS>SUBSTRUCTURE
     1 509         1 TEMP              0 ****  ****    0 ROOT
