@<TRIPOS>MOLECULE
50A
   22    21     1     0     0
SMALL
bcc


@<TRIPOS>ATOM
      1 O1         -2.8970   -1.5910   -0.5130 oh        1 50A     -0.366000
      2 P           3.0500    1.7590   -1.2310 p3        1 50A      2.525000
      3 C1         -1.5060   -1.5910   -0.5130 c3        1 50A      0.120000
      4 C2         -1.0490   -1.5910    0.7200 c3        1 50A     -0.012000
      5 F2         -1.9660   -2.1840    1.5650 f         1 50A     -0.172000
      6 C3         -0.8450   -0.0410    1.1240 c3        1 50A      0.025000
      7 O3         -2.0860    0.5250    1.5400 oh        1 50A     -0.388000
      8 C4         -0.3990    0.5860    0.0090 c3        1 50A     -0.050000
      9 O4         -0.9500   -0.2390   -1.1650 os        1 50A     -0.313000
     10 C5          1.1070    0.5940   -0.0190 c3        1 50A      0.087000
     11 O5          1.5520    1.2590   -1.1780 o         1 50A     -0.723000
     12 OP1         3.9750    0.6140   -0.8950 o         1 50A     -1.252000
     13 OP2         3.3620    2.2670   -2.6180 o         1 50A     -1.252000
     14 OP3         3.2450    2.8730   -0.2310 o         1 50A     -1.252000
     15 HO1        -3.1930   -1.9590   -1.2650 ho        1 50A      0.214000
     16 H1         -1.1670   -2.3660   -1.0000 h2        1 50A      0.104000
     17 H2         -0.1970   -2.0650    0.7630 h1        1 50A      0.077000
     18 H3         -0.1840    0.0360    1.8390 h1        1 50A      0.151000
     19 HO3        -1.9920    0.8840    2.3460 ho        1 50A      0.300000
     20 H4         -0.7440    1.4980   -0.0270 h1        1 50A      0.100000
     21 H5          1.4450    1.0560    0.7720 h1        1 50A      0.039000
     22 H5A         1.4370   -0.3250   -0.0240 h1        1 50A      0.039000
@<TRIPOS>BOND
     1    1    3 1   
     2    1   15 1   
     3    2   12 1   
     4    2   13 1   
     5    2   14 1   
     6    3    4 1   
     7    3    9 1   
     8    3   16 1   
     9    4    5 1   
    10    4    6 1   
    11    4   17 1   
    12    6    7 1   
    13    6    8 1   
    14    6   18 1   
    15    7   19 1   
    16    8    9 1   
    17    8   10 1   
    18    8   20 1   
    19   10   11 1   
    20   10   21 1   
    21   10   22 1   
@<TRIPOS>SUBSTRUCTURE
     1 50A         1 TEMP              0 ****  ****    0 ROOT
