@<TRIPOS>MOLECULE
50A
   22    22     1     0     0
SMALL
bcc


@<TRIPOS>ATOM
      1 O1         -3.9690    1.2470   -0.0190 oh        1 50A     -0.639800
      2 P           2.1820   -1.1780   -0.2500 p5        1 50A      1.327900
      3 C1         -2.8380    0.9980   -0.8220 c3        1 50A      0.303900
      4 C2         -2.5640   -0.5230   -1.0160 c3        1 50A      0.105600
      5 F2         -3.6550   -1.2780   -0.6290 f         1 50A     -0.247300
      6 C3         -1.2790   -0.7970   -0.1980 c3        1 50A      0.100100
      7 O3         -1.5650   -1.6720    0.8670 oh        1 50A     -0.657800
      8 C4         -0.8170    0.5800    0.3210 c3        1 50A      0.062100
      9 O4         -1.7570    1.5830   -0.1340 os        1 50A     -0.459600
     10 C5          0.5940    0.9400   -0.2080 c3        1 50A      0.216400
     11 O5          1.5690    0.2770    0.4850 os        1 50A     -0.565200
     12 OP1         2.0780   -0.8600   -1.7170 o         1 50A     -0.929500
     13 OP2         3.5490   -1.3140    0.3440 o         1 50A     -0.929500
     14 OP3         1.1140   -2.1450    0.2220 o         1 50A     -0.929500
     15 HO1        -3.8220    0.7960    0.8220 ho        1 50A      0.413000
     16 H1         -3.0110    1.5540   -1.7790 h2        1 50A      0.064700
     17 H2         -2.3640   -0.7280   -2.1040 h1        1 50A      0.051700
     18 H3         -0.4460   -1.2440   -0.8360 h1        1 50A      0.159700
     19 HO3        -0.7190   -2.1450    1.0320 ho        1 50A      0.487000
     20 H4         -0.8360    0.6090    1.4410 h1        1 50A      0.055700
     21 H5          0.6460    0.7080   -1.3100 h1        1 50A      0.004700
     22 H5A         0.7200    2.0530   -0.0600 h1        1 50A      0.004700
@<TRIPOS>BOND
     1    1    3 1   
     2    1   15 1   
     3    2   11 1   
     4    2   12 1   
     5    2   13 1   
     6    2   14 1   
     7    3    4 1   
     8    3    9 1   
     9    3   16 1   
    10    4    5 1   
    11    4    6 1   
    12    4   17 1   
    13    6    7 1   
    14    6    8 1   
    15    6   18 1   
    16    7   19 1   
    17    8    9 1   
    18    8   10 1   
    19    8   20 1   
    20   10   11 1   
    21   10   21 1   
    22   10   22 1   
@<TRIPOS>SUBSTRUCTURE
     1 50A         1 TEMP              0 ****  ****    0 ROOT
