@<TRIPOS>MOLECULE
50D
   58    59     1     0     0
SMALL
bcc


@<TRIPOS>ATOM
      1 C4          0.0000    0.0000    0.0000 c2        1 50D     -0.070000
      2 C14        -4.0630   -0.2050   -0.0470 c2        1 50D     -0.007000
      3 C5          1.3910    0.0000    0.0000 c2        1 50D     -0.179000
      4 C6          2.0650    0.0000    1.2230 c2        1 50D      0.095000
      5 C11        -2.7450   -0.2080   -2.4350 c2        1 50D     -0.263000
      6 C7          3.4960   -0.0010    1.2730 c1        1 50D     -0.107000
      7 C10        -2.0750   -0.1020   -1.2230 c2        1 50D      0.000000
      8 C12        -4.1260   -0.3160   -2.4370 c2        1 50D      0.020000
      9 C13        -4.7940   -0.3150   -1.2230 c2        1 50D     -0.184000
     10 N3         -0.6770    0.0010    1.1380 n2        1 50D     -0.031000
     11 C1          1.3040    0.0010    2.4000 c2        1 50D     -0.179000
     12 C2         -0.0720    0.0000    2.3100 c2        1 50D     -0.022000
     13 N8          4.6320    0.0180    1.3090 n1        1 50D     -0.036000
     14 N9         -0.6870    0.0070   -1.2110 nu        1 50D      0.180000
     15 N15        -2.7420   -0.1030   -0.0780 n2        1 50D     -0.092000
     16 N16        -4.6530   -0.1900    1.3210 nh        1 50D      0.058000
     17 C17        -5.5370    0.9870    1.5520 c3        1 50D     -0.227000
     18 C18        -5.9350    0.6290    3.0520 c3        1 50D     -0.164000
     19 C19        -4.6760    0.2350    3.3860 c2        1 50D      0.368000
     20 C20        -3.7840   -0.2170    2.4080 c3        1 50D     -0.140000
     21 F21        -4.1170    1.1170    4.2960 f         1 50D     -0.133000
     22 F22        -5.2340   -1.1210    4.4040 f         1 50D     -0.353000
     23 C23        -4.8200   -0.4280   -3.7140 c2        1 50D     -0.207000
     24 C24        -4.4490    0.6350   -4.4890 c3        1 50D     -0.086000
     25 C25        -5.0840    0.4380   -5.5180 c3        1 50D     -0.100000
     26 N26        -4.6440   -0.8350   -6.5300 n3        1 50D     -0.127000
     27 C27        -4.7070   -1.8310   -5.6600 c3        1 50D     -0.023000
     28 C28        -4.0760   -2.0010   -4.6110 c2        1 50D     -0.095000
     29 C29        -5.4340   -0.8180   -7.7690 c3        1 50D      0.047000
     30 C30        -4.8740    0.1270   -8.8500 c3        1 50D      0.094000
     31 O31        -5.9790    0.9710   -8.8050 o         1 50D     -0.529000
     32 C32        -5.0830   -1.9580   -8.7450 c2        1 50D     -0.071000
     33 H1          1.8030   -0.1830   -0.9850 ha        1 50D      0.127000
     34 H3         -5.8740   -0.2700   -1.1420 ha        1 50D      0.124000
     35 H4          1.9390   -0.1010    3.2720 ha        1 50D      0.129000
     36 H5         -0.5380    0.0670    3.2860 h4        1 50D      0.124000
     37 H6         -0.1100    0.4440   -1.9010 hn        1 50D      0.084000
     38 H7         -5.7230    1.9370    1.0670 h1        1 50D      0.086500
     39 H8         -6.5680    0.6740    1.4420 h1        1 50D      0.086500
     40 H9         -6.3900    1.5570    3.3770 hc        1 50D      0.111000
     41 H10        -6.8810    0.1100    2.9540 hc        1 50D      0.111000
     42 H11        -3.5410   -1.2620    2.5630 h1        1 50D      0.126000
     43 H12        -2.9210    0.4280    2.2980 h1        1 50D      0.126000
     44 H13        -5.8810   -0.6440   -3.6760 ha        1 50D      0.104000
     45 H14        -4.9820    1.3550   -3.8790 hc        1 50D      0.081500
     46 H15        -3.4640    1.0740   -4.5970 hc        1 50D      0.081500
     47 H16        -6.1300    0.6750   -5.6690 h1        1 50D      0.065500
     48 H17        -4.6610    1.1980   -6.1640 h1        1 50D      0.065500
     49 H19        -5.7680   -2.0320   -5.7510 h1        1 50D      0.044500
     50 H20        -4.1370   -2.6040   -6.1600 h1        1 50D      0.044500
     51 H21        -3.1440   -1.6450   -4.1890 ha        1 50D      0.113500
     52 H22        -4.5950   -2.6510   -3.9170 ha        1 50D      0.113500
     53 H23        -6.4960   -0.7040   -7.5930 h1        1 50D      0.135000
     54 H24        -4.1270    0.4110   -8.1180 h1        1 50D      0.096000
     55 H25        -4.6340   -0.1420   -9.8720 h1        1 50D      0.096000
     56 H26        -4.9950   -1.5690   -9.7520 ha        1 50D      0.074500
     57 H27        -4.2110   -2.5980   -8.6930 ha        1 50D      0.074500
     58 H2         -2.4910    0.4820   -3.2300 ha        1 50D      0.135000
@<TRIPOS>BOND
     1    1    3 1   
     2    1   10 1   
     3    1   14 1   
     4    2    9 1   
     5    2   15 1   
     6    2   16 1   
     7    3    4 1   
     8    3   33 1   
     9    4    6 1   
    10    4   11 1   
    11    5    7 1   
    12    5    8 1   
    13    5   58 1   
    14    6   13 1   
    15    7   14 1   
    16    7   15 1   
    17    8    9 1   
    18    8   23 1   
    19    9   34 1   
    20   10   12 1   
    21   11   12 1   
    22   11   35 1   
    23   12   36 1   
    24   14   37 1   
    25   16   17 1   
    26   16   20 1   
    27   17   18 1   
    28   17   38 1   
    29   17   39 1   
    30   18   19 1   
    31   18   40 1   
    32   18   41 1   
    33   19   20 1   
    34   19   21 1   
    35   20   42 1   
    36   20   43 1   
    37   23   24 1   
    38   23   44 1   
    39   24   25 1   
    40   24   45 1   
    41   24   46 1   
    42   25   26 1   
    43   25   47 1   
    44   25   48 1   
    45   26   27 1   
    46   26   29 1   
    47   27   28 1   
    48   27   49 1   
    49   27   50 1   
    50   28   51 1   
    51   28   52 1   
    52   29   30 1   
    53   29   32 1   
    54   29   53 1   
    55   30   31 1   
    56   30   54 1   
    57   30   55 1   
    58   32   56 1   
    59   32   57 1   
@<TRIPOS>SUBSTRUCTURE
     1 50D         1 TEMP              0 ****  ****    0 ROOT
