@<TRIPOS>MOLECULE
50E
   47    49     1     0     0
SMALL
bcc


@<TRIPOS>ATOM
      1 C14         0.5450   -0.8680    0.1200 ca        1 50E      0.432200
      2 C5         -4.3870   -0.0270    2.3630 cc        1 50E     -0.097600
      3 C6         -3.1480    0.4390    1.8960 cd        1 50E     -0.248300
      4 C11         1.4250    0.3570    2.4100 ca        1 50E     -0.256300
      5 C7         -2.2440    0.2860    3.0210 cd        1 50E      0.491200
      6 C10         0.0330    0.1510    2.1420 ca        1 50E      0.639200
      7 C12         2.3540   -0.0730    1.4690 ca        1 50E     -0.093300
      8 C13         1.9300   -0.6980    0.2960 ca        1 50E     -0.249300
      9 C3         -4.8060   -1.9910    5.5540 c3        1 50E     -0.107100
     10 C1         -5.8230    0.2800    5.4230 c3        1 50E     -0.107100
     11 N4         -4.1830   -0.4470    3.6940 na        1 50E      0.103400
     12 N8         -2.9240   -0.2530    4.0980 nc        1 50E     -0.544800
     13 N9         -0.8960    0.6930    3.0560 nh        1 50E     -0.776600
     14 N15        -0.3900   -0.4730    0.9950 nb        1 50E     -0.681000
     15 C16         3.8440    0.1210    1.7350 c3        1 50E      0.684200
     16 F17         4.1510    1.2200    2.4990 f         1 50E     -0.233633
     17 F18         4.4330   -0.9270    2.4010 f         1 50E     -0.233633
     18 F19         4.6080    0.2720    0.6030 f         1 50E     -0.233633
     19 C20        -5.6810   -0.1040    1.6380 c3        1 50E      0.003600
     20 C21        -5.7180    0.8920    0.4840 c3        1 50E     -0.074400
     21 C22        -7.0460    0.7850   -0.2650 c3        1 50E      0.163300
     22 N23        -7.3400   -0.5610   -0.7140 n3        1 50E     -0.821200
     23 C24        -7.2440   -1.5640    0.3280 c3        1 50E      0.163300
     24 C25        -5.9270   -1.5100    1.1000 c3        1 50E     -0.074400
     25 H1          0.1520   -1.3620   -0.7890 h4        1 50E      0.032100
     26 H2         -2.9000    0.8140    0.9100 ha        1 50E      0.179000
     27 H3          1.7580    0.8560    3.3320 ha        1 50E      0.161000
     28 H4          2.6460   -1.0400   -0.4620 ha        1 50E      0.162000
     29 H5         -5.7020   -2.3560    6.1120 hc        1 50E      0.050367
     30 H6         -4.3610   -2.8450    4.9900 hc        1 50E      0.050367
     31 H7         -4.0520   -1.6180    6.2880 hc        1 50E      0.050367
     32 H8         -5.0450    0.7220    6.0910 hc        1 50E      0.050367
     33 H9         -6.2190    1.0820    4.7550 hc        1 50E      0.050367
     34 H10        -6.6590   -0.1070    6.0530 hc        1 50E      0.050367
     35 H11        -6.0640   -1.2870    3.9380 h1        1 50E      0.061700
     36 H12        -0.5200    0.7740    3.9820 hn        1 50E      0.425800
     37 H13        -6.5200    0.1610    2.3480 hc        1 50E      0.051700
     38 H14        -5.6040    1.9350    0.8730 hc        1 50E      0.056700
     39 H15        -4.8680    0.6890   -0.2180 hc        1 50E      0.056700
     40 H16        -7.8600    1.1970    0.4030 h1        1 50E      0.027700
     41 H17        -6.9980    1.4380   -1.1820 h1        1 50E      0.027700
     42 H18        -8.2500   -0.5910   -1.1350 hn        1 50E      0.363800
     43 H20        -7.3300   -2.5710   -0.1710 h1        1 50E      0.027700
     44 H21        -8.0910   -1.4820    1.0740 h1        1 50E      0.027700
     45 H22        -5.9740   -2.2460    1.9420 hc        1 50E      0.056700
     46 H23        -5.0780   -1.8060    0.4310 hc        1 50E      0.056700
     47 C2         -5.2470   -0.8770    4.6070 c3        1 50E      0.072000
@<TRIPOS>BOND
     1    1    8 ar  
     2    1   14 ar  
     3    1   25 1   
     4    2    3 2   
     5    2   11 1   
     6    2   19 1   
     7    3    5 1   
     8    3   26 1   
     9    4    6 ar  
    10    4    7 ar  
    11    4   27 1   
    12    5   12 2   
    13    5   13 1   
    14    6   13 1   
    15    6   14 ar  
    16    7    8 ar  
    17    7   15 1   
    18    8   28 1   
    19    9   29 1   
    20    9   30 1   
    21    9   31 1   
    22    9   47 1   
    23   10   32 1   
    24   10   33 1   
    25   10   34 1   
    26   10   47 1   
    27   11   12 1   
    28   11   47 1   
    29   13   36 1   
    30   15   16 1   
    31   15   17 1   
    32   15   18 1   
    33   19   20 1   
    34   19   24 1   
    35   19   37 1   
    36   20   21 1   
    37   20   38 1   
    38   20   39 1   
    39   21   22 1   
    40   21   40 1   
    41   21   41 1   
    42   22   23 1   
    43   22   42 1   
    44   23   24 1   
    45   23   43 1   
    46   23   44 1   
    47   24   45 1   
    48   24   46 1   
    49   35   47 1   
@<TRIPOS>SUBSTRUCTURE
     1 50E         1 TEMP              0 ****  ****    0 ROOT
