@<TRIPOS>MOLECULE
50E
   47    57     1     0     0
SMALL
bcc


@<TRIPOS>ATOM
      1 C14         0.0000    0.0000    0.0000 c2        1 50E     -0.582000
      2 C5         -4.2820   -0.2400    2.6020 c2        1 50E      0.181000
      3 C6         -2.9850   -0.1120    2.2410 c2        1 50E     -0.420000
      4 C11         1.3250    0.0110    2.3810 c3        1 50E      0.031000
      5 C7         -2.2120   -0.1010    3.4130 c2        1 50E      0.071000
      6 C10        -0.0640    0.0090    2.3080 c2        1 50E      0.241000
      7 C12         2.0610    0.0000    1.2110 c2        1 50E      0.128000
      8 C13         1.3800    0.0000    0.0000 c2        1 50E     -0.030000
      9 C3         -5.4610   -1.7380    5.5820 c3        1 50E     -0.498000
     10 C1         -5.6730    0.7490    5.7000 DU        1 50E     -0.123000
     11 N4         -4.3330   -0.3090    3.9490 na        1 50E      0.298000
     12 N8         -3.0230   -0.2190    4.4380 n2        1 50E     -0.274000
     13 N9         -0.8170    0.0140    3.4770 nu        1 50E     -0.290000
     14 N15        -0.6770    0.0040    1.1330 n2        1 50E      0.484000
     15 C16         3.5670    0.0010    1.2480 c3        1 50E      0.424000
     16 F17         4.0050    0.6710    2.3940 f         1 50E     -0.128333
     17 F18         4.0340   -1.3180    1.2720 f         1 50E     -0.128333
     18 F19         4.0610    0.6490    0.1110 f         1 50E     -0.128333
     19 C20        -5.4620   -0.2920    1.6670 DU        1 50E     -0.083000
     20 C21        -5.2020    0.6180    0.4630 DU        1 50E     -0.379000
     21 C22        -6.3760    0.5150   -0.5130 DU        1 50E     -0.336000
     22 N23        -6.5270   -0.8780   -0.9540 ny        1 50E     -0.207000
     23 C24        -6.8260   -1.7620    0.1800 DU        1 50E     -0.277000
     24 C25        -5.6650   -1.7280    1.1760 c3        1 50E     -0.458000
     25 H1         -0.8190   -0.0840    0.7040 h4        1 50E      0.105000
     26 H2         -2.3250   -0.0820    1.3820 ha        1 50E      0.187000
     27 H3          0.2850   -0.0000    2.0760 hc        1 50E     -0.336000
     28 H4          1.5230    0.0040    1.0740 DU        1 50E     -0.133000
     29 H5         -4.6610   -1.5500    4.8760 hc        1 50E      0.192333
     30 H6         -5.1960   -2.6000    4.9820 hc        1 50E      0.192333
     31 H7         -6.3830   -1.9380    6.1150 hc        1 50E      0.192333
     32 H8         -5.2520   -0.2190    5.9450 DU        1 50E      0.246500
     33 H9         -6.5990    0.7460    6.2630 ha        1 50E      0.104500
     34 H10        -4.8340    0.7750    6.3850 ha        1 50E      0.104500
     35 H11        -5.5970    0.6210    4.9110 DU        1 50E      0.246500
     36 H12        -1.8030   -0.1030    3.6020 hn        1 50E      0.326000
     37 H13        -4.5070   -0.2150    2.1720 ha        1 50E      0.112000
     38 H14        -5.7840    0.3290    1.3290 DU        1 50E      0.195000
     39 H15        -4.2920    0.3060   -0.0350 ha        1 50E      0.107000
     40 H16        -5.7350    1.0850    0.1480 DU        1 50E      0.203000
     41 H17        -6.1860    1.1450   -1.3730 hx        1 50E      0.126000
     42 H18        -6.8910   -0.0600   -0.5060 DU        1 50E      0.200000
     43 H20        -7.0620   -1.3240   -0.7820 DU        1 50E      0.185000
     44 H21        -7.7310   -1.4250    0.6710 hx        1 50E      0.100000
     45 H22        -6.3180   -2.2580    0.4920 DU        1 50E      0.234000
     46 H23        -4.7260   -2.1030    0.7890 hc        1 50E      0.100000
     47 C2         -5.5450   -0.4510    4.7580 DU        1 50E     -0.502000
@<TRIPOS>BOND
     1    1    8 1   
     2    1   14 1   
     3    1   25 1   
     4    2    3 1   
     5    2   11 1   
     6    2   19 1   
     7    3    5 1   
     8    3   26 1   
     9    4    6 1   
    10    4    7 1   
    11    4   27 1   
    12    4   28 1   
    13    5   12 1   
    14    5   13 1   
    15    6   13 1   
    16    6   14 1   
    17    7    8 1   
    18    7   15 1   
    19    8   28 1   
    20    9   29 1   
    21    9   30 1   
    22    9   31 1   
    23    9   47 1   
    24   10   32 1   
    25   10   33 1   
    26   10   34 1   
    27   10   35 1   
    28   10   47 1   
    29   11   12 1   
    30   11   47 1   
    31   13   36 1   
    32   15   16 1   
    33   15   17 1   
    34   15   18 1   
    35   19   20 1   
    36   19   24 1   
    37   19   37 1   
    38   19   38 1   
    39   20   21 1   
    40   20   38 1   
    41   20   39 1   
    42   20   40 1   
    43   21   22 1   
    44   21   40 1   
    45   21   41 1   
    46   21   42 1   
    47   22   23 1   
    48   22   42 1   
    49   22   43 1   
    50   23   24 1   
    51   23   43 1   
    52   23   44 1   
    53   23   45 1   
    54   24   45 1   
    55   24   46 1   
    56   32   47 1   
    57   35   47 1   
@<TRIPOS>SUBSTRUCTURE
     1 50E         1 TEMP              0 ****  ****    0 ROOT
