@<TRIPOS>MOLECULE
50F
   57    60     1     0     0
SMALL
bcc


@<TRIPOS>ATOM
      1 C4         -0.0190   -0.4780    0.1770 ca        1 50F      0.635200
      2 C5          1.3900   -0.6140   -0.0300 ca        1 50F     -0.263300
      3 C6          2.2640   -0.0540    0.9040 ca        1 50F      0.056000
      4 C11        -3.1860   -0.9390    0.3330 cc        1 50F     -0.250300
      5 C7          3.6700   -0.1790    0.7260 cg        1 50F      0.227800
      6 C10        -2.2480   -0.8170   -0.7670 cc        1 50F      0.490200
      7 C12        -4.4300   -0.5850   -0.2130 cd        1 50F     -0.105600
      8 N3         -0.5230    0.2030    1.2560 nb        1 50F     -0.687000
      9 C1          1.7500    0.6330    2.0110 ca        1 50F     -0.256300
     10 C2          0.3530    0.7240    2.1270 ca        1 50F      0.429200
     11 N8          4.8200   -0.2790    0.5830 n1        1 50F     -0.346800
     12 N9         -0.8790   -1.1470   -0.7230 nu        1 50F     -0.776600
     13 N13        -4.1990   -0.2600   -1.5650 na        1 50F      0.113400
     14 N14        -2.9160   -0.4030   -1.9060 nd        1 50F     -0.538800
     15 C15        -5.2480    0.0660   -2.5320 c3        1 50F      0.067000
     16 C16        -4.8620    1.1820   -3.5240 c3        1 50F     -0.086400
     17 C17        -4.4860    0.4990   -4.8280 c3        1 50F     -0.077900
     18 C18        -5.1100   -0.8890   -4.8100 c3        1 50F     -0.077900
     19 C19        -5.6680   -1.1300   -3.4150 c3        1 50F     -0.086400
     20 C20        -5.7570   -0.5370    0.4630 c3        1 50F      0.034800
     21 C21        -6.1510    0.8860    0.7020 c2        1 50F     -0.169200
     22 C22        -7.2650    1.4370    0.2250 c2        1 50F     -0.225000
     23 N23        -7.8550   -0.6140    2.9250 n7        1 50F     -0.819200
     24 C24        -7.0850   -1.6720    2.3160 c3        1 50F      0.169800
     25 C25        -5.6990   -1.3190    1.7730 c3        1 50F     -0.112400
     26 C26        -7.4710   -0.2350    4.2500 cy        1 50F      0.129500
     27 C27        -6.3270    0.8130    4.4860 cy        1 50F      0.091400
     28 O28        -7.2520    1.7160    5.1480 os        1 50F     -0.424600
     29 C29        -8.3860    0.8270    4.9510 cy        1 50F      0.091400
     30 H1          1.7820   -1.1550   -0.9030 ha        1 50F      0.155000
     31 H3          2.4080    1.0860    2.7620 ha        1 50F      0.157000
     32 H4         -0.1050    1.2610    2.9790 h4        1 50F      0.029100
     33 H5         -0.4640   -1.2680   -1.6280 hn        1 50F      0.423800
     34 H6         -6.1250    0.4100   -1.9070 h1        1 50F      0.070700
     35 H7         -4.0330    1.8290   -3.1480 hc        1 50F      0.056200
     36 H8         -5.7600    1.8350   -3.6720 hc        1 50F      0.056200
     37 H9         -3.3720    0.4190   -4.9100 hc        1 50F      0.047450
     38 H10        -4.8470    1.0920   -5.7050 hc        1 50F      0.047450
     39 H11        -5.9250   -0.9660   -5.5730 hc        1 50F      0.047450
     40 H12        -4.3430   -1.6640   -5.0630 hc        1 50F      0.047450
     41 H13        -6.7870   -1.1680   -3.4440 hc        1 50F      0.056200
     42 H14        -5.3110   -2.1060   -3.0050 hc        1 50F      0.056200
     43 H15        -6.5220   -1.0350   -0.2040 hc        1 50F      0.060700
     44 H16        -7.9950    0.8830   -0.3810 ha        1 50F      0.118000
     45 H17        -5.4340    1.4670    1.3070 ha        1 50F      0.137000
     46 H18        -7.5250    2.4860    0.4180 ha        1 50F      0.118000
     47 H19        -7.9120    0.1870    2.3210 hn        1 50F      0.376800
     48 H21        -5.1480   -2.2800    1.5910 hc        1 50F      0.058700
     49 H22        -6.9600   -2.5020    3.0700 h1        1 50F      0.053700
     50 H23        -7.7130   -2.0750    1.4700 h1        1 50F      0.053700
     51 H24        -5.1180   -0.7360    2.5350 hc        1 50F      0.058700
     52 H25        -7.3320   -1.1530    4.8760 h1        1 50F      0.074700
     53 H26        -5.9080    1.2960    3.5770 h1        1 50F      0.057700
     54 H27        -5.5300    0.4950    5.1910 h1        1 50F      0.057700
     55 H28        -8.7990    0.5060    5.9300 h1        1 50F      0.057700
     56 H29        -9.1520    1.3190    4.3160 h1        1 50F      0.057700
     57 H2         -2.9570   -1.2210    1.3540 ha        1 50F      0.177000
@<TRIPOS>BOND
     1    1    2 ar  
     2    1    8 ar  
     3    1   12 1   
     4    2    3 ar  
     5    2   30 1   
     6    3    5 1   
     7    3    9 ar  
     8    4    6 1   
     9    4    7 2   
    10    4   57 1   
    11    5   11 3   
    12    6   12 1   
    13    6   14 2   
    14    7   13 1   
    15    7   20 1   
    16    8   10 ar  
    17    9   10 ar  
    18    9   31 1   
    19   10   32 1   
    20   12   33 1   
    21   13   14 1   
    22   13   15 1   
    23   15   16 1   
    24   15   19 1   
    25   15   34 1   
    26   16   17 1   
    27   16   35 1   
    28   16   36 1   
    29   17   18 1   
    30   17   37 1   
    31   17   38 1   
    32   18   19 1   
    33   18   39 1   
    34   18   40 1   
    35   19   41 1   
    36   19   42 1   
    37   20   21 1   
    38   20   25 1   
    39   20   43 1   
    40   21   22 2   
    41   21   45 1   
    42   22   44 1   
    43   22   46 1   
    44   23   24 1   
    45   23   26 1   
    46   23   47 1   
    47   24   25 1   
    48   24   49 1   
    49   24   50 1   
    50   25   48 1   
    51   25   51 1   
    52   26   27 1   
    53   26   29 1   
    54   26   52 1   
    55   27   28 1   
    56   27   53 1   
    57   27   54 1   
    58   28   29 1   
    59   29   55 1   
    60   29   56 1   
@<TRIPOS>SUBSTRUCTURE
     1 50F         1 TEMP              0 ****  ****    0 ROOT
