@<TRIPOS>MOLECULE
50F
   57    61     1     0     0
SMALL
bcc


@<TRIPOS>ATOM
      1 C4          0.2150    0.2690   -0.1610 ca        1 50F      0.635200
      2 C5          1.6100    0.3660   -0.4660 ca        1 50F     -0.264300
      3 C6          2.5380    0.0290    0.5210 ca        1 50F      0.056000
      4 C11        -2.9440    0.7460    0.0630 cc        1 50F     -0.248300
      5 C7          3.9320    0.1210    0.2470 cg        1 50F      0.227800
      6 C10        -2.0650    0.3880   -1.0350 cc        1 50F      0.491200
      7 C12        -4.2110    0.2810   -0.3210 cd        1 50F     -0.100600
      8 N3         -0.2230   -0.1620    1.0650 nb        1 50F     -0.685000
      9 C1          2.0920   -0.4010    1.7770 ca        1 50F     -0.256300
     10 C2          0.7040   -0.4740    1.9820 ca        1 50F      0.429200
     11 N8          5.0720    0.1950    0.0260 n1        1 50F     -0.348800
     12 N9         -0.7000    0.7200   -1.1390 nh        1 50F     -0.777600
     13 N13        -4.0490   -0.3300   -1.5830 na        1 50F      0.105400
     14 N14        -2.7870   -0.2650   -2.0160 nd        1 50F     -0.541800
     15 C15        -5.1380   -0.8480   -2.4120 c3        1 50F      0.070000
     16 C16        -5.5200    0.0810   -3.5860 c3        1 50F     -0.086400
     17 C17        -5.0670   -0.5910   -4.8740 c3        1 50F     -0.077400
     18 C18        -4.4790   -1.9470   -4.5100 c3        1 50F     -0.077400
     19 C19        -4.8310   -2.2160   -3.0570 c3        1 50F     -0.086400
     20 C20        -5.4920    0.3740    0.4250 c3        1 50F      0.004600
     21 C21        -5.4340    1.4840    1.4680 c3        1 50F     -0.074400
     22 C22        -6.7490    1.5540    2.2420 c3        1 50F      0.170800
     23 N23        -7.1120    0.2840    2.8580 n3        1 50F     -0.721600
     24 C24        -7.1230   -0.8220    1.9090 c3        1 50F      0.170800
     25 C25        -5.8220   -0.9430    1.1180 c3        1 50F     -0.074400
     26 C26        -8.3480    0.3740    3.6030 cy        1 50F      0.120500
     27 C27        -8.6640   -0.7930    4.5960 cy        1 50F      0.118400
     28 O28        -8.7060    0.1340    5.7150 os        1 50F     -0.420600
     29 C29        -8.3400    1.2710    4.8860 cy        1 50F      0.118400
     30 H1          1.9490    0.7060   -1.4550 ha        1 50F      0.155000
     31 H3          2.7950   -0.6740    2.5740 ha        1 50F      0.157000
     32 H4          0.2990   -0.8130    2.9540 h4        1 50F      0.030100
     33 H5         -0.3340    0.6390   -2.0690 hn        1 50F      0.423800
     34 H6         -6.0180   -0.9580   -1.7130 h1        1 50F      0.064700
     35 H7         -5.0640    1.0960   -3.4870 hc        1 50F      0.055700
     36 H8         -6.6320    0.2120   -3.5830 hc        1 50F      0.055700
     37 H9         -4.3040    0.0380   -5.3970 hc        1 50F      0.047450
     38 H10        -5.9330   -0.7130   -5.5720 hc        1 50F      0.047450
     39 H11        -3.3660   -1.9290   -4.6360 hc        1 50F      0.047450
     40 H12        -4.8810   -2.7520   -5.1720 hc        1 50F      0.047450
     41 H13        -4.0100   -2.7660   -2.5350 hc        1 50F      0.055700
     42 H14        -5.7560   -2.8440   -2.9900 hc        1 50F      0.055700
     43 H15        -6.3270    0.6220   -0.2950 hc        1 50F      0.051700
     44 H16        -5.2580    2.4710    0.9690 hc        1 50F      0.059200
     45 H17        -4.5850    1.2960    2.1750 hc        1 50F      0.059200
     46 H18        -6.6420    2.3120    3.0690 h1        1 50F      0.032450
     47 H19        -7.5590    1.9220    1.5430 h1        1 50F      0.032450
     48 H21        -7.2770   -1.7700    2.4990 h1        1 50F      0.032450
     49 H22        -7.9800   -0.7310    1.1780 h1        1 50F      0.032450
     50 H23        -5.9420   -1.7610    0.3620 hc        1 50F      0.059200
     51 H24        -4.9810   -1.2280    1.8010 hc        1 50F      0.059200
     52 H25        -9.2290    0.6050    2.9430 h1        1 50F      0.037700
     53 H26        -9.6580   -1.2690    4.4550 h1        1 50F      0.061200
     54 H27        -7.8570   -1.5410    4.7530 h1        1 50F      0.061200
     55 H28        -7.3530    1.6700    5.2030 h1        1 50F      0.061200
     56 H29        -9.1370    2.0430    4.9190 h1        1 50F      0.061200
     57 H2         -2.6620    1.2460    0.9830 ha        1 50F      0.179000
@<TRIPOS>BOND
     1    1    2 ar  
     2    1    8 ar  
     3    1   12 1   
     4    2    3 ar  
     5    2   30 1   
     6    3    5 1   
     7    3    9 ar  
     8    4    6 1   
     9    4    7 2   
    10    4   57 1   
    11    5   11 3   
    12    6   12 1   
    13    6   14 2   
    14    7   13 1   
    15    7   20 1   
    16    8   10 ar  
    17    9   10 ar  
    18    9   31 1   
    19   10   32 1   
    20   12   33 1   
    21   13   14 1   
    22   13   15 1   
    23   15   16 1   
    24   15   19 1   
    25   15   34 1   
    26   16   17 1   
    27   16   35 1   
    28   16   36 1   
    29   17   18 1   
    30   17   37 1   
    31   17   38 1   
    32   18   19 1   
    33   18   39 1   
    34   18   40 1   
    35   19   41 1   
    36   19   42 1   
    37   20   21 1   
    38   20   25 1   
    39   20   43 1   
    40   21   22 1   
    41   21   44 1   
    42   21   45 1   
    43   22   23 1   
    44   22   46 1   
    45   22   47 1   
    46   23   24 1   
    47   23   26 1   
    48   24   25 1   
    49   24   48 1   
    50   24   49 1   
    51   25   50 1   
    52   25   51 1   
    53   26   27 1   
    54   26   29 1   
    55   26   52 1   
    56   27   28 1   
    57   27   53 1   
    58   27   54 1   
    59   28   29 1   
    60   29   55 1   
    61   29   56 1   
@<TRIPOS>SUBSTRUCTURE
     1 50F         1 TEMP              0 ****  ****    0 ROOT
