@<TRIPOS>MOLECULE
50H
   49    52     1     0     0
SMALL
bcc


@<TRIPOS>ATOM
      1 N2          0.1380   -0.1770   -0.1690 nc        1 50H     -0.762000
      2 C6          2.1890    0.1330    1.1500 cd        1 50H     -0.206600
      3 C9          1.9610    1.1400   -4.8010 c         1 50H      0.580700
      4 C13         1.7990    0.5220   -2.4540 ca        1 50H     -0.002000
      5 C20        -3.3000   -1.5810   -2.2870 ca        1 50H     -0.172000
      6 C18        -4.3830   -0.7310   -2.4940 ca        1 50H      0.097100
      7 C16        -4.6600    0.2960   -1.5490 ca        1 50H      0.126100
      8 C26         3.7620   -0.2270   -3.6920 ca        1 50H     -0.101000
      9 C27         4.2400   -0.8430   -2.5440 ca        1 50H     -0.118000
     10 C25         3.5060   -0.7960   -1.3530 ca        1 50H     -0.052000
     11 C22        -2.4860   -1.4320   -1.1630 ca        1 50H     -0.120000
     12 C15        -3.8460    0.4530   -0.4310 ca        1 50H     -0.208000
     13 C12         0.5700    0.4070    4.3620 cc        1 50H      0.013600
     14 C14         1.7930    0.4060    3.6450 cd        1 50H     -0.191100
     15 C10         2.2880   -0.1100   -1.3000 ca        1 50H     -0.105500
     16 C11         2.5320    0.4550   -3.6500 ca        1 50H     -0.215600
     17 C17        -2.7490   -0.4190   -0.2290 ca        1 50H      0.131600
     18 C3          0.0270    0.0960    2.2670 cd        1 50H     -0.196600
     19 C5          1.5110   -0.0520   -0.0500 cc        1 50H      0.424800
     20 C1         -0.6060   -0.1190    0.9520 cd        1 50H      0.753200
     21 C29        -5.2570   -2.0210   -4.2830 c3        1 50H      0.110700
     22 C28        -6.1090    2.0560   -0.8670 c3        1 50H      0.106700
     23 N7         -0.5060    0.2180    3.5140 nc        1 50H     -0.249600
     24 N4          1.4520    0.2080    2.3130 na        1 50H      0.037700
     25 N21         2.3960    0.6260   -6.1710 n4        1 50H     -0.766400
     26 N8         -1.9770   -0.2870    0.9490 nh        1 50H     -0.722300
     27 O19         1.1540    2.0540   -4.8600 o         1 50H     -0.406100
     28 H1          3.2810    0.2400    1.2350 h4        1 50H      0.173000
     29 H2          0.8370    1.0660   -2.4240 ha        1 50H      0.191000
     30 H3         -3.0870   -2.3890   -3.0010 ha        1 50H      0.141000
     31 H4          4.3710   -0.2670   -4.6060 ha        1 50H      0.125000
     32 H5          5.2050   -1.3770   -2.5680 ha        1 50H      0.167000
     33 H6          3.8910   -1.3090   -0.4540 ha        1 50H      0.168000
     34 H7         -1.6420   -2.1230   -1.0190 ha        1 50H      0.148000
     35 H8         -4.0640    1.2460    0.3010 ha        1 50H      0.149000
     36 H9          0.4330    0.5330    5.4380 h4        1 50H      0.199000
     37 H10         2.8210    0.5260    3.9810 h4        1 50H      0.195000
     38 H11        -4.3100   -2.1770   -4.8560 h1        1 50H      0.045700
     39 H12        -5.4300   -2.8680   -3.5770 h1        1 50H      0.045700
     40 H13        -6.1240   -1.9010   -4.9810 h1        1 50H      0.045700
     41 H14        -6.3400    1.5640    0.1090 h1        1 50H      0.049367
     42 H15        -5.3010    2.8170   -0.7440 h1        1 50H      0.049367
     43 H16        -7.0300    2.5250   -1.3000 h1        1 50H      0.049367
     44 H17         1.8160    1.0520   -6.9040 hn        1 50H      0.465800
     45 H18         3.3760    0.8700   -6.3390 hn        1 50H      0.465800
     46 H19        -2.4690   -0.0300    1.7790 hn        1 50H      0.472800
     47 O24        -5.2140   -0.7740   -3.5940 os        1 50H     -0.302900
     48 H213        2.2970   -0.3920   -6.2050 hn        1 50H      0.465800
     49 O23        -5.7450    1.0900   -1.8480 os        1 50H     -0.298900
@<TRIPOS>BOND
     1    1   19 1   
     2    1   20 2   
     3    2   19 2   
     4    2   24 1   
     5    2   28 1   
     6    3   16 1   
     7    3   25 1   
     8    3   27 2   
     9    4   15 ar  
    10    4   16 ar  
    11    4   29 1   
    12    5    6 ar  
    13    5   11 ar  
    14    5   30 1   
    15    6    7 ar  
    16    6   47 1   
    17    7   12 ar  
    18    7   49 1   
    19    8    9 ar  
    20    8   16 ar  
    21    8   31 1   
    22    9   10 ar  
    23    9   32 1   
    24   10   15 ar  
    25   10   33 1   
    26   11   17 ar  
    27   11   34 1   
    28   12   17 ar  
    29   12   35 1   
    30   13   14 2   
    31   13   23 1   
    32   13   36 1   
    33   14   24 1   
    34   14   37 1   
    35   15   19 1   
    36   17   26 1   
    37   18   20 1   
    38   18   23 2   
    39   18   24 1   
    40   20   26 1   
    41   21   38 1   
    42   21   39 1   
    43   21   40 1   
    44   21   47 1   
    45   22   41 1   
    46   22   42 1   
    47   22   43 1   
    48   22   49 1   
    49   25   44 1   
    50   25   45 1   
    51   25   48 1   
    52   26   46 1   
@<TRIPOS>SUBSTRUCTURE
     1 50H         1 TEMP              0 ****  ****    0 ROOT
