@<TRIPOS>MOLECULE
50J
   66    70     1     0     0
SMALL
bcc


@<TRIPOS>ATOM
      1 C1         -0.0860   -0.8090    0.3580 c3        1 50J      0.084100
      2 C3          2.3000   -1.2280    1.0340 c         1 50J      0.579700
      3 O4          1.7850   -2.1450    1.6610 o         1 50J     -0.441100
      4 C7          5.5390    0.5210    0.1870 ca        1 50J     -0.196500
      5 C8          6.4310   -0.0980    1.1200 ca        1 50J      0.184600
      6 C10         8.7690   -0.1310    2.0210 c         1 50J      0.694700
      7 C12        10.0980    0.4980    1.8050 ca        1 50J     -0.172600
      8 C13        10.6840    0.5510    0.5350 ca        1 50J     -0.101000
      9 C14        11.9470    1.1200    0.3870 ca        1 50J     -0.132000
     10 C15        12.6210    1.6400    1.4920 ca        1 50J     -0.085000
     11 C16        12.0370    1.5830    2.7640 ca        1 50J     -0.123500
     12 C19        14.1010    1.8250    4.0830 cc        1 50J     -0.219600
     13 C21        16.0660    2.1810    5.6520 cc        1 50J     -0.200100
     14 C22        16.1160    2.8940    6.8780 cd        1 50J      0.008600
     15 N23        14.8890    3.4510    7.1820 nd        1 50J     -0.259600
     16 C24        14.0630    3.0970    6.1560 cc        1 50J     -0.197600
     17 N26        12.0120    4.2200    6.8190 nh        1 50J     -0.722300
     18 C27        10.6300    4.5100    6.7900 ca        1 50J      0.144600
     19 C30         7.9090    5.2160    6.8190 ca        1 50J      0.082100
     20 C32         6.0840    6.5030    6.0280 c3        1 50J      0.112700
     21 C33         8.5210    4.6910    7.9870 ca        1 50J      0.127100
     22 C35         8.2910    4.0730   10.2740 c3        1 50J      0.107700
     23 N2          1.3270   -0.4170    0.1710 n4        1 50J     -0.676800
     24 C5          3.6820   -0.8000    1.0070 ca        1 50J     -0.277600
     25 C6          4.2050    0.1770    0.1390 ca        1 50J     -0.019500
     26 O11         8.5420   -0.9490    2.9200 o         1 50J     -0.534100
     27 C17        10.7690    1.0070    2.9210 ca        1 50J     -0.035000
     28 C18        12.7510    2.1230    3.9340 cd        1 50J      0.445800
     29 N20        14.7630    2.3080    5.1920 na        1 50J      0.045700
     30 C25        12.6400    3.3840    5.9040 cc        1 50J      0.736200
     31 C28        10.0170    5.0370    5.6420 ca        1 50J     -0.121000
     32 C29         8.6660    5.3820    5.6620 ca        1 50J     -0.160000
     33 O31         6.5560    5.4850    6.9060 os        1 50J     -0.308900
     34 O34         7.6900    4.5620    9.0800 os        1 50J     -0.302900
     35 C36         9.8670    4.3340    7.9700 ca        1 50J     -0.215000
     36 N37        12.0150    2.8870    4.8230 nd        1 50J     -0.742000
     37 C38         5.8930   -1.0900    1.9840 ca        1 50J     -0.196500
     38 C39         4.5560   -1.4280    1.9230 ca        1 50J     -0.019500
     39 H1         -0.2100   -1.8960    0.1010 hx        1 50J      0.110700
     40 H2         -0.3750   -0.6600    1.4330 hx        1 50J      0.110700
     41 H3         -0.7360   -0.1800   -0.3070 hx        1 50J      0.110700
     42 H4          5.9190    1.2890   -0.5080 ha        1 50J      0.181500
     43 H5         10.1700    0.1280   -0.3410 ha        1 50J      0.135000
     44 H6         12.4160    1.1590   -0.6080 ha        1 50J      0.149000
     45 H7         13.6130    2.1010    1.3630 ha        1 50J      0.151000
     46 H8         14.6770    1.2130    3.3730 h4        1 50J      0.176000
     47 H9         16.8310    1.6250    5.1150 h4        1 50J      0.192000
     48 H10        16.9790    3.0200    7.5340 h4        1 50J      0.193000
     49 H11        12.4630    4.3190    7.7050 hn        1 50J      0.464800
     50 H12         6.7440    7.4030    6.0570 h1        1 50J      0.042033
     51 H13         6.0130    6.1070    4.9850 h1        1 50J      0.042033
     52 H14         5.0660    6.7420    6.4260 h1        1 50J      0.042033
     53 H15         7.4450    4.0800   11.0080 h1        1 50J      0.047700
     54 H16         8.6760    3.0340   10.1270 h1        1 50J      0.047700
     55 H17         9.1110    4.7520   10.6130 h1        1 50J      0.047700
     56 H18         1.4460    0.5740    0.4070 hn        1 50J      0.453800
     57 H19         3.5740    0.6850   -0.6060 ha        1 50J      0.145000
     58 H20         8.0190    0.9890    0.4640 hn        1 50J      0.336500
     59 H21        10.3020    0.9480    3.9190 ha        1 50J      0.174000
     60 H22        10.5930    5.1860    4.7150 ha        1 50J      0.153000
     61 H23         8.2040    5.7980    4.7550 ha        1 50J      0.139000
     62 H24        10.3390    3.9260    8.8760 ha        1 50J      0.146000
     63 H25         6.5390   -1.6040    2.7210 ha        1 50J      0.181500
     64 H26         4.1580   -2.2040    2.6030 ha        1 50J      0.145000
     65 H221        1.5930   -0.5470   -0.8110 hn        1 50J      0.453800
     66 N9          7.7550    0.2900    1.1290 n         1 50J     -0.462100
@<TRIPOS>BOND
     1    1   23 1   
     2    1   39 1   
     3    1   40 1   
     4    1   41 1   
     5    2    3 2   
     6    2   23 1   
     7    2   24 1   
     8    4    5 ar  
     9    4   25 ar  
    10    4   42 1   
    11    5   37 ar  
    12    5   66 1   
    13    6    7 1   
    14    6   26 2   
    15    6   66 1   
    16    7    8 ar  
    17    7   27 ar  
    18    8    9 ar  
    19    8   43 1   
    20    9   10 ar  
    21    9   44 1   
    22   10   11 ar  
    23   10   45 1   
    24   11   27 ar  
    25   11   28 1   
    26   12   28 2   
    27   12   29 1   
    28   12   46 1   
    29   13   14 2   
    30   13   29 1   
    31   13   47 1   
    32   14   15 1   
    33   14   48 1   
    34   15   16 2   
    35   16   29 1   
    36   16   30 1   
    37   17   18 1   
    38   17   30 1   
    39   17   49 1   
    40   18   31 ar  
    41   18   35 ar  
    42   19   21 ar  
    43   19   32 ar  
    44   19   33 1   
    45   20   33 1   
    46   20   50 1   
    47   20   51 1   
    48   20   52 1   
    49   21   34 1   
    50   21   35 ar  
    51   22   34 1   
    52   22   53 1   
    53   22   54 1   
    54   22   55 1   
    55   23   56 1   
    56   23   65 1   
    57   24   25 ar  
    58   24   38 ar  
    59   25   57 1   
    60   27   59 1   
    61   28   36 1   
    62   30   36 2   
    63   31   32 ar  
    64   31   60 1   
    65   32   61 1   
    66   35   62 1   
    67   37   38 ar  
    68   37   63 1   
    69   38   64 1   
    70   58   66 1   
@<TRIPOS>SUBSTRUCTURE
     1 50J         1 TEMP              0 ****  ****    0 ROOT
