@<TRIPOS>MOLECULE
50Q
   25    24     1     0     0
SMALL
bcc


@<TRIPOS>ATOM
      1 C10        -1.1040   -0.0670    1.0040 c2        1 50Q     -0.169000
      2 C13        -0.5330   -0.2140    3.3970 c2        1 50Q     -0.340000
      3 C15         0.7390    0.0860    3.6440 c1        1 50Q      0.241000
      4 C04         5.1740   -1.0290    4.3400 c2        1 50Q      0.017000
      5 C03         4.6590    0.1360    4.8220 c2        1 50Q     -0.142000
      6 C02         3.9850    1.0670    3.8790 c3        1 50Q      0.000000
      7 O01         4.1100    2.4010    4.3410 oh        1 50Q     -0.296000
      8 C19         4.2300    0.8780    2.4540 c1        1 50Q     -0.151000
      9 C09         4.2370    0.0710   -1.4960 c1        1 50Q      0.168000
     10 C11        -1.2760    0.3380    2.2660 c2        1 50Q     -0.059000
     11 C16         4.3590    0.2400   -0.1870 c2        1 50Q     -0.333000
     12 Cl6        -2.4090    1.5410    2.6780 cl        1 50Q      0.001000
     13 O17         4.8050   -0.7340    0.6980 os        1 50Q     -0.122000
     14 Cl5        -1.3730   -1.2730    4.4320 cl        1 50Q      0.052000
     15 C18         4.7170   -0.3930    2.0470 c2        1 50Q     -0.022000
     16 C06         5.2070   -1.3260    2.9290 c2        1 50Q     -0.089000
     17 H10        -0.3770   -0.8480    0.7420 ha        1 50Q      0.142000
     18 H09        -1.6760    0.3530    0.1660 ha        1 50Q      0.142000
     19 H15         4.1050    1.2370    0.2510 h4        1 50Q      0.227000
     20 H01         4.2120    2.9600    3.5570 ho        1 50Q      0.227000
     21 H03         4.6720    0.3970    5.8880 ha        1 50Q      0.174000
     22 H19         2.8490    0.7990    3.9280 h1        1 50Q      0.203000
     23 H05         6.2000   -2.5910    4.7630 ho        1 50Q      0.220000
     24 H06         5.6470   -2.2750    2.5860 ha        1 50Q      0.157000
     25 O05         5.6760   -1.9390    5.2500 oh        1 50Q     -0.247000
@<TRIPOS>BOND
     1    1   10 1   
     2    1   17 1   
     3    1   18 1   
     4    2    3 1   
     5    2   10 1   
     6    2   14 1   
     7    4    5 1   
     8    4   16 1   
     9    4   25 1   
    10    5    6 1   
    11    5   21 1   
    12    6    7 1   
    13    6    8 1   
    14    6   22 1   
    15    7   20 1   
    16    8   15 1   
    17    9   11 1   
    18   10   12 1   
    19   11   13 1   
    20   11   19 1   
    21   13   15 1   
    22   15   16 1   
    23   16   24 1   
    24   23   25 1   
@<TRIPOS>SUBSTRUCTURE
     1 50Q         1 TEMP              0 ****  ****    0 ROOT
