@<TRIPOS>MOLECULE
50Q
   25    26     1     0     0
SMALL
bcc


@<TRIPOS>ATOM
      1 C10         2.6280   -1.8840   -0.3550 ca        1 50Q     -0.098000
      2 C13         2.1030    0.4850   -0.4390 ca        1 50Q      0.037400
      3 C15         0.8290    0.2250    0.0750 ca        1 50Q     -0.162000
      4 C04        -3.2680    0.3450   -1.0590 ca        1 50Q      0.182100
      5 C03        -4.2980    0.4780   -0.1180 ca        1 50Q     -0.206000
      6 C02        -4.0790   -0.0150    1.1750 ca        1 50Q      0.182100
      7 O01        -5.1160    0.1340    2.0640 oh        1 50Q     -0.489100
      8 C19        -2.8680   -0.6210    1.5420 ca        1 50Q     -0.282500
      9 C09         1.3620   -2.1580    0.1480 ca        1 50Q     -0.132000
     10 C11         3.0050   -0.5680   -0.6550 ca        1 50Q     -0.001600
     11 C16         0.4700   -1.0950    0.3630 ca        1 50Q      0.113100
     12 CL6         4.5550   -0.2800   -1.2770 cl        1 50Q     -0.064400
     13 O17        -0.7330   -1.4320    0.9740 os        1 50Q     -0.244200
     14 CL5         2.5280    2.0890   -0.7890 cl        1 50Q     -0.060400
     15 C18        -1.8670   -0.7360    0.5680 ca        1 50Q      0.179100
     16 C06        -2.0430   -0.2600   -0.7340 ca        1 50Q     -0.282500
     17 H10         3.3390   -2.7080   -0.5230 ha        1 50Q      0.157000
     18 H09         1.0560   -3.1870    0.3900 ha        1 50Q      0.161000
     19 H15         0.1150    1.0440    0.2530 ha        1 50Q      0.169000
     20 H01        -4.8430   -0.2480    2.9120 ho        1 50Q      0.425000
     21 H03        -5.2510    0.9530   -0.3880 ha        1 50Q      0.172000
     22 H19        -2.7010   -1.0060    2.5560 ha        1 50Q      0.154000
     23 H05        -2.7460    0.6790   -2.8670 ho        1 50Q      0.425000
     24 H06        -1.2470   -0.3630   -1.4820 ha        1 50Q      0.154000
     25 O05        -3.5250    0.8410   -2.3140 oh        1 50Q     -0.489100
@<TRIPOS>BOND
     1    1    9 ar  
     2    1   10 ar  
     3    1   17 1   
     4    2    3 ar  
     5    2   10 ar  
     6    2   14 1   
     7    3   11 ar  
     8    3   19 1   
     9    4    5 ar  
    10    4   16 ar  
    11    4   25 1   
    12    5    6 ar  
    13    5   21 1   
    14    6    7 1   
    15    6    8 ar  
    16    7   20 1   
    17    8   15 ar  
    18    8   22 1   
    19    9   11 ar  
    20    9   18 1   
    21   10   12 1   
    22   11   13 1   
    23   13   15 1   
    24   15   16 ar  
    25   16   24 1   
    26   23   25 1   
@<TRIPOS>SUBSTRUCTURE
     1 50Q         1 TEMP              0 ****  ****    0 ROOT
