@<TRIPOS>MOLECULE
50Q
   25    20     1     0     0
SMALL
bcc


@<TRIPOS>ATOM
      1 C10        -2.9320   -0.7990   -1.4180 c1        1 50Q     -0.115000
      2 C13        -2.0070    1.0590   -2.6260 c1        1 50Q     -0.060500
      3 C15        -0.7300    0.6540   -2.2700 c1        1 50Q     -0.164000
      4 O05         2.2740   -2.0880    3.2230 oh        1 50Q     -0.243000
      5 C04         1.9100   -1.1150    2.2740 c1        1 50Q      0.135000
      6 C03         2.0990    0.2290    2.5540 c1        1 50Q     -0.264000
      7 C02         1.8020    1.1850    1.5950 c1        1 50Q      0.144000
      8 O01         2.0560    2.5450    1.8560 o         1 50Q     -0.245000
      9 C19         1.3160    0.7970    0.3560 c2        1 50Q     -0.299000
     10 C09        -1.6550   -1.2040   -1.0630 c1        1 50Q     -0.115000
     11 C11        -3.1080    0.3320   -2.2000 c1        1 50Q     -0.060500
     12 C16        -0.5530   -0.4770   -1.4880 c1        1 50Q      0.070000
     13 CL6        -4.7090    0.7970   -2.7090 cl        1 50Q      0.015000
     14 O17         0.7440   -0.9470   -1.2170 os        1 50Q     -0.151000
     15 CL5        -2.2270    2.4570   -3.6430 cl        1 50Q      0.015000
     16 C18         1.1270   -0.5470    0.0760 c1        1 50Q      0.127000
     17 C06         1.4240   -1.5030    1.0350 c1        1 50Q     -0.204000
     18 H10        -3.7070   -1.3110   -1.1190 ha        1 50Q      0.159000
     19 H09        -1.5310   -2.0000   -0.5120 ha        1 50Q      0.159000
     20 H15         0.0450    1.1660   -2.5700 ha        1 50Q      0.168000
     21 H01         1.2860    2.9900    1.8880 ho        1 50Q      0.225000
     22 H03         2.4600    0.5020    3.4190 ha        1 50Q      0.157000
     23 H19         1.1070    1.4700   -0.3190 ha        1 50Q      0.152000
     24 H05         2.2150   -1.7420    4.0400 ho        1 50Q      0.225000
     25 H06         1.2920   -2.4500    0.8380 ha        1 50Q      0.172000
@<TRIPOS>BOND
     1    1   10 1   
     2    1   18 1   
     3    2   11 1   
     4    2   15 1   
     5    3   12 1   
     6    3   20 1   
     7    4    5 1   
     8    4   24 1   
     9    5   17 1   
    10    6    7 1   
    11    6   22 1   
    12    7    9 1   
    13    8   21 1   
    14    9   16 1   
    15    9   23 1   
    16   10   19 1   
    17   11   13 1   
    18   12   14 1   
    19   14   16 1   
    20   17   25 1   
@<TRIPOS>SUBSTRUCTURE
     1 50Q         1 TEMP              0 ****  ****    0 ROOT
