@<TRIPOS>MOLECULE
50Q
   25    24     1     0     0
SMALL
bcc


@<TRIPOS>ATOM
      1 C10        -1.0740   -0.0300    0.9150 c2        1 50Q     -0.169000
      2 C13        -0.5450   -0.2640    3.3110 c2        1 50Q     -0.340000
      3 C15         0.7180    0.0390    3.5930 c1        1 50Q      0.241000
      4 C04         5.1460   -1.0550    4.3670 c2        1 50Q      0.017000
      5 C03         4.6080    0.0920    4.8660 c2        1 50Q     -0.142000
      6 C02         3.9480    1.0420    3.9310 c3        1 50Q      0.000000
      7 O01         4.0490    2.3640    4.4300 oh        1 50Q     -0.296000
      8 C19         4.2310    0.8930    2.5080 c1        1 50Q     -0.151000
      9 C09         4.3440    0.1900   -1.4600 c1        1 50Q      0.168000
     10 C11        -1.2740    0.3230    2.1880 c2        1 50Q     -0.059000
     11 C16         4.4320    0.3250   -0.1450 c2        1 50Q     -0.333000
     12 CL6        -2.4260    1.4980    2.6250 cl        1 50Q      0.001000
     13 O17         4.8650   -0.6670    0.7260 os        1 50Q     -0.122000
     14 CL5        -1.3920   -1.3720    4.2870 cl        1 50Q      0.052000
     15 C18         4.7400   -0.3630    2.0800 c2        1 50Q     -0.022000
     16 C06         5.2180   -1.3140    2.9500 c2        1 50Q     -0.089000
     17 H10        -0.3340   -0.7940    0.6360 ha        1 50Q      0.142000
     18 H09        -1.6350    0.4160    0.0820 ha        1 50Q      0.142000
     19 H15         4.1570    1.3080    0.3120 h4        1 50Q      0.227000
     20 H01         4.1670    2.9440    3.6640 ho        1 50Q      0.227000
     21 H03         4.5920    0.3250    5.9390 ha        1 50Q      0.174000
     22 H19         2.8140    0.7620    3.9440 h1        1 50Q      0.203000
     23 H05         6.1760   -2.6180    4.7740 ho        1 50Q      0.220000
     24 H06         5.6740   -2.2500    2.5930 ha        1 50Q      0.157000
     25 O05         5.6340   -1.9840    5.2650 oh        1 50Q     -0.247000
@<TRIPOS>BOND
     1    1   10 1   
     2    1   17 1   
     3    1   18 1   
     4    2    3 1   
     5    2   10 1   
     6    2   14 1   
     7    4    5 1   
     8    4   16 1   
     9    4   25 1   
    10    5    6 1   
    11    5   21 1   
    12    6    7 1   
    13    6    8 1   
    14    6   22 1   
    15    7   20 1   
    16    8   15 1   
    17    9   11 1   
    18   10   12 1   
    19   11   13 1   
    20   11   19 1   
    21   13   15 1   
    22   15   16 1   
    23   16   24 1   
    24   23   25 1   
@<TRIPOS>SUBSTRUCTURE
     1 50Q         1 TEMP              0 ****  ****    0 ROOT
