@<TRIPOS>MOLECULE
50V
   61    66     1     0     0
SMALL
bcc


@<TRIPOS>ATOM
      1 N14        -0.5690    0.0810   -0.2460 na        1 50V     -0.117100
      2 C13         0.7870    0.4740   -0.4480 cc        1 50V     -0.251300
      3 C18        -1.4740   -0.4380   -1.2440 c3        1 50V      0.026300
      4 C15         1.4200    0.2940   -1.7130 c         1 50V      0.602300
      5 C19        -2.1480    0.6170   -2.1080 c3        1 50V     -0.114100
      6 C20         3.7710   -0.1420   -1.0130 cx        1 50V      0.014500
      7 C21         3.1180    2.1180   -1.7050 cx        1 50V      0.014500
      8 C22         4.1660   -1.5480   -1.4250 cx        1 50V     -0.103900
      9 C23         5.1970   -0.4630   -1.4180 cx        1 50V     -0.103900
     10 C24         2.8150    3.0810   -2.8370 cx        1 50V     -0.103900
     11 C11         2.2630    2.2830    3.9200 c3        1 50V      0.023600
     12 C12         1.2970    1.0100    0.7700 cd        1 50V     -0.038200
     13 C27        -5.1940    0.0320    1.6850 cc        1 50V     -0.261300
     14 C1          0.2650    0.9790    1.7160 ca        1 50V     -0.247100
     15 C2         -0.9240    0.4060    1.0610 ca        1 50V      0.558800
     16 N3         -2.1510    0.1980    1.6230 nb        1 50V     -0.782000
     17 C4         -2.3040    0.5500    2.9320 ca        1 50V      0.811200
     18 C5         -1.1960    1.1190    3.6900 ca        1 50V     -0.121900
     19 C6          0.0830    1.3340    3.0690 ca        1 50V      0.005800
     20 N7         -3.5160    0.4320    3.5680 nh        1 50V     -0.772600
     21 N8         -1.1450    1.5280    5.0290 nc        1 50V     -0.523100
     22 C9          0.1070    1.9730    5.2200 cd        1 50V      0.400700
     23 N10         0.9050    1.8740    4.0510 na        1 50V     -0.133300
     24 N16         2.9000    0.6710   -1.8800 n4        1 50V     -0.520200
     25 O17         0.9530   -0.1410   -2.7690 o         1 50V     -0.504100
     26 C25         4.2360    2.8340   -2.4370 cx        1 50V     -0.103900
     27 C26        -4.6360   -0.2010    3.0030 cc        1 50V      0.489200
     28 C28        -6.3320   -0.7890    1.6300 cd        1 50V     -0.094600
     29 N29        -6.4050   -1.4600    2.8660 na        1 50V      0.112400
     30 N30        -5.4110   -1.1230    3.6890 nd        1 50V     -0.515800
     31 C31        -7.2930   -0.9600    0.5300 c3        1 50V     -0.036800
     32 C32        -7.4830   -2.3490    3.2400 c3        1 50V      0.033600
     33 H1         -2.2670   -1.0370   -0.7060 h1        1 50V      0.087700
     34 H2         -0.8910   -1.1430   -1.9050 h1        1 50V      0.087700
     35 H3         -1.3960    1.1770   -2.7140 hc        1 50V      0.054033
     36 H4         -2.7280    1.3410   -1.4880 hc        1 50V      0.054033
     37 H5         -2.8520    0.0990   -2.8040 hc        1 50V      0.054033
     38 H6          3.5520    0.0540    0.0600 hx        1 50V      0.135200
     39 H7          2.8770    2.4290   -0.6650 hx        1 50V      0.135200
     40 H8          3.8230   -1.9590   -2.3930 hc        1 50V      0.106075
     41 H9          4.1760   -2.3240   -0.6350 hc        1 50V      0.106075
     42 H10         5.5940   -0.0940   -2.3820 hc        1 50V      0.106075
     43 H11         5.9690   -0.4410   -0.6250 hc        1 50V      0.106075
     44 H12         2.3260    4.0380   -2.5710 hc        1 50V      0.106075
     45 H13         2.4540    2.6970   -3.8100 hc        1 50V      0.106075
     46 H14         2.7000    2.4590    4.9390 h1        1 50V      0.060367
     47 H15         2.8550    1.4840    3.3970 h1        1 50V      0.060367
     48 H16         2.3280    3.2340    3.3240 h1        1 50V      0.060367
     49 H17         2.3050    1.3790    0.9530 ha        1 50V      0.146000
     50 H18        -4.8080    0.6910    0.9160 ha        1 50V      0.175000
     51 H19        -3.5280    0.5660    4.5610 hn        1 50V      0.483800
     52 H20         0.5080    2.3720    6.1600 h5        1 50V      0.088800
     53 H21         4.8970    2.2710   -3.1240 hc        1 50V      0.106075
     54 H22         4.7950    3.6100   -1.8800 hc        1 50V      0.106075
     55 H23        -7.2600   -2.0070    0.1320 hc        1 50V      0.058367
     56 H24        -8.3370   -0.7470    0.8730 hc        1 50V      0.058367
     57 H25        -7.0390   -0.2550   -0.2990 hc        1 50V      0.058367
     58 H26        -7.7650   -2.9570    2.3400 h1        1 50V      0.067033
     59 H27        -8.3670   -1.7440    3.5750 h1        1 50V      0.067033
     60 H28        -7.1640   -3.0300    4.0720 h1        1 50V      0.067033
     61 H161        3.1310    0.4370   -2.8630 hn        1 50V      0.446800
@<TRIPOS>BOND
     1    1    2 1   
     2    1    3 1   
     3    1   15 1   
     4    2    4 1   
     5    2   12 2   
     6    3    5 1   
     7    3   33 1   
     8    3   34 1   
     9    4   24 1   
    10    4   25 2   
    11    5   35 1   
    12    5   36 1   
    13    5   37 1   
    14    6    8 1   
    15    6    9 1   
    16    6   24 1   
    17    6   38 1   
    18    7   10 1   
    19    7   24 1   
    20    7   26 1   
    21    7   39 1   
    22    8    9 1   
    23    8   40 1   
    24    8   41 1   
    25    9   42 1   
    26    9   43 1   
    27   10   26 1   
    28   10   44 1   
    29   10   45 1   
    30   11   23 1   
    31   11   46 1   
    32   11   47 1   
    33   11   48 1   
    34   12   14 1   
    35   12   49 1   
    36   13   27 1   
    37   13   28 2   
    38   13   50 1   
    39   14   15 ar  
    40   14   19 ar  
    41   15   16 ar  
    42   16   17 ar  
    43   17   18 ar  
    44   17   20 1   
    45   18   19 ar  
    46   18   21 1   
    47   19   23 1   
    48   20   27 1   
    49   20   51 1   
    50   21   22 2   
    51   22   23 1   
    52   22   52 1   
    53   24   61 1   
    54   26   53 1   
    55   26   54 1   
    56   27   30 2   
    57   28   29 1   
    58   28   31 1   
    59   29   30 1   
    60   29   32 1   
    61   31   55 1   
    62   31   56 1   
    63   31   57 1   
    64   32   58 1   
    65   32   59 1   
    66   32   60 1   
@<TRIPOS>SUBSTRUCTURE
     1 50V         1 TEMP              0 ****  ****    0 ROOT
