@<TRIPOS>MOLECULE
50V
   61    66     1     0     0
SMALL
bcc


@<TRIPOS>ATOM
      1 N14        -0.6430    0.3540   -0.3220 na        1 50V     -0.116100
      2 C13         0.7490    0.6230   -0.4840 cc        1 50V     -0.252300
      3 C18        -1.5300   -0.2170   -1.3080 c3        1 50V      0.026300
      4 C15         1.3830    0.4560   -1.7500 c         1 50V      0.602300
      5 C19        -1.4560   -1.7310   -1.4370 c3        1 50V     -0.115100
      6 C20         3.7230   -0.0780   -1.0780 cx        1 50V      0.014500
      7 C21         3.1310    2.2300   -1.6590 cx        1 50V      0.014500
      8 C22         4.0690   -1.4760   -1.5520 cx        1 50V     -0.103900
      9 C23         5.1350   -0.4260   -1.5070 cx        1 50V     -0.103900
     10 C24         2.8650    3.2530   -2.7460 cx        1 50V     -0.103900
     11 C11         2.2970    2.1160    3.9780 c3        1 50V      0.023600
     12 C12         1.2810    1.0640    0.7620 cd        1 50V     -0.037200
     13 C27        -5.2550    0.4030    1.6030 cc        1 50V     -0.261300
     14 C1          0.2430    1.0400    1.7030 ca        1 50V     -0.248100
     15 C2         -0.9710    0.5680    1.0150 ca        1 50V      0.558800
     16 N3         -2.2080    0.3880    1.5640 nb        1 50V     -0.782000
     17 C4         -2.3520    0.6870    2.8880 ca        1 50V      0.811200
     18 C5         -1.2180    1.1550    3.6780 ca        1 50V     -0.121900
     19 C6          0.0740    1.3300    3.0720 ca        1 50V      0.005800
     20 N7         -3.5720    0.6010    3.5130 nu        1 50V     -0.771600
     21 N8         -1.1530    1.4910    5.0360 nc        1 50V     -0.523100
     22 C9          0.1200    1.8570    5.2530 cd        1 50V      0.400700
     23 N10         0.9180    1.7740    4.0840 na        1 50V     -0.133300
     24 N16         2.8730    0.8000   -1.9020 nx        1 50V     -0.521200
     25 O17         0.9120    0.0550   -2.8170 o         1 50V     -0.504100
     26 C25         4.2750    2.9470   -2.3490 cx        1 50V     -0.103900
     27 C26        -4.7230    0.0680    2.9100 cc        1 50V      0.489200
     28 C28        -6.4390   -0.3430    1.4990 cd        1 50V     -0.093600
     29 N29        -6.5640   -1.0730    2.6980 na        1 50V      0.112400
     30 N30        -5.5580   -0.8400    3.5420 nd        1 50V     -0.516800
     31 C31        -7.4000   -0.3970    0.3860 c3        1 50V     -0.036800
     32 C32        -7.6970   -1.9110    3.0190 c3        1 50V      0.033600
     33 H1         -1.2860    0.2540   -2.3040 h1        1 50V      0.086200
     34 H2         -2.5830    0.0790   -1.0280 h1        1 50V      0.086200
     35 H3         -2.2150   -2.0530   -2.1910 hc        1 50V      0.055033
     36 H4         -1.6820   -2.2340   -0.4660 hc        1 50V      0.055033
     37 H5         -0.4470   -2.0540   -1.7880 hc        1 50V      0.055033
     38 H6          3.5180    0.0800    0.0040 hx        1 50V      0.135200
     39 H7          2.8900    2.5000   -0.6060 hx        1 50V      0.135200
     40 H8          3.7070   -1.8340   -2.5350 hc        1 50V      0.106200
     41 H9          4.0590   -2.2850   -0.7970 hc        1 50V      0.106200
     42 H10         5.5380   -0.0290   -2.4570 hc        1 50V      0.106200
     43 H11         5.9120   -0.4630   -0.7200 hc        1 50V      0.106200
     44 H12         2.5010    2.9260   -3.7390 hc        1 50V      0.106200
     45 H13         2.4000    4.2110   -2.4390 hc        1 50V      0.106200
     46 H14         2.8480    1.3150    3.4150 h1        1 50V      0.060367
     47 H15         2.4170    3.0920    3.4330 h1        1 50V      0.060367
     48 H16         2.7380    2.2140    5.0060 h1        1 50V      0.060367
     49 H17         2.3050    1.3710    0.9670 ha        1 50V      0.146000
     50 H18        -4.8220    1.0750    0.8720 ha        1 50V      0.175000
     51 H19        -3.5810    0.6760    4.5120 hn        1 50V      0.483800
     52 H20         0.5360    2.1860    6.2140 h5        1 50V      0.088800
     53 H21         4.8510    3.6800   -1.7520 hc        1 50V      0.106200
     54 H22         4.9250    2.3980   -3.0560 hc        1 50V      0.106200
     55 H23        -8.4320   -0.1390    0.7350 hc        1 50V      0.058367
     56 H24        -7.4270   -1.4210   -0.0660 hc        1 50V      0.058367
     57 H25        -7.0970    0.3340   -0.4030 hc        1 50V      0.058367
     58 H26        -8.0120   -2.4490    2.0860 h1        1 50V      0.066700
     59 H27        -7.4260   -2.6570    3.8120 h1        1 50V      0.066700
     60 H28        -8.5440   -1.2710    3.3860 h1        1 50V      0.066700
     61 H161        3.0970    0.6070   -2.8960 hn        1 50V      0.446800
@<TRIPOS>BOND
     1    1    2 1   
     2    1    3 1   
     3    1   15 1   
     4    2    4 1   
     5    2   12 2   
     6    3    5 1   
     7    3   33 1   
     8    3   34 1   
     9    4   24 1   
    10    4   25 2   
    11    5   35 1   
    12    5   36 1   
    13    5   37 1   
    14    6    8 1   
    15    6    9 1   
    16    6   24 1   
    17    6   38 1   
    18    7   10 1   
    19    7   24 1   
    20    7   26 1   
    21    7   39 1   
    22    8    9 1   
    23    8   40 1   
    24    8   41 1   
    25    9   42 1   
    26    9   43 1   
    27   10   26 1   
    28   10   44 1   
    29   10   45 1   
    30   11   23 1   
    31   11   46 1   
    32   11   47 1   
    33   11   48 1   
    34   12   14 1   
    35   12   49 1   
    36   13   27 1   
    37   13   28 2   
    38   13   50 1   
    39   14   15 ar  
    40   14   19 ar  
    41   15   16 ar  
    42   16   17 ar  
    43   17   18 ar  
    44   17   20 1   
    45   18   19 ar  
    46   18   21 1   
    47   19   23 1   
    48   20   27 1   
    49   20   51 1   
    50   21   22 2   
    51   22   23 1   
    52   22   52 1   
    53   24   61 1   
    54   26   53 1   
    55   26   54 1   
    56   27   30 2   
    57   28   29 1   
    58   28   31 1   
    59   29   30 1   
    60   29   32 1   
    61   31   55 1   
    62   31   56 1   
    63   31   57 1   
    64   32   58 1   
    65   32   59 1   
    66   32   60 1   
@<TRIPOS>SUBSTRUCTURE
     1 50V         1 TEMP              0 ****  ****    0 ROOT
