@<TRIPOS>MOLECULE
50W
   60    65     1     0     0
SMALL
bcc


@<TRIPOS>ATOM
      1 C13         0.0620   -0.8390   -0.0050 c         1 50W      0.594300
      2 C17         1.4920   -1.7490   -3.2210 c3        1 50W     -0.116100
      3 C16         1.5580   -0.3610   -2.6050 c3        1 50W      0.028300
      4 C20        -1.7700    0.0110    1.4050 cx        1 50W      0.014500
      5 C21        -0.8650   -2.1810    1.9080 cx        1 50W      0.014500
      6 C22        -0.0080   -3.3830    1.5690 cx        1 50W     -0.103900
      7 C23        -1.4000   -3.2910    1.0270 cx        1 50W     -0.103900
      8 C24        -2.3220    0.5720    2.6990 cx        1 50W     -0.103900
      9 C11         1.4700   -0.5730   -0.0570 cc        1 50W     -0.269300
     10 C1          3.6670   -0.2400    0.4530 ca        1 50W     -0.239100
     11 C2          3.4910   -0.1250   -1.0040 ca        1 50W      0.558800
     12 N3          4.4630    0.1410   -1.9270 nb        1 50W     -0.802000
     13 C4          5.7320    0.3230   -1.4590 ca        1 50W      0.801200
     14 C5          6.0330    0.2240   -0.0380 ca        1 50W     -0.116900
     15 C6          4.9880   -0.0600    0.9100 ca        1 50W      0.007800
     16 N7          7.2550    0.3640    0.6310 nc        1 50W     -0.521100
     17 C8          6.9730    0.1750    1.9300 cd        1 50W      0.405700
     18 N9          5.5990   -0.0910    2.1580 na        1 50W     -0.131300
     19 C10         2.4100   -0.5150    1.0110 cd        1 50W     -0.049200
     20 N12         2.1390   -0.3090   -1.2840 na        1 50W     -0.110100
     21 C14         4.9820   -0.3150    3.4230 c3        1 50W      0.022600
     22 N15         6.7660    0.5990   -2.3170 nh        1 50W     -0.773600
     23 N18        -0.5520   -0.8290    1.4000 n4        1 50W     -0.519200
     24 O19        -0.7210   -1.0600   -0.9280 o         1 50W     -0.481100
     25 C25        -1.6860    1.4930    1.7030 cx        1 50W     -0.103900
     26 C26         6.6440    0.7370   -3.7060 cc        1 50W      0.573300
     27 N27         7.7220    1.0260   -4.4770 nd        1 50W     -0.656000
     28 S28         5.1700    0.5640   -4.5920 ss        1 50W     -0.000300
     29 C29         7.3310    1.1060   -5.8030 cd        1 50W      0.374600
     30 C30         5.9690    0.8790   -6.0290 cc        1 50W     -0.230700
     31 C31         8.3090    1.4250   -6.8700 c3        1 50W     -0.129400
     32 C32         5.3070    0.9050   -7.3350 c3        1 50W     -0.018800
     33 H1          2.5050   -2.2150   -3.2890 hc        1 50W      0.057033
     34 H2          0.8230   -2.4180   -2.6290 hc        1 50W      0.057033
     35 H3          1.0740   -1.6530   -4.2530 hc        1 50W      0.057033
     36 H4          0.5140    0.0640   -2.5370 h1        1 50W      0.084700
     37 H5          2.1710    0.3140   -3.2720 h1        1 50W      0.084700
     38 H6         -2.4760   -0.3500    0.6210 hx        1 50W      0.143200
     39 H7         -1.2800   -2.0900    2.9400 hx        1 50W      0.143200
     40 H8          0.8450   -3.2710    0.8720 hc        1 50W      0.107825
     41 H9          0.2200   -4.0920    2.3880 hc        1 50W      0.107825
     42 H10        -1.5450   -3.1130   -0.0570 hc        1 50W      0.107825
     43 H11        -2.2000   -3.9290    1.4490 hc        1 50W      0.107825
     44 H12        -1.8030    0.3760    3.6550 hc        1 50W      0.107825
     45 H13        -3.4220    0.5720    2.8250 hc        1 50W      0.107825
     46 H14         7.6990    0.2100    2.7530 h5        1 50W      0.091800
     47 H15         2.2100   -0.6730    2.0690 ha        1 50W      0.146000
     48 H16         5.7730   -0.5230    4.1930 h1        1 50W      0.061700
     49 H17         4.3950    0.5910    3.7360 h1        1 50W      0.061700
     50 H18         4.2880   -1.1960    3.3600 h1        1 50W      0.061700
     51 H19         7.6830    0.7170   -1.9240 hn        1 50W      0.498800
     52 H20        -0.7140    1.9600    1.9480 hc        1 50W      0.107825
     53 H21        -2.3190    2.1690    1.0950 hc        1 50W      0.107825
     54 H22         7.9170    1.0750   -7.8570 hc        1 50W      0.059033
     55 H23         8.4680    2.5320   -6.9180 hc        1 50W      0.059033
     56 H24         9.2960    0.9350   -6.6780 hc        1 50W      0.059033
     57 H25         5.7300    0.1110   -8.0040 hc        1 50W      0.052367
     58 H26         4.2070    0.7320   -7.2370 hc        1 50W      0.052367
     59 H27         5.4650    1.8960   -7.8340 hc        1 50W      0.052367
     60 H181        0.1330   -0.4140    2.0450 hn        1 50W      0.441800
@<TRIPOS>BOND
     1    1    9 1   
     2    1   23 1   
     3    1   24 2   
     4    2    3 1   
     5    2   33 1   
     6    2   34 1   
     7    2   35 1   
     8    3   20 1   
     9    3   36 1   
    10    3   37 1   
    11    4    8 1   
    12    4   23 1   
    13    4   25 1   
    14    4   38 1   
    15    5    6 1   
    16    5    7 1   
    17    5   23 1   
    18    5   39 1   
    19    6    7 1   
    20    6   40 1   
    21    6   41 1   
    22    7   42 1   
    23    7   43 1   
    24    8   25 1   
    25    8   44 1   
    26    8   45 1   
    27    9   19 2   
    28    9   20 1   
    29   10   11 ar  
    30   10   15 ar  
    31   10   19 1   
    32   11   12 ar  
    33   11   20 1   
    34   12   13 ar  
    35   13   14 ar  
    36   13   22 1   
    37   14   15 ar  
    38   14   16 1   
    39   15   18 1   
    40   16   17 2   
    41   17   18 1   
    42   17   46 1   
    43   18   21 1   
    44   19   47 1   
    45   21   48 1   
    46   21   49 1   
    47   21   50 1   
    48   22   26 1   
    49   22   51 1   
    50   23   60 1   
    51   25   52 1   
    52   25   53 1   
    53   26   27 2   
    54   26   28 1   
    55   27   29 1   
    56   28   30 1   
    57   29   30 2   
    58   29   31 1   
    59   30   32 1   
    60   31   54 1   
    61   31   55 1   
    62   31   56 1   
    63   32   57 1   
    64   32   58 1   
    65   32   59 1   
@<TRIPOS>SUBSTRUCTURE
     1 50W         1 TEMP              0 ****  ****    0 ROOT
