@<TRIPOS>MOLECULE
50W
   60    65     1     0     0
SMALL
bcc


@<TRIPOS>ATOM
      1 C13         0.0620   -0.8450   -0.0070 c         1 50W      0.594300
      2 C17         1.5000   -1.7530   -3.2210 c3        1 50W     -0.116100
      3 C16         1.5610   -0.3640   -2.6050 c3        1 50W      0.028300
      4 C20        -1.7740    0.0030    1.3990 cx        1 50W      0.014500
      5 C21        -0.8640   -2.1870    1.9060 cx        1 50W      0.014500
      6 C22        -0.0030   -3.3870    1.5710 cx        1 50W     -0.103900
      7 C23        -1.3950   -3.2990    1.0260 cx        1 50W     -0.103900
      8 C24        -2.3290    0.5630    2.6910 cx        1 50W     -0.103900
      9 C11         1.4700   -0.5750   -0.0580 cc        1 50W     -0.269300
     10 C1          3.6650   -0.2380    0.4560 ca        1 50W     -0.239100
     11 C2          3.4910   -0.1230   -1.0010 ca        1 50W      0.558800
     12 N3          4.4640    0.1450   -1.9230 nb        1 50W     -0.802000
     13 C4          5.7320    0.3300   -1.4530 ca        1 50W      0.801200
     14 C5          6.0300    0.2320   -0.0320 ca        1 50W     -0.116900
     15 C6          4.9850   -0.0540    0.9150 ca        1 50W      0.007800
     16 N7          7.2520    0.3750    0.6390 nc        1 50W     -0.521100
     17 C8          6.9680    0.1860    1.9380 cd        1 50W      0.405700
     18 N9          5.5940   -0.0840    2.1640 na        1 50W     -0.131300
     19 C10         2.4080   -0.5150    1.0120 cd        1 50W     -0.049200
     20 N12         2.1400   -0.3110   -1.2830 na        1 50W     -0.110100
     21 C14         4.9750   -0.3080    3.4280 c3        1 50W      0.022600
     22 N15         6.7660    0.6080   -2.3100 nu        1 50W     -0.772600
     23 N18        -0.5540   -0.8350    1.3970 nx        1 50W     -0.519200
     24 O19        -0.7190   -1.0690   -0.9310 o         1 50W     -0.481100
     25 C25        -1.6940    1.4850    1.6960 cx        1 50W     -0.103900
     26 C26         6.6460    0.7450   -3.6990 cc        1 50W      0.570300
     27 N27         7.7240    1.0380   -4.4680 nd        1 50W     -0.654000
     28 S28         5.1730    0.5670   -4.5870 ss        1 50W      0.004700
     29 C29         7.3340    1.1170   -5.7930 cd        1 50W      0.373600
     30 C30         5.9720    0.8840   -6.0210 cc        1 50W     -0.235700
     31 C31         8.2980    1.4280   -6.8750 c3        1 50W     -0.129400
     32 C32         5.3280    0.9130   -7.3350 c3        1 50W     -0.017800
     33 H1          1.0830   -1.6580   -4.2540 hc        1 50W      0.057033
     34 H2          0.8320   -2.4240   -2.6290 hc        1 50W      0.057033
     35 H3          2.5140   -2.2160   -3.2870 hc        1 50W      0.057033
     36 H4          0.5160    0.0580   -2.5390 h1        1 50W      0.084200
     37 H5          2.1730    0.3110   -3.2720 h1        1 50W      0.084200
     38 H6         -2.4780   -0.3610    0.6140 hx        1 50W      0.143200
     39 H7         -1.2820   -2.0950    2.9370 hx        1 50W      0.143200
     40 H8          0.2250   -4.0950    2.3910 hc        1 50W      0.107825
     41 H9          0.8510   -3.2730    0.8760 hc        1 50W      0.107825
     42 H10        -1.5370   -3.1230   -0.0590 hc        1 50W      0.107825
     43 H11        -2.1930   -3.9400    1.4460 hc        1 50W      0.107825
     44 H12        -1.8120    0.3700    3.6490 hc        1 50W      0.107825
     45 H13        -3.4300    0.5610    2.8160 hc        1 50W      0.107825
     46 H14         7.6930    0.2230    2.7620 h5        1 50W      0.091800
     47 H15         2.2060   -0.6730    2.0700 ha        1 50W      0.146000
     48 H16         5.7660   -0.5140    4.1990 h1        1 50W      0.061700
     49 H17         4.2830   -1.1900    3.3640 h1        1 50W      0.061700
     50 H18         4.3860    0.5980    3.7400 h1        1 50W      0.061700
     51 H19         7.6830    0.7280   -1.9150 hn        1 50W      0.498800
     52 H20        -2.3280    2.1590    1.0860 hc        1 50W      0.107825
     53 H21        -0.7230    1.9550    1.9410 hc        1 50W      0.107825
     54 H22         8.2440    0.6300   -7.6590 hc        1 50W      0.059033
     55 H23         8.0230    2.4060   -7.3450 hc        1 50W      0.059033
     56 H24         9.3480    1.4930   -6.4990 hc        1 50W      0.059033
     57 H25         5.4760    1.9130   -7.8190 hc        1 50W      0.052033
     58 H26         5.7790    0.1370   -8.0070 hc        1 50W      0.052033
     59 H27         4.2300    0.7170   -7.2580 hc        1 50W      0.052033
     60 H181        0.1290   -0.4180    2.0420 hn        1 50W      0.441800
@<TRIPOS>BOND
     1    1    9 1   
     2    1   23 1   
     3    1   24 2   
     4    2    3 1   
     5    2   33 1   
     6    2   34 1   
     7    2   35 1   
     8    3   20 1   
     9    3   36 1   
    10    3   37 1   
    11    4    8 1   
    12    4   23 1   
    13    4   25 1   
    14    4   38 1   
    15    5    6 1   
    16    5    7 1   
    17    5   23 1   
    18    5   39 1   
    19    6    7 1   
    20    6   40 1   
    21    6   41 1   
    22    7   42 1   
    23    7   43 1   
    24    8   25 1   
    25    8   44 1   
    26    8   45 1   
    27    9   19 2   
    28    9   20 1   
    29   10   11 ar  
    30   10   15 ar  
    31   10   19 1   
    32   11   12 ar  
    33   11   20 1   
    34   12   13 ar  
    35   13   14 ar  
    36   13   22 1   
    37   14   15 ar  
    38   14   16 1   
    39   15   18 1   
    40   16   17 2   
    41   17   18 1   
    42   17   46 1   
    43   18   21 1   
    44   19   47 1   
    45   21   48 1   
    46   21   49 1   
    47   21   50 1   
    48   22   26 1   
    49   22   51 1   
    50   23   60 1   
    51   25   52 1   
    52   25   53 1   
    53   26   27 2   
    54   26   28 1   
    55   27   29 1   
    56   28   30 1   
    57   29   30 2   
    58   29   31 1   
    59   30   32 1   
    60   31   54 1   
    61   31   55 1   
    62   31   56 1   
    63   32   57 1   
    64   32   58 1   
    65   32   59 1   
@<TRIPOS>SUBSTRUCTURE
     1 50W         1 TEMP              0 ****  ****    0 ROOT
