@<TRIPOS>MOLECULE
50X
   68    72     1     0     0
SMALL
bcc


@<TRIPOS>ATOM
      1 N1         -0.0740    0.2750    0.8390 n         1 50X     -0.426800
      2 C2          1.3880    0.4650    0.8720 c3        1 50X      0.148000
      3 C3          1.7910    0.4420    2.3640 c3        1 50X     -0.091400
      4 C4          0.4990    0.5210    3.1700 c3        1 50X     -0.089400
      5 C5         -0.6550    0.3460    2.1700 c3        1 50X      0.079000
      6 C6        -10.7800   -3.7400    2.2250 ca        1 50X     -0.054200
      7 C7        -11.5200   -3.3720    3.4190 ca        1 50X      0.055400
      8 C8        -12.8950   -3.1060    3.3330 ca        1 50X     -0.045000
      9 C9        -13.5010   -3.2070    2.0910 ca        1 50X     -0.147000
     10 C10       -12.7780   -3.5710    0.9390 ca        1 50X     -0.088000
     11 C11       -11.4180   -3.8420    0.9820 ca        1 50X     -0.143000
     12 N12        -9.4570   -3.9720    2.6390 na        1 50X     -0.151300
     13 C13        -9.4460   -3.7080    4.0370 cc        1 50X      0.317800
     14 N14       -10.6490   -3.3660    4.5270 nd        1 50X     -0.476100
     15 C15        -6.9140   -1.4440   -0.5890 cc        1 50X     -0.263400
     16 S16        -7.4560   -3.0280   -0.5690 ss        1 50X      0.115200
     17 C17        -7.8160   -3.0080    1.0580 cc        1 50X     -0.114400
     18 C18        -7.5450   -1.7710    1.6260 cd        1 50X     -0.137000
     19 C19        -7.0290   -0.8580    0.6690 cd        1 50X     -0.091000
     20 C20        -0.6950   -0.2580   -0.2460 c         1 50X      0.633100
     21 C21        -2.2260   -0.4380   -0.2610 c3        1 50X      0.034100
     22 C22        -2.8030    0.5680   -1.2870 c3        1 50X      0.062100
     23 C23        -4.3290    0.5270   -1.2020 c         1 50X      0.548100
     24 O24        -5.0340    1.3400   -0.6290 o         1 50X     -0.405100
     25 N25        -4.9570   -0.6590   -1.8760 ny        1 50X     -0.674800
     26 O26        -2.5580   -1.7470   -0.6740 oh        1 50X     -0.612800
     27 C27        -6.4570   -0.7360   -1.7920 c3        1 50X      0.221100
     28 O28        -2.4690    0.1990   -2.6110 oh        1 50X     -0.626800
     29 O29        -0.1000   -0.5800   -1.3020 o         1 50X     -0.627100
     30 C30        -8.3360   -4.2040    1.7830 c3        1 50X      0.115600
     31 C31        -8.1830   -3.8700    4.8880 c3        1 50X      0.647600
     32 F32        -7.5670   -5.0860    4.7250 f         1 50X     -0.220633
     33 F33        -7.2080   -2.9510    4.5790 f         1 50X     -0.220633
     34 F34        -8.3730   -3.7420    6.2340 f         1 50X     -0.220633
     35 C35         1.8150    1.7380    0.1910 ca        1 50X     -0.109300
     36 C36         2.4460    1.6620   -1.0540 ca        1 50X     -0.104000
     37 C37         2.8700    2.8360   -1.6860 ca        1 50X      0.012400
     38 C38         2.6630    4.0830   -1.0870 ca        1 50X     -0.108000
     39 C39         2.0220    4.1490    0.1500 ca        1 50X     -0.123000
     40 C40         1.5970    2.9850    0.7860 ca        1 50X     -0.118000
     41 Cl41        3.6400    2.7430   -3.1960 cl        1 50X     -0.072400
     42 H2          1.8640   -0.4090    0.3310 h1        1 50X      0.087700
     43 H3          2.4720    1.2960    2.6030 hc        1 50X      0.075200
     44 H3A         2.3400   -0.5070    2.5870 hc        1 50X      0.075200
     45 H4          0.4610   -0.2780    3.9500 hc        1 50X      0.069200
     46 H4A         0.4110    1.5100    3.6850 hc        1 50X      0.069200
     47 H5         -1.3610    1.2200    2.2220 h1        1 50X      0.051200
     48 H5A        -1.2320   -0.5930    2.3980 h1        1 50X      0.051200
     49 H10       -13.3110   -3.6440   -0.0220 ha        1 50X      0.143000
     50 H11       -10.8670   -4.1360    0.0800 ha        1 50X      0.133000
     51 H18        -7.7020   -1.5200    2.6810 ha        1 50X      0.190000
     52 H19        -6.7670    0.1800    0.9000 ha        1 50X      0.172000
     53 H21        -2.7080   -0.3020    0.7460 h1        1 50X      0.112700
     54 H22        -2.4650    1.6190   -1.0600 h1        1 50X      0.125700
     55 HN25       -4.5320   -1.5020   -1.4480 hn        1 50X      0.479300
     56 HO26       -1.8940   -2.0400   -1.3220 ho        1 50X      0.455000
     57 H27        -6.8540    0.3230   -1.7990 hx        1 50X      0.113700
     58 H27A       -6.8060   -1.2620   -2.7290 hx        1 50X      0.113700
     59 HO28       -1.4960    0.1980   -2.6880 ho        1 50X      0.487000
     60 H30        -7.4940   -4.6260    2.4140 h1        1 50X      0.089200
     61 H30A       -8.6420   -4.9900    1.0280 h1        1 50X      0.089200
     62 H36         2.6050    0.6830   -1.5360 ha        1 50X      0.159000
     63 H38         3.0060    5.0040   -1.5850 ha        1 50X      0.158000
     64 H39         1.8580    5.1280    0.6260 ha        1 50X      0.147000
     65 H40         1.0950    3.0450    1.7640 ha        1 50X      0.134000
     66 H8        -13.4660   -2.8320    4.2330 ha        1 50X      0.163000
     67 H252       -4.6610   -0.6250   -2.8620 hn        1 50X      0.479300
     68 H9        -14.5800   -3.0050    1.9970 ha        1 50X      0.149000
@<TRIPOS>BOND
     1    1    2 1   
     2    1    5 1   
     3    1   20 1   
     4    2    3 1   
     5    2   35 1   
     6    2   42 1   
     7    3    4 1   
     8    3   43 1   
     9    3   44 1   
    10    4    5 1   
    11    4   45 1   
    12    4   46 1   
    13    5   47 1   
    14    5   48 1   
    15    6    7 ar  
    16    6   11 ar  
    17    6   12 1   
    18    7    8 ar  
    19    7   14 1   
    20    8    9 ar  
    21    8   66 1   
    22    9   10 ar  
    23    9   68 1   
    24   10   11 ar  
    25   10   49 1   
    26   11   50 1   
    27   12   13 1   
    28   12   30 1   
    29   13   14 2   
    30   13   31 1   
    31   15   16 1   
    32   15   19 2   
    33   15   27 1   
    34   16   17 1   
    35   17   18 2   
    36   17   30 1   
    37   18   19 1   
    38   18   51 1   
    39   19   52 1   
    40   20   21 1   
    41   20   29 2   
    42   21   22 1   
    43   21   26 1   
    44   21   53 1   
    45   22   23 1   
    46   22   28 1   
    47   22   54 1   
    48   23   24 2   
    49   23   25 1   
    50   25   27 1   
    51   25   55 1   
    52   25   67 1   
    53   26   56 1   
    54   27   57 1   
    55   27   58 1   
    56   28   59 1   
    57   30   60 1   
    58   30   61 1   
    59   31   32 1   
    60   31   33 1   
    61   31   34 1   
    62   35   36 ar  
    63   35   40 ar  
    64   36   37 ar  
    65   36   62 1   
    66   37   38 ar  
    67   37   41 1   
    68   38   39 ar  
    69   38   63 1   
    70   39   40 ar  
    71   39   64 1   
    72   40   65 1   
@<TRIPOS>SUBSTRUCTURE
     1 50X         1 TEMP              0 ****  ****    0 ROOT
