@<TRIPOS>MOLECULE
50X
   67    71     1     0     0
SMALL
bcc


@<TRIPOS>ATOM
      1 N1         -3.8440   -0.5760    1.7210 n         1 50X     -0.447800
      2 C2         -4.2980   -1.6250    0.8040 c3        1 50X      0.149000
      3 C3         -4.6930   -2.8360    1.6880 c3        1 50X     -0.089400
      4 C4         -4.1880   -2.5330    3.0930 c3        1 50X     -0.092400
      5 C5         -3.6900   -1.0780    3.0750 c3        1 50X      0.081000
      6 C6          4.9590    0.2470   -1.5280 ca        1 50X     -0.051200
      7 C7          5.5270   -0.7250   -2.4460 ca        1 50X      0.053400
      8 C8          6.3330   -0.2880   -3.5100 ca        1 50X     -0.056000
      9 C9          6.5550    1.0720   -3.6440 ca        1 50X     -0.153000
     10 C10         6.0010    2.0070   -2.7480 ca        1 50X     -0.099000
     11 C11         5.2030    1.6190   -1.6850 ca        1 50X     -0.131000
     12 N12         4.2410   -0.4880   -0.5720 na        1 50X     -0.134300
     13 C13         4.3730   -1.8430   -0.9620 cc        1 50X      0.319800
     14 N14         5.1390   -2.0190   -2.0560 nd        1 50X     -0.498100
     15 C15         0.2880    2.2210   -0.4780 cc        1 50X     -0.148400
     16 S16         1.7850    2.3080    0.2620 ss        1 50X      0.066200
     17 C17         2.1430    0.6940   -0.0110 cc        1 50X     -0.179400
     18 C18         1.1110    0.0570   -0.6780 cd        1 50X     -0.121000
     19 C19         0.0340    0.9480   -0.9560 cd        1 50X     -0.147000
     20 C20        -3.8890    0.7530    1.3830 c         1 50X      0.640100
     21 C21        -3.5190    1.8100    2.4410 c3        1 50X      0.051100
     22 C22        -3.6000    3.2250    1.8260 c3        1 50X      0.045100
     23 C23        -2.2360    3.6220    1.2520 c         1 50X      0.629100
     24 O24        -1.4800    4.3530    1.9270 o         1 50X     -0.616100
     25 N25        -1.9310    3.1820   -0.0130 n         1 50X     -0.541900
     26 O26        -4.3490    1.7140    3.5770 oh        1 50X     -0.586800
     27 C27        -0.6320    3.3850   -0.5970 c3        1 50X      0.161300
     28 O28        -4.0100    4.1380    2.8180 oh        1 50X     -0.583800
     29 O29        -4.1600    1.1100    0.2140 o         1 50X     -0.638100
     30 C30         3.3980    0.0560    0.4580 c3        1 50X      0.126600
     31 C31         3.7430   -2.9890   -0.1660 c3        1 50X      0.648600
     32 F32         4.0850   -2.9820    1.1640 f         1 50X     -0.224300
     33 F33         2.3700   -2.9620   -0.1660 f         1 50X     -0.224300
     34 F34         4.0660   -4.2430   -0.6040 f         1 50X     -0.224300
     35 C35        -3.2630   -2.0390   -0.2120 ca        1 50X     -0.087300
     36 C36        -3.5780   -1.9720   -1.5720 ca        1 50X     -0.107000
     37 C37        -2.6400   -2.3960   -2.5180 ca        1 50X      0.011400
     38 C38        -1.3870   -2.8720   -2.1210 ca        1 50X     -0.122000
     39 C39        -1.0750   -2.9200   -0.7620 ca        1 50X     -0.128000
     40 C40        -2.0090   -2.5120    0.1890 ca        1 50X     -0.114000
     41 CL41       -3.0290   -2.3280   -4.1730 cl        1 50X     -0.093400
     42 H2         -5.2040   -1.2360    0.2500 h1        1 50X      0.076700
     43 H3         -5.8040   -2.9550    1.6810 hc        1 50X      0.061200
     44 H3A        -4.2410   -3.7770    1.2900 hc        1 50X      0.061200
     45 H4         -5.0020   -2.6550    3.8490 hc        1 50X      0.055700
     46 H4A        -3.3520   -3.2200    3.3720 hc        1 50X      0.055700
     47 H5         -2.6030   -1.0260    3.3620 h1        1 50X      0.061200
     48 H5A        -4.2760   -0.4520    3.8030 h1        1 50X      0.061200
     49 H9          7.1820    1.4400   -4.4710 ha        1 50X      0.138000
     50 H10         6.2110    3.0770   -2.9020 ha        1 50X      0.137000
     51 H11         4.7720    2.3540   -0.9920 ha        1 50X      0.141000
     52 H18         1.1010   -1.0020   -0.9570 ha        1 50X      0.165000
     53 H19        -0.8760    0.6440   -1.4790 ha        1 50X      0.166000
     54 H21        -2.4780    1.5950    2.8210 h1        1 50X      0.096700
     55 H22        -4.4100    3.2720    1.0400 h1        1 50X      0.125700
     56 HN25       -2.5170    2.4850   -0.4240 hn        1 50X      0.340500
     57 HO26       -5.1050    2.3070    3.4540 ho        1 50X      0.431000
     58 H27        -0.1610    4.2930   -0.1160 h1        1 50X      0.076200
     59 H27A       -0.7860    3.6040   -1.6960 h1        1 50X      0.076200
     60 HO28       -3.2420    4.3430    3.3750 ho        1 50X      0.435000
     61 H30         3.1350   -0.7870    1.1650 h1        1 50X      0.076700
     62 H30A        4.0150    0.8160    1.0260 h1        1 50X      0.076700
     63 H36        -4.5550   -1.5820   -1.8970 ha        1 50X      0.153000
     64 H38        -0.6520   -3.2030   -2.8700 ha        1 50X      0.150000
     65 H39        -0.0840   -3.2800   -0.4440 ha        1 50X      0.145000
     66 H40        -1.7620   -2.5590    1.2610 ha        1 50X      0.137000
     67 H8          6.7690   -1.0150   -4.2100 ha        1 50X      0.153000
@<TRIPOS>BOND
     1    1    2 1   
     2    1    5 1   
     3    1   20 1   
     4    2    3 1   
     5    2   35 1   
     6    2   42 1   
     7    3    4 1   
     8    3   43 1   
     9    3   44 1   
    10    4    5 1   
    11    4   45 1   
    12    4   46 1   
    13    5   47 1   
    14    5   48 1   
    15    6    7 ar  
    16    6   11 ar  
    17    6   12 1   
    18    7    8 ar  
    19    7   14 1   
    20    8    9 ar  
    21    8   67 1   
    22    9   10 ar  
    23    9   49 1   
    24   10   11 ar  
    25   10   50 1   
    26   11   51 1   
    27   12   13 1   
    28   12   30 1   
    29   13   14 2   
    30   13   31 1   
    31   15   16 1   
    32   15   19 2   
    33   15   27 1   
    34   16   17 1   
    35   17   18 2   
    36   17   30 1   
    37   18   19 1   
    38   18   52 1   
    39   19   53 1   
    40   20   21 1   
    41   20   29 2   
    42   21   22 1   
    43   21   26 1   
    44   21   54 1   
    45   22   23 1   
    46   22   28 1   
    47   22   55 1   
    48   23   24 2   
    49   23   25 1   
    50   25   27 1   
    51   25   56 1   
    52   26   57 1   
    53   27   58 1   
    54   27   59 1   
    55   28   60 1   
    56   30   61 1   
    57   30   62 1   
    58   31   32 1   
    59   31   33 1   
    60   31   34 1   
    61   35   36 ar  
    62   35   40 ar  
    63   36   37 ar  
    64   36   63 1   
    65   37   38 ar  
    66   37   41 1   
    67   38   39 ar  
    68   38   64 1   
    69   39   40 ar  
    70   39   65 1   
    71   40   66 1   
@<TRIPOS>SUBSTRUCTURE
     1 50X         1 TEMP              0 ****  ****    0 ROOT
