@<TRIPOS>MOLECULE
50X
   67    58     1     0     0
SMALL
bcc


@<TRIPOS>ATOM
      1 N1          4.3030    1.3050   -3.6430 n         1 50X     -0.302000
      2 C2          5.1850    2.2280   -3.7270 c3        1 50X      0.060000
      3 C3          5.5910    2.3350   -5.3240 c3        1 50X     -0.169000
      4 C4          5.5940    1.1300   -5.7720 c3        1 50X     -0.171000
      5 C5          4.5830    0.3540   -4.8480 c3        1 50X     -0.039000
      6 C6         -7.2040   -1.7350    3.9590 c1        1 50X     -0.046500
      7 C7         -7.8720   -0.9390    4.8670 c1        1 50X     -0.046500
      8 C8         -9.2180   -0.6290    4.6680 c1        1 50X     -0.094500
      9 C9         -9.8840   -1.1200    3.5570 c1        1 50X     -0.124000
     10 C10        -9.2110   -1.9240    2.6380 c1        1 50X     -0.124000
     11 C11        -7.8750   -2.2310    2.8370 c1        1 50X     -0.094500
     12 N12        -5.9170   -1.8170    4.3460 n1        1 50X     -0.117000
     13 C13        -5.7700   -1.0790    5.4920 c1        1 50X     -0.079000
     14 N14        -6.9830   -0.5410    5.8050 n1        1 50X     -0.117000
     15 C15        -2.5200   -0.7750    1.1730 c1        1 50X     -0.420000
     16 S16        -3.6900   -1.7330    1.5440 ss        1 50X      0.611000
     17 C17        -3.9040   -1.6470    3.0990 c1        1 50X     -0.420000
     18 C18        -2.9370   -0.7090    3.6270 c1        1 50X     -0.135500
     19 C19        -2.0500   -0.1500    2.3960 c1        1 50X     -0.135500
     20 C20         3.2560    1.1700   -2.6340 c2        1 50X      0.317000
     21 C21         2.2130    0.1330   -2.7920 c3        1 50X     -0.004000
     22 C22         1.6440   -0.2200   -1.4280 c3        1 50X     -0.004000
     23 C23         0.1080   -0.3360   -1.5190 c2        1 50X      0.308000
     24 O24        -0.4630   -0.1310   -2.5930 o         1 50X     -0.400000
     25 N25        -0.6480   -0.7860   -0.3750 n         1 50X     -0.354000
     26 O26         1.1800    0.6280   -3.6190 oh        1 50X     -0.318000
     27 C27        -2.0350   -0.4510   -0.2570 c2        1 50X      0.040000
     28 O28         1.9760    0.7640   -0.5280 oh        1 50X     -0.327000
     29 O29         3.1550    2.0240   -1.7150 o         1 50X     -0.389000
     30 C30        -4.7810   -2.5390    3.9010 c1        1 50X      0.059000
     31 C31        -5.1700   -0.6470    6.9040 c2        1 50X      0.509000
     32 F32        -5.9060   -1.2150    7.9070 f         1 50X     -0.151667
     33 F33        -3.8800   -1.0640    6.9960 f         1 50X     -0.151667
     34 F34        -5.2150    0.7160    7.0190 f         1 50X     -0.151667
     35 C35         6.4060    1.8660   -2.9020 c2        1 50X     -0.077000
     36 C36         7.2860    0.8490   -3.3470 c2        1 50X     -0.110000
     37 C37         8.4290    0.5590   -2.6270 c1        1 50X     -0.066000
     38 C38         8.7100    1.2630   -1.4740 c1        1 50X     -0.124000
     39 C39         7.8300    2.2750   -1.0350 c1        1 50X     -0.124000
     40 C40         6.6850    2.5620   -1.7610 c1        1 50X     -0.106000
     41 CL41        9.6200   -0.5400   -3.2920 cl        1 50X     -0.020000
     42 H2          4.8300    3.0330   -3.4350 h1        1 50X      0.119000
     43 H3          4.9100    2.8930   -5.8220 hc        1 50X      0.100000
     44 H3A         6.4860    2.7300   -5.4170 hc        1 50X      0.100000
     45 H4          6.5320    0.7230   -5.6950 hc        1 50X      0.095000
     46 H4A         5.2860    1.1110   -6.7110 hc        1 50X      0.095000
     47 H5          3.7500    0.1670   -5.3350 h1        1 50X      0.101000
     48 H5A         4.9960   -0.5040   -4.5260 h1        1 50X      0.101000
     49 H8         -9.6840   -0.0720    5.3040 ha        1 50X      0.146000
     50 H9        -10.8410   -0.8960    3.4130 ha        1 50X      0.140250
     51 H10        -9.6830   -2.2720    1.8500 ha        1 50X      0.140250
     52 H11        -7.4160   -2.7790    2.2140 ha        1 50X      0.146000
     53 H18        -2.8390   -0.4590    4.5540 DU        1 50X      0.163500
     54 H19        -1.3270    0.4950    2.4620 DU        1 50X      0.163500
     55 H21         2.6140   -0.6870   -3.2110 h1        1 50X      0.119000
     56 H22         2.0190   -1.0750   -1.1290 h1        1 50X      0.113000
     57 HN25       -0.2500   -1.3050    0.2570 hn        1 50X      0.245000
     58 HO26        1.3160    0.3790   -4.4250 ho        1 50X      0.236000
     59 H27        -2.1620    0.5300   -0.4400 h4        1 50X      0.114000
     60 H27A       -2.5630   -0.9840   -0.9170 h4        1 50X      0.114000
     61 HO28        2.0860    0.4110    0.2620 ho        1 50X      0.247000
     62 H30        -4.3170   -2.8530    4.6250 ha        1 50X      0.117500
     63 H30A       -5.0640   -3.2760    3.3590 ha        1 50X      0.117500
     64 H36         7.0860    0.3580   -4.1560 ha        1 50X      0.147000
     65 H38         9.5110    1.0620   -0.9660 ha        1 50X      0.140250
     66 H39         8.0370    2.7980   -0.1810 ha        1 50X      0.140250
     67 H40         6.0690    3.2700   -1.4540 ha        1 50X      0.147000
@<TRIPOS>BOND
     1    1    2 1   
     2    1    5 1   
     3    1   20 1   
     4    2    3 1   
     5    2   35 1   
     6    2   42 1   
     7    3    4 1   
     8    3   43 1   
     9    3   44 1   
    10    4    5 1   
    11    4   45 1   
    12    4   46 1   
    13    5   47 1   
    14    5   48 1   
    15    6   11 1   
    16    7    8 1   
    17    8   49 1   
    18    9   10 1   
    19    9   50 1   
    20   10   51 1   
    21   11   52 1   
    22   12   13 1   
    23   13   14 1   
    24   15   16 1   
    25   15   19 1   
    26   16   17 1   
    27   17   18 1   
    28   18   19 1   
    29   20   21 1   
    30   20   29 1   
    31   21   22 1   
    32   21   26 1   
    33   21   55 1   
    34   22   23 1   
    35   22   28 1   
    36   22   56 1   
    37   23   24 1   
    38   23   25 1   
    39   25   27 1   
    40   25   57 1   
    41   26   58 1   
    42   27   59 1   
    43   27   60 1   
    44   28   61 1   
    45   30   62 1   
    46   30   63 1   
    47   31   32 1   
    48   31   33 1   
    49   31   34 1   
    50   35   36 1   
    51   35   40 1   
    52   36   37 1   
    53   36   64 1   
    54   37   41 1   
    55   38   39 1   
    56   38   65 1   
    57   39   66 1   
    58   40   67 1   
@<TRIPOS>SUBSTRUCTURE
     1 50X         1 TEMP              0 ****  ****    0 ROOT
