@<TRIPOS>MOLECULE
50X
   68    72     1     0     0
SMALL
bcc


@<TRIPOS>ATOM
      1 N1         -0.0620    0.2630    0.8360 n         1 50X     -0.426800
      2 C2          1.4010    0.4460    0.8610 c3        1 50X      0.148000
      3 C3          1.8130    0.4070    2.3500 c3        1 50X     -0.091400
      4 C4          0.5270    0.4820    3.1660 c3        1 50X     -0.089400
      5 C5         -0.6350    0.3220    2.1720 c3        1 50X      0.079000
      6 C6        -10.7940   -3.7350    2.2090 ca        1 50X     -0.054200
      7 C7        -11.5300   -3.3800    3.4090 ca        1 50X      0.055400
      8 C8        -12.9050   -3.1060    3.3290 ca        1 50X     -0.045000
      9 C9        -13.5130   -3.1860    2.0860 ca        1 50X     -0.147000
     10 C10       -12.7920   -3.5350    0.9280 ca        1 50X     -0.088000
     11 C11       -11.4340   -3.8150    0.9660 ca        1 50X     -0.143000
     12 N12        -9.4720   -3.9790    2.6190 na        1 50X     -0.151300
     13 C13        -9.4580   -3.7360    4.0190 cc        1 50X      0.317800
     14 N14       -10.6580   -3.3960    4.5160 nd        1 50X     -0.476100
     15 C15        -6.9230   -1.4160   -0.5770 cc        1 50X     -0.263400
     16 S16        -7.4740   -2.9970   -0.5790 ss        1 50X      0.115200
     17 C17        -7.8280   -3.0000    1.0500 cc        1 50X     -0.114400
     18 C18        -7.5480   -1.7740    1.6350 cd        1 50X     -0.137000
     19 C19        -7.0290   -0.8490    0.6900 cd        1 50X     -0.091000
     20 C20        -0.6930   -0.2570   -0.2500 c         1 50X      0.633100
     21 C21        -2.2250   -0.4310   -0.2570 c3        1 50X      0.034100
     22 C22        -2.8040    0.5910   -1.2660 c3        1 50X      0.062100
     23 C23        -4.3300    0.5530   -1.1720 c         1 50X      0.548100
     24 O24        -5.0290    1.3600   -0.5830 o         1 50X     -0.405100
     25 N25        -4.9660   -0.6220   -1.8590 n4        1 50X     -0.674800
     26 O26        -2.5650   -1.7330   -0.6850 oh        1 50X     -0.613800
     27 C27        -6.4660   -0.6930   -1.7710 c3        1 50X      0.221100
     28 O28        -2.4790    0.2380   -2.5960 oh        1 50X     -0.626800
     29 O29        -0.1060   -0.5710   -1.3130 o         1 50X     -0.627100
     30 C30        -8.3530   -4.2040    1.7570 c3        1 50X      0.115600
     31 C31        -8.1950   -3.9170    4.8670 c3        1 50X      0.647600
     32 F32        -7.5860   -5.1340    4.6850 f         1 50X     -0.220633
     33 F33        -7.2160   -2.9990    4.5700 f         1 50X     -0.220633
     34 F34        -8.3830   -3.8080    6.2140 f         1 50X     -0.220633
     35 C35         1.8280    1.7250    0.1900 ca        1 50X     -0.109300
     36 C36         2.4500    1.6590   -1.0610 ca        1 50X     -0.104000
     37 C37         2.8740    2.8370   -1.6840 ca        1 50X      0.012400
     38 C38         2.6760    4.0780   -1.0700 ca        1 50X     -0.108000
     39 C39         2.0450    4.1350    0.1720 ca        1 50X     -0.123000
     40 C40         1.6190    2.9660    0.7990 ca        1 50X     -0.118000
     41 CL41        3.6330    2.7560   -3.2000 cl        1 50X     -0.072400
     42 H2          1.8690   -0.4240    0.3080 h1        1 50X      0.087700
     43 H3          2.3600   -0.5460    2.5600 hc        1 50X      0.075200
     44 H3A         2.4990    1.2550    2.5930 hc        1 50X      0.075200
     45 H4          0.4910   -0.3240    3.9380 hc        1 50X      0.069200
     46 H4A         0.4470    1.4670    3.6910 hc        1 50X      0.069200
     47 H5         -1.3370    1.1980    2.2370 h1        1 50X      0.051200
     48 H5A        -1.2140   -0.6170    2.3940 h1        1 50X      0.051200
     49 H10       -13.3270   -3.5920   -0.0330 ha        1 50X      0.143000
     50 H11       -10.8850   -4.0970    0.0590 ha        1 50X      0.133000
     51 H18        -7.7000   -1.5380    2.6940 ha        1 50X      0.190000
     52 H19        -6.7610    0.1830    0.9360 ha        1 50X      0.172000
     53 H21        -2.6990   -0.3060    0.7550 h1        1 50X      0.112700
     54 H22        -2.4620    1.6380   -1.0270 h1        1 50X      0.125700
     55 HN25       -4.5430   -1.4720   -1.4420 hn        1 50X      0.479300
     56 HO26       -1.9050   -2.0210   -1.3390 ho        1 50X      0.456000
     57 H27        -6.8580    0.3690   -1.7610 hx        1 50X      0.113700
     58 H27A       -6.8210   -1.2020   -2.7140 hx        1 50X      0.113700
     59 HO28       -1.5070    0.2330   -2.6790 ho        1 50X      0.487000
     60 H30        -8.6640   -4.9780    0.9920 h1        1 50X      0.089200
     61 H30A       -7.5120   -4.6390    2.3810 h1        1 50X      0.089200
     62 H36         2.6010    0.6840   -1.5530 ha        1 50X      0.159000
     63 H38         3.0190    5.0030   -1.5610 ha        1 50X      0.158000
     64 H39         1.8880    5.1090    0.6590 ha        1 50X      0.147000
     65 H40         1.1250    3.0180    1.7820 ha        1 50X      0.134000
     66 H8        -13.4730   -2.8420    4.2330 ha        1 50X      0.163000
     67 H252       -4.6730   -0.5770   -2.8450 hn        1 50X      0.479300
     68 H9        -14.5910   -2.9770    1.9960 ha        1 50X      0.149000
@<TRIPOS>BOND
     1    1    2 1   
     2    1    5 1   
     3    1   20 1   
     4    2    3 1   
     5    2   35 1   
     6    2   42 1   
     7    3    4 1   
     8    3   43 1   
     9    3   44 1   
    10    4    5 1   
    11    4   45 1   
    12    4   46 1   
    13    5   47 1   
    14    5   48 1   
    15    6    7 ar  
    16    6   11 ar  
    17    6   12 1   
    18    7    8 ar  
    19    7   14 1   
    20    8    9 ar  
    21    8   66 1   
    22    9   10 ar  
    23    9   68 1   
    24   10   11 ar  
    25   10   49 1   
    26   11   50 1   
    27   12   13 1   
    28   12   30 1   
    29   13   14 2   
    30   13   31 1   
    31   15   16 1   
    32   15   19 2   
    33   15   27 1   
    34   16   17 1   
    35   17   18 2   
    36   17   30 1   
    37   18   19 1   
    38   18   51 1   
    39   19   52 1   
    40   20   21 1   
    41   20   29 2   
    42   21   22 1   
    43   21   26 1   
    44   21   53 1   
    45   22   23 1   
    46   22   28 1   
    47   22   54 1   
    48   23   24 2   
    49   23   25 1   
    50   25   27 1   
    51   25   55 1   
    52   25   67 1   
    53   26   56 1   
    54   27   57 1   
    55   27   58 1   
    56   28   59 1   
    57   30   60 1   
    58   30   61 1   
    59   31   32 1   
    60   31   33 1   
    61   31   34 1   
    62   35   36 ar  
    63   35   40 ar  
    64   36   37 ar  
    65   36   62 1   
    66   37   38 ar  
    67   37   41 1   
    68   38   39 ar  
    69   38   63 1   
    70   39   40 ar  
    71   39   64 1   
    72   40   65 1   
@<TRIPOS>SUBSTRUCTURE
     1 50X         1 TEMP              0 ****  ****    0 ROOT
