@<TRIPOS>MOLECULE
50X
   68    72     1     0     0
SMALL
bcc


@<TRIPOS>ATOM
      1 N1         -0.0790    0.2870    0.8560 n         1 50X     -0.426800
      2 C2          1.3820    0.4810    0.8970 c3        1 50X      0.148000
      3 C3          1.7760    0.4620    2.3920 c3        1 50X     -0.091400
      4 C4          0.4800    0.5390    3.1900 c3        1 50X     -0.089400
      5 C5         -0.6680    0.3580    2.1840 c3        1 50X      0.079000
      6 C6        -10.7760   -3.7550    2.2040 ca        1 50X     -0.054200
      7 C7        -11.5210   -3.3850    3.3940 ca        1 50X      0.055400
      8 C8        -12.8970   -3.1240    3.3030 ca        1 50X     -0.045000
      9 C9        -13.4990   -3.2320    2.0590 ca        1 50X     -0.147000
     10 C10       -12.7700   -3.5960    0.9110 ca        1 50X     -0.088000
     11 C11       -11.4100   -3.8630    0.9600 ca        1 50X     -0.143000
     12 N12        -9.4540   -3.9810    2.6230 na        1 50X     -0.151300
     13 C13        -9.4480   -3.7120    4.0200 cc        1 50X      0.317800
     14 N14       -10.6530   -3.3730    4.5050 nd        1 50X     -0.476100
     15 C15        -6.9050   -1.4560   -0.6040 cc        1 50X     -0.263400
     16 S16        -7.4410   -3.0420   -0.5810 ss        1 50X      0.115200
     17 C17        -7.8100   -3.0170    1.0450 cc        1 50X     -0.114400
     18 C18        -7.5450   -1.7770    1.6090 cd        1 50X     -0.137000
     19 C19        -7.0280   -0.8660    0.6510 cd        1 50X     -0.091000
     20 C20        -0.6930   -0.2500   -0.2310 c         1 50X      0.633100
     21 C21        -2.2230   -0.4350   -0.2550 c3        1 50X      0.034100
     22 C22        -2.7970    0.5660   -1.2870 c3        1 50X      0.062100
     23 C23        -4.3230    0.5200   -1.2110 c         1 50X      0.548100
     24 O24        -5.0340    1.3330   -0.6450 o         1 50X     -0.405100
     25 N25        -4.9440   -0.6700   -1.8840 n4        1 50X     -0.674800
     26 O26        -2.5480   -1.7470   -0.6660 oh        1 50X     -0.612800
     27 C27        -6.4440   -0.7520   -1.8070 c3        1 50X      0.221100
     28 O28        -2.4540    0.1930   -2.6080 oh        1 50X     -0.626800
     29 O29        -0.0900   -0.5720   -1.2830 o         1 50X     -0.627100
     30 C30        -8.3290   -4.2130    1.7710 c3        1 50X      0.115600
     31 C31        -8.1880   -3.8670    4.8760 c3        1 50X      0.647600
     32 F32        -7.5670   -5.0810    4.7190 f         1 50X     -0.220633
     33 F33        -7.2150   -2.9460    4.5660 f         1 50X     -0.220633
     34 F34        -8.3820   -3.7360    6.2200 f         1 50X     -0.220633
     35 C35         1.8090    1.7550    0.2160 ca        1 50X     -0.109300
     36 C36         2.4480    1.6790   -1.0250 ca        1 50X     -0.104000
     37 C37         2.8710    2.8530   -1.6570 ca        1 50X      0.012400
     38 C38         2.6570    4.1000   -1.0600 ca        1 50X     -0.108000
     39 C39         2.0090    4.1670    0.1720 ca        1 50X     -0.123000
     40 C40         1.5840    3.0020    0.8080 ca        1 50X     -0.118000
     41 CL41        3.6510    2.7590   -3.1610 cl        1 50X     -0.072400
     42 H2          1.8640   -0.3920    0.3610 h1        1 50X      0.087700
     43 H3          2.3260   -0.4850    2.6190 hc        1 50X      0.075200
     44 H3A         2.4540    1.3180    2.6330 hc        1 50X      0.075200
     45 H4          0.3860    1.5280    3.7020 hc        1 50X      0.069200
     46 H4A         0.4400   -0.2590    3.9710 hc        1 50X      0.069200
     47 H5         -1.2440   -0.5820    2.4100 h1        1 50X      0.051200
     48 H5A        -1.3770    1.2310    2.2300 h1        1 50X      0.051200
     49 H10       -13.3000   -3.6750   -0.0520 ha        1 50X      0.143000
     50 H11       -10.8540   -4.1570    0.0600 ha        1 50X      0.133000
     51 H18        -7.7090   -1.5220    2.6620 ha        1 50X      0.190000
     52 H19        -6.7710    0.1730    0.8790 ha        1 50X      0.172000
     53 H21        -2.7110   -0.2980    0.7490 h1        1 50X      0.112700
     54 H22        -2.4630    1.6190   -1.0620 h1        1 50X      0.125700
     55 HN25       -4.6430   -0.6380   -2.8690 hn        1 50X      0.479300
     56 HO26       -1.8790   -2.0390   -1.3090 ho        1 50X      0.455000
     57 H27        -6.7870   -1.2820   -2.7440 hx        1 50X      0.113700
     58 H27A       -6.8450    0.3060   -1.8210 hx        1 50X      0.113700
     59 HO28       -1.4810    0.1950   -2.6800 ho        1 50X      0.487000
     60 H30        -7.4880   -4.6300    2.4060 h1        1 50X      0.089200
     61 H30A       -8.6300   -5.0020    1.0180 h1        1 50X      0.089200
     62 H36         2.6120    0.7000   -1.5040 ha        1 50X      0.159000
     63 H38         3.0000    5.0210   -1.5580 ha        1 50X      0.158000
     64 H39         1.8400    5.1460    0.6460 ha        1 50X      0.147000
     65 H40         1.0760    3.0620    1.7840 ha        1 50X      0.134000
     66 H8        -13.4710   -2.8490    4.2000 ha        1 50X      0.163000
     67 H252       -4.5180   -1.5100   -1.4510 hn        1 50X      0.479300
     68 H9        -14.5780   -3.0330    1.9610 ha        1 50X      0.149000
@<TRIPOS>BOND
     1    1    2 1   
     2    1    5 1   
     3    1   20 1   
     4    2    3 1   
     5    2   35 1   
     6    2   42 1   
     7    3    4 1   
     8    3   43 1   
     9    3   44 1   
    10    4    5 1   
    11    4   45 1   
    12    4   46 1   
    13    5   47 1   
    14    5   48 1   
    15    6    7 ar  
    16    6   11 ar  
    17    6   12 1   
    18    7    8 ar  
    19    7   14 1   
    20    8    9 ar  
    21    8   66 1   
    22    9   10 ar  
    23    9   68 1   
    24   10   11 ar  
    25   10   49 1   
    26   11   50 1   
    27   12   13 1   
    28   12   30 1   
    29   13   14 2   
    30   13   31 1   
    31   15   16 1   
    32   15   19 2   
    33   15   27 1   
    34   16   17 1   
    35   17   18 2   
    36   17   30 1   
    37   18   19 1   
    38   18   51 1   
    39   19   52 1   
    40   20   21 1   
    41   20   29 2   
    42   21   22 1   
    43   21   26 1   
    44   21   53 1   
    45   22   23 1   
    46   22   28 1   
    47   22   54 1   
    48   23   24 2   
    49   23   25 1   
    50   25   27 1   
    51   25   55 1   
    52   25   67 1   
    53   26   56 1   
    54   27   57 1   
    55   27   58 1   
    56   28   59 1   
    57   30   60 1   
    58   30   61 1   
    59   31   32 1   
    60   31   33 1   
    61   31   34 1   
    62   35   36 ar  
    63   35   40 ar  
    64   36   37 ar  
    65   36   62 1   
    66   37   38 ar  
    67   37   41 1   
    68   38   39 ar  
    69   38   63 1   
    70   39   40 ar  
    71   39   64 1   
    72   40   65 1   
@<TRIPOS>SUBSTRUCTURE
     1 50X         1 TEMP              0 ****  ****    0 ROOT
