@<TRIPOS>MOLECULE
50Y
   61    61     1     0     0
SMALL
bcc


@<TRIPOS>ATOM
      1 C17        -0.2900   -1.5140   -0.2060 c2        1 50Y     -0.272000
      2 C16         0.2240   -0.5350    0.5540 c2        1 50Y     -0.053000
      3 C15         2.5740   -2.6210    0.3600 c2        1 50Y      0.359000
      4 C20         5.2270   -0.9620   -0.9390 c1        1 50Y      0.072000
      5 C21         2.5880   -2.8200   -2.1160 cx        1 50Y     -0.166000
      6 C22         7.2940    0.1170   -1.8360 c3        1 50Y     -0.154000
      7 C23         6.4650   -0.5960   -0.8360 c2        1 50Y     -0.328000
      8 C24         2.4940   -2.2590   -3.5200 cx        1 50Y     -0.197500
      9 C11         0.4160    0.0050    7.9430 c1        1 50Y      0.149000
     10 C27        -1.5700    4.1430    5.0680 c3        1 50Y     -0.187000
     11 C1          2.4310   -0.7120    3.5340 c3        1 50Y     -0.157000
     12 C2          1.2760   -0.1060    2.7100 c2        1 50Y      0.181000
     13 N3          0.4160    0.7950    3.1790 n2        1 50Y     -0.286000
     14 C4          0.4320    0.9950    4.5600 c2        1 50Y      0.297000
     15 C5          1.0650    0.0290    5.4670 c2        1 50Y     -0.236000
     16 C6          1.9950   -0.9190    4.9510 c2        1 50Y      0.229000
     17 C7          2.9140   -1.8750    2.6970 c1        1 50Y     -0.143000
     18 C8          2.2690   -1.7570    1.4800 c2        1 50Y     -0.315000
     19 N9          1.3150   -0.6510    1.4310 n3        1 50Y     -0.138000
     20 N10         0.7150    0.0210    6.7970 n2        1 50Y     -0.299000
     21 N12         2.5400   -1.8970    5.6950 n7        1 50Y     -0.225000
     22 C14         3.4870   -2.8640    5.2030 c3        1 50Y     -0.094000
     23 O18         2.8250   -3.8220    0.3970 o         1 50Y     -0.226000
     24 N19         2.7380   -1.9320   -0.9680 ny        1 50Y     -0.173000
     25 C25         1.2940   -2.9070   -2.8980 cx        1 50Y     -0.197500
     26 C26        -0.9430    3.0270    4.2380 c3        1 50Y     -0.037000
     27 C28        -2.3210    5.0880    4.1440 c3        1 50Y     -0.016000
     28 O29        -2.8380    6.1210    4.9770 os        1 50Y     -0.275000
     29 C30        -3.6010    7.0750    4.2560 c3        1 50Y     -0.076000
     30 H1         -1.1650    2.5960    1.3990 ha        1 50Y      0.000500
     31 H2         -1.1290   -1.3040   -0.8830 ha        1 50Y      0.140000
     32 H3         -1.2680    2.5090    0.7350 ha        1 50Y      0.000500
     33 H4          0.0480   -2.5580   -0.1820 ha        1 50Y      0.140000
     34 H5         -0.2050    0.4920    0.5420 h4        1 50Y      0.172000
     35 H6          3.8050   -1.4990   -0.9800 hn        1 50Y      0.281000
     36 H7          3.1660   -3.7610   -1.9520 hx        1 50Y      0.186000
     37 H8          6.7170    0.3440   -2.7650 hc        1 50Y      0.112333
     38 H9          7.6630    1.0790   -1.3970 hc        1 50Y      0.112333
     39 H10         8.1770   -0.5160   -2.1060 hc        1 50Y      0.112333
     40 H11         7.0040   -0.8380    0.1140 ha        1 50Y      0.234000
     41 H12         2.4870   -1.1650   -3.6800 hc        1 50Y      0.135250
     42 H13         3.0460   -2.7860   -4.3210 hc        1 50Y      0.135250
     43 H14         2.2650   -1.9900    6.6520 hn        1 50Y      0.255000
     44 H15        -0.7860    4.7200    5.6240 hc        1 50Y      0.111500
     45 H16        -2.2850    3.7290    5.8260 hc        1 50Y      0.111500
     46 H17         3.2930    0.0260    3.5570 hc        1 50Y      0.183000
     47 H18        -0.2990    2.1830    6.0470 hn        1 50Y      0.263000
     48 H19         4.3400   -2.3510    4.6830 h1        1 50Y      0.118000
     49 H20         2.9940   -3.5530    4.4620 h1        1 50Y      0.118000
     50 H21         3.8720   -3.4550    6.0760 h1        1 50Y      0.118000
     51 H22         0.4330   -2.2760   -2.6070 hc        1 50Y      0.135250
     52 H23         0.9700   -3.9060   -3.2450 hc        1 50Y      0.135250
     53 H24        -1.7500    2.4840    3.6640 h1        1 50Y      0.112500
     54 H25        -0.2290    3.4720    3.4850 h1        1 50Y      0.112500
     55 H26        -3.1640    4.5590    3.6230 h1        1 50Y      0.071000
     56 H27        -1.6340    5.5310    3.3730 h1        1 50Y      0.071000
     57 H28        -4.4850    6.5890    3.7730 h1        1 50Y      0.080333
     58 H29        -3.9310    7.8070    5.0350 h1        1 50Y      0.080333
     59 H30        -2.9710    7.5790    3.4820 h1        1 50Y      0.080333
     60 H191        2.0760   -1.1610   -1.0420 hn        1 50Y      0.281000
     61 N13        -0.2200    2.0740    5.0570 n7        1 50Y     -0.235000
@<TRIPOS>BOND
     1    1    2 1   
     2    1   31 1   
     3    1   33 1   
     4    2   19 1   
     5    2   34 1   
     6    3   18 1   
     7    3   23 1   
     8    3   24 1   
     9    4    7 1   
    10    5    8 1   
    11    5   24 1   
    12    5   25 1   
    13    5   36 1   
    14    6    7 1   
    15    6   37 1   
    16    6   38 1   
    17    6   39 1   
    18    7   40 1   
    19    8   25 1   
    20    8   41 1   
    21    8   42 1   
    22    9   20 1   
    23   10   26 1   
    24   10   27 1   
    25   10   44 1   
    26   10   45 1   
    27   11   12 1   
    28   11   16 1   
    29   11   17 1   
    30   11   46 1   
    31   12   13 1   
    32   12   19 1   
    33   13   14 1   
    34   14   15 1   
    35   14   61 1   
    36   15   16 1   
    37   15   20 1   
    38   16   21 1   
    39   17   18 1   
    40   18   19 1   
    41   21   22 1   
    42   21   43 1   
    43   22   48 1   
    44   22   49 1   
    45   22   50 1   
    46   24   35 1   
    47   24   60 1   
    48   25   51 1   
    49   25   52 1   
    50   26   53 1   
    51   26   54 1   
    52   26   61 1   
    53   27   28 1   
    54   27   55 1   
    55   27   56 1   
    56   28   29 1   
    57   29   57 1   
    58   29   58 1   
    59   29   59 1   
    60   30   32 1   
    61   47   61 1   
@<TRIPOS>SUBSTRUCTURE
     1 50Y         1 TEMP              0 ****  ****    0 ROOT
