@<TRIPOS>MOLECULE
50Y
   61    65     1     0     0
SMALL
bcc


@<TRIPOS>ATOM
      1 C17        -0.5520   -1.3380    0.3830 c3        1 50Y     -0.130100
      2 C16         0.6910   -0.4850    0.1890 c3        1 50Y      0.013300
      3 C15         3.0930   -2.6550    0.1940 c         1 50Y      0.602300
      4 C20         3.9740   -0.5410   -0.9260 cx        1 50Y      0.021000
      5 C21         3.1220   -2.4050   -2.2980 cx        1 50Y      0.021000
      6 C22         5.0660    0.0190   -0.0340 cx        1 50Y     -0.102650
      7 C23         5.2210    0.0910   -1.5200 cx        1 50Y     -0.102650
      8 C24         2.1790   -1.5430   -3.1080 cx        1 50Y     -0.102650
      9 C11         2.0660   -0.7440    7.0110 cc        1 50Y      0.404700
     10 C27        -1.3310    4.2540    4.5450 c3        1 50Y     -0.106400
     11 C1          2.1680   -1.2220    3.4020 ca        1 50Y     -0.292100
     12 C2          1.4940   -0.2740    2.5140 ca        1 50Y      0.553800
     13 N3          0.7820    0.8190    2.8760 nb        1 50Y     -0.794000
     14 C4          0.7000    1.0950    4.2250 ca        1 50Y      0.808200
     15 C5          1.3310    0.2260    5.1990 ca        1 50Y     -0.142900
     16 C6          2.0630   -0.9410    4.7760 ca        1 50Y      0.033800
     17 C7          2.7580   -2.2170    2.5950 cc        1 50Y      0.038800
     18 C8          2.4960   -1.8820    1.2440 cd        1 50Y     -0.292300
     19 N9          1.7530   -0.6600    1.1610 na        1 50Y     -0.136100
     20 N10         1.3560    0.3160    6.6000 nd        1 50Y     -0.528100
     21 N12         2.5230   -1.5510    5.9350 na        1 50Y     -0.135300
     22 C14         3.3080   -2.7360    6.0430 c3        1 50Y      0.020600
     23 O18         3.2770   -3.8720    0.2120 o         1 50Y     -0.475100
     24 N19         3.7550   -1.9910   -1.0260 n4        1 50Y     -0.521200
     25 C25         1.6560   -2.7640   -2.4190 cx        1 50Y     -0.102650
     26 C26        -0.6550    3.1150    3.7850 c3        1 50Y      0.211800
     27 C28        -2.0220    5.1750    3.5530 c3        1 50Y      0.133400
     28 O29        -2.6130    6.2150    4.3260 os        1 50Y     -0.418600
     29 C30        -3.3130    7.1570    3.5300 c3        1 50Y      0.114700
     30 H1         -1.0490   -1.1010    1.3550 hc        1 50Y      0.058367
     31 H2         -0.3070   -2.4280    0.3680 hc        1 50Y      0.058367
     32 H3         -1.2700   -1.1200   -0.4440 hc        1 50Y      0.058367
     33 H4          1.1260   -0.7010   -0.8270 h1        1 50Y      0.063200
     34 H5          0.4000    0.6060    0.2190 h1        1 50Y      0.063200
     35 H6          3.0190    0.0230   -1.0050 hx        1 50Y      0.136200
     36 H7          3.8430   -3.0390   -2.8710 hx        1 50Y      0.136200
     37 H8          4.8270    0.9330    0.5430 hc        1 50Y      0.104825
     38 H9          5.7190   -0.6640    0.5410 hc        1 50Y      0.104825
     39 H10         5.0990    1.0600   -2.0410 hc        1 50Y      0.104825
     40 H11         5.9840   -0.5410   -2.0120 hc        1 50Y      0.104825
     41 H12         2.3140   -1.5530   -4.2080 hc        1 50Y      0.104825
     42 H13         1.8770   -0.5410   -2.7530 hc        1 50Y      0.104825
     43 H14         2.2890   -1.0000    8.0550 h5        1 50Y      0.089800
     44 H15        -2.0900    3.8580    5.2690 hc        1 50Y      0.070700
     45 H16        -0.5800    4.8440    5.1330 hc        1 50Y      0.070700
     46 H17         3.3400   -3.0780    2.9280 ha        1 50Y      0.172000
     47 H18        -0.0350    2.3490    5.6480 hn        1 50Y      0.474800
     48 H19         4.3900   -2.5060    5.8400 h1        1 50Y      0.064700
     49 H20         3.2120   -3.1540    7.0810 h1        1 50Y      0.064700
     50 H21         2.9510   -3.5010    5.3020 h1        1 50Y      0.064700
     51 H22         0.9830   -2.6550   -1.5460 hc        1 50Y      0.104825
     52 H23         1.4040   -3.6660   -3.0110 hc        1 50Y      0.104825
     53 H24        -1.4300    2.5560    3.1840 h1        1 50Y      0.060200
     54 H25         0.0950    3.5440    3.0590 h1        1 50Y      0.060200
     55 H26        -2.8180    4.6270    2.9810 h1        1 50Y      0.029200
     56 H27        -1.2860    5.6130    2.8280 h1        1 50Y      0.029200
     57 H28        -2.6200    7.6550    2.8080 h1        1 50Y      0.039033
     58 H29        -3.7130    7.8970    4.2670 h1        1 50Y      0.039033
     59 H30        -4.1500    6.6610    2.9780 h1        1 50Y      0.039033
     60 H191        4.6970   -2.4240   -1.0460 hn        1 50Y      0.446800
     61 N13         0.0180    2.1890    4.6640 nh        1 50Y     -0.823900
@<TRIPOS>BOND
     1    1    2 1   
     2    1   30 1   
     3    1   31 1   
     4    1   32 1   
     5    2   19 1   
     6    2   33 1   
     7    2   34 1   
     8    3   18 1   
     9    3   23 2   
    10    3   24 1   
    11    4    6 1   
    12    4    7 1   
    13    4   24 1   
    14    4   35 1   
    15    5    8 1   
    16    5   24 1   
    17    5   25 1   
    18    5   36 1   
    19    6    7 1   
    20    6   37 1   
    21    6   38 1   
    22    7   39 1   
    23    7   40 1   
    24    8   25 1   
    25    8   41 1   
    26    8   42 1   
    27    9   20 2   
    28    9   21 1   
    29    9   43 1   
    30   10   26 1   
    31   10   27 1   
    32   10   44 1   
    33   10   45 1   
    34   11   12 ar  
    35   11   16 ar  
    36   11   17 1   
    37   12   13 ar  
    38   12   19 1   
    39   13   14 ar  
    40   14   15 ar  
    41   14   61 1   
    42   15   16 ar  
    43   15   20 1   
    44   16   21 1   
    45   17   18 2   
    46   17   46 1   
    47   18   19 1   
    48   21   22 1   
    49   22   48 1   
    50   22   49 1   
    51   22   50 1   
    52   24   60 1   
    53   25   51 1   
    54   25   52 1   
    55   26   53 1   
    56   26   54 1   
    57   26   61 1   
    58   27   28 1   
    59   27   55 1   
    60   27   56 1   
    61   28   29 1   
    62   29   57 1   
    63   29   58 1   
    64   29   59 1   
    65   47   61 1   
@<TRIPOS>SUBSTRUCTURE
     1 50Y         1 TEMP              0 ****  ****    0 ROOT
