@<TRIPOS>MOLECULE
50Z
   32    33     1     0     0
SMALL
bcc


@<TRIPOS>ATOM
      1 N1          0.0370    0.6220   -0.3100 nc        1 50Z     -0.583000
      2 C2          1.3990    0.4240   -0.2250 cc        1 50Z      0.427200
      3 N3          2.2260    0.3860   -1.4250 n4        1 50Z     -0.800300
      4 C4          1.9010    0.2770    1.0980 cd        1 50Z     -0.300000
      5 C5          3.3220    0.0510    1.4520 c         1 50Z      0.532200
      6 C6          3.6180   -0.0610    2.8970 ca        1 50Z      0.283800
      7 C8          2.8160   -0.0550    5.0710 ca        1 50Z      0.442200
      8 N8          2.5640    0.0440    3.7650 nb        1 50Z     -0.750000
      9 C9          4.1220   -0.2630    5.5910 ca        1 50Z     -0.167300
     10 C10         5.1850   -0.3690    4.7060 ca        1 50Z     -0.075000
     11 C11         4.9380   -0.2680    3.3230 ca        1 50Z     -0.116300
     12 O12         4.1800   -0.0330    0.5660 o         1 50Z     -0.513100
     13 S13         0.6910    0.3890    2.1960 ss        1 50Z      0.501700
     14 C14        -0.4610    0.6230    0.9630 cd        1 50Z      0.290300
     15 N15        -1.8870    0.8190    1.1820 n4        1 50Z     -0.718700
     16 C16        -2.7160   -0.3770    0.7520 c3        1 50Z      0.171000
     17 C17        -4.1320   -0.1930    1.1590 c2        1 50Z     -0.302200
     18 C18        -5.1190   -0.0020    0.2800 c2        1 50Z     -0.067000
     19 HN3         3.1850    0.0740   -1.1690 hn        1 50Z      0.494800
     20 HN3A        1.8250   -0.2650   -2.1150 hn        1 50Z      0.494800
     21 H8          1.9490    0.0340    5.7550 h4        1 50Z      0.051100
     22 H9          4.2690   -0.3370    6.6820 ha        1 50Z      0.192000
     23 H10         6.2150   -0.5320    5.0700 ha        1 50Z      0.190000
     24 H11         5.7580   -0.3470    2.5890 ha        1 50Z      0.190000
     25 HN15       -2.2120    1.6460    0.6550 hn        1 50Z      0.470800
     26 H16        -2.6030   -0.4780   -0.3660 hx        1 50Z      0.112700
     27 H16A       -2.2770   -1.2890    1.2500 hx        1 50Z      0.112700
     28 H17        -4.3400   -0.3050    2.2370 ha        1 50Z      0.161000
     29 H18        -4.9600    0.0870   -0.8060 ha        1 50Z      0.154500
     30 H18A       -6.1730    0.0610    0.6010 ha        1 50Z      0.154500
     31 H33         2.2750    1.3280   -1.8410 hn        1 50Z      0.494800
     32 H152       -2.0460    0.9970    2.1830 hn        1 50Z      0.470800
@<TRIPOS>BOND
     1    1    2 1   
     2    1   14 2   
     3    2    3 1   
     4    2    4 2   
     5    3   19 1   
     6    3   20 1   
     7    3   31 1   
     8    4    5 1   
     9    4   13 1   
    10    5    6 1   
    11    5   12 2   
    12    6    8 ar  
    13    6   11 ar  
    14    7    8 ar  
    15    7    9 ar  
    16    7   21 1   
    17    9   10 ar  
    18    9   22 1   
    19   10   11 ar  
    20   10   23 1   
    21   11   24 1   
    22   13   14 1   
    23   14   15 1   
    24   15   16 1   
    25   15   25 1   
    26   15   32 1   
    27   16   17 1   
    28   16   26 1   
    29   16   27 1   
    30   17   18 2   
    31   17   28 1   
    32   18   29 1   
    33   18   30 1   
@<TRIPOS>SUBSTRUCTURE
     1 50Z         1 TEMP              0 ****  ****    0 ROOT
