@<TRIPOS>MOLECULE
50Z
   30    31     1     0     0
SMALL
bcc


@<TRIPOS>ATOM
      1 N1         -0.0340   -0.0300   -0.2250 nc        1 50Z     -0.780000
      2 C2          1.3690   -0.0230   -0.1170 cc        1 50Z      0.728200
      3 N3          2.1540   -0.0150   -1.2300 nh        1 50Z     -0.946500
      4 C4          1.8680   -0.0000    1.2250 cd        1 50Z     -0.421000
      5 C5          3.2570    0.0060    1.5710 c         1 50Z      0.543200
      6 C6          3.6540    0.0220    3.0250 ca        1 50Z      0.343800
      7 C8          3.1110    0.0970    5.2700 ca        1 50Z      0.393200
      8 N8          2.7050    0.0850    3.9910 nb        1 50Z     -0.660000
      9 C9          4.4640    0.0480    5.6600 ca        1 50Z     -0.228300
     10 C10         5.4360   -0.0170    4.6630 ca        1 50Z     -0.105000
     11 C11         5.0330   -0.0300    3.3260 ca        1 50Z     -0.191300
     12 O12         4.1760   -0.0050    0.7260 o         1 50Z     -0.608100
     13 S13         0.5760    0.0090    2.3170 ss        1 50Z     -0.036300
     14 C14        -0.5700   -0.0240    1.0210 cd        1 50Z      0.654300
     15 N15        -1.9250   -0.1320    1.2900 nh        1 50Z     -0.814900
     16 C16        -2.8790    0.0210    0.2100 c3        1 50Z      0.221000
     17 C17        -4.2970   -0.0440    0.6840 c2        1 50Z     -0.190200
     18 C18        -5.2220    0.8350    0.3070 c2        1 50Z     -0.203000
     19 HN3         1.7520   -0.0870   -2.1300 hn        1 50Z      0.456300
     20 HN3A        3.1410   -0.0480   -1.1170 hn        1 50Z      0.456300
     21 H8          2.3070    0.1490    6.0260 h4        1 50Z      0.023100
     22 H9          4.7360    0.0600    6.7230 ha        1 50Z      0.145000
     23 H10         6.5040   -0.0560    4.9210 ha        1 50Z      0.142000
     24 H11         5.7640   -0.0790    2.5040 ha        1 50Z      0.170000
     25 HN15       -2.2010    0.2810    2.1560 hn        1 50Z      0.417800
     26 H16        -2.7010    0.9880   -0.3490 h1        1 50Z      0.062700
     27 H16A       -2.7050   -0.8240   -0.5200 h1        1 50Z      0.062700
     28 H17        -4.5430   -0.8960    1.3400 ha        1 50Z      0.133000
     29 H18        -5.0030    1.6910   -0.3460 ha        1 50Z      0.116500
     30 H18A       -6.2710    0.7500    0.6220 ha        1 50Z      0.116500
@<TRIPOS>BOND
     1    1    2 1   
     2    1   14 2   
     3    2    3 1   
     4    2    4 2   
     5    3   19 1   
     6    3   20 1   
     7    4    5 1   
     8    4   13 1   
     9    5    6 1   
    10    5   12 2   
    11    6    8 ar  
    12    6   11 ar  
    13    7    8 ar  
    14    7    9 ar  
    15    7   21 1   
    16    9   10 ar  
    17    9   22 1   
    18   10   11 ar  
    19   10   23 1   
    20   11   24 1   
    21   13   14 1   
    22   14   15 1   
    23   15   16 1   
    24   15   25 1   
    25   16   17 1   
    26   16   26 1   
    27   16   27 1   
    28   17   18 2   
    29   17   28 1   
    30   18   29 1   
    31   18   30 1   
@<TRIPOS>SUBSTRUCTURE
     1 50Z         1 TEMP              0 ****  ****    0 ROOT
