@<TRIPOS>MOLECULE
50Z
   30    25     1     0     0
SMALL
bcc


@<TRIPOS>ATOM
      1 N1         -1.2420    1.0730   -1.8570 n2        1 50Z     -0.257000
      2 C2          0.3260    1.1320   -1.8640 c1        1 50Z      0.209000
      3 N3          1.1510    1.1720   -3.0180 n2        1 50Z     -0.344000
      4 C4          0.7860    1.1390   -0.4960 c1        1 50Z     -0.605000
      5 C5          2.2210    1.2840   -0.0410 c1        1 50Z      0.373000
      6 C6          2.9150    0.1320    0.6520 c2        1 50Z     -0.074000
      7 C8          2.8680   -2.0700    1.5000 c1        1 50Z     -0.072000
      8 N8          2.2480   -1.0360    0.8650 n2        1 50Z     -0.134000
      9 C9          4.1780   -1.9340    1.9310 c1        1 50Z     -0.134000
     10 C10         4.8480   -0.7640    1.7180 c1        1 50Z     -0.134000
     11 C11         4.2260    0.2710    1.0820 c1        1 50Z     -0.126000
     12 O12         2.8160    2.3260   -0.2310 o         1 50Z     -0.369000
     13 S13        -0.4400    1.0860    0.4090 ss        1 50Z      0.541000
     14 C14        -1.6870    1.0460   -0.5000 c1        1 50Z     -0.110000
     15 N15        -3.0370    1.0580   -0.0650 n2        1 50Z     -0.265000
     16 C16        -3.9960    0.2200   -0.6980 c3        1 50Z     -0.016000
     17 C17        -5.0440   -0.1990    0.3090 c2        1 50Z     -0.172000
     18 C18        -5.4900   -1.4700    0.3300 c1        1 50Z     -0.217000
     19 HN3         0.9680    1.7640   -3.6900 hn        1 50Z      0.251500
     20 HN3A        1.8610    0.6010   -3.0920 hn        1 50Z      0.251500
     21 H8          2.3890   -2.9070    1.6520 ha        1 50Z      0.160000
     22 H9          4.6220   -2.6750    2.3860 ha        1 50Z      0.143500
     23 H10         5.7710   -0.6670    2.0210 ha        1 50Z      0.143500
     24 H11         4.7040    1.1080    0.9290 ha        1 50Z      0.170000
     25 HN15       -3.2870    1.5900    0.6320 hn        1 50Z      0.217000
     26 H16        -3.5490   -0.5760   -1.0540 h1        1 50Z      0.104000
     27 H16A       -4.4240    0.7090   -1.4310 h1        1 50Z      0.104000
     28 H17        -5.3970    0.4520    0.9450 ha        1 50Z      0.133000
     29 H18        -5.1360   -2.1230   -0.3070 DU        1 50Z      0.109000
     30 H18A       -6.1670   -1.7410    0.9810 ha        1 50Z      0.120000
@<TRIPOS>BOND
     1    1    2 1   
     2    1   14 1   
     3    2    4 1   
     4    3   19 1   
     5    3   20 1   
     6    4   13 1   
     7    5    6 1   
     8    5   12 1   
     9    6    8 1   
    10    6   11 1   
    11    7    8 1   
    12    7   21 1   
    13    9   10 1   
    14    9   22 1   
    15   10   23 1   
    16   11   24 1   
    17   13   14 1   
    18   15   16 1   
    19   15   25 1   
    20   16   17 1   
    21   16   26 1   
    22   16   27 1   
    23   17   18 1   
    24   17   28 1   
    25   18   30 1   
@<TRIPOS>SUBSTRUCTURE
     1 50Z         1 TEMP              0 ****  ****    0 ROOT
