@<TRIPOS>MOLECULE
50Z
   30    31     1     0     0
SMALL
bcc


@<TRIPOS>ATOM
      1 N1         -0.0310   -0.0000   -0.2280 nc        1 50Z     -0.780000
      2 C2          1.3720    0.0070   -0.1180 cc        1 50Z      0.728200
      3 N3          2.1590    0.0300   -1.2290 nv        1 50Z     -0.946500
      4 C4          1.8690    0.0110    1.2250 cd        1 50Z     -0.421000
      5 C5          3.2580    0.0130    1.5740 c         1 50Z      0.543200
      6 C6          3.6520    0.0050    3.0270 ca        1 50Z      0.343800
      7 C8          3.1070    0.0510    5.2730 ca        1 50Z      0.393200
      8 N8          2.7020    0.0590    3.9930 nb        1 50Z     -0.660000
      9 C9          4.4590   -0.0100    5.6640 ca        1 50Z     -0.228300
     10 C10         5.4310   -0.0650    4.6670 ca        1 50Z     -0.105000
     11 C11         5.0310   -0.0570    3.3300 ca        1 50Z     -0.191300
     12 O12         4.1780    0.0150    0.7300 o         1 50Z     -0.608100
     13 S13         0.5760    0.0040    2.3150 ss        1 50Z     -0.036300
     14 C14        -0.5680   -0.0120    1.0180 cd        1 50Z      0.654300
     15 N15        -1.9240   -0.1240    1.2830 nu        1 50Z     -0.814900
     16 C16        -2.8770    0.0440    0.2040 c3        1 50Z      0.221000
     17 C17        -4.2960   -0.0290    0.6750 c2        1 50Z     -0.190200
     18 C18        -5.2210    0.8540    0.3090 c2        1 50Z     -0.203000
     19 HN3         1.7580   -0.0290   -2.1310 hn        1 50Z      0.456300
     20 HN3A        3.1460   -0.0030   -1.1150 hn        1 50Z      0.456300
     21 H8          2.3010    0.0970    6.0280 h4        1 50Z      0.023100
     22 H9          4.7290   -0.0140    6.7280 ha        1 50Z      0.145000
     23 H10         6.4990   -0.1140    4.9270 ha        1 50Z      0.142000
     24 H11         5.7630   -0.0980    2.5080 ha        1 50Z      0.170000
     25 HN15       -2.2010    0.2770    2.1550 hn        1 50Z      0.417800
     26 H16        -2.7010   -0.7910   -0.5370 h1        1 50Z      0.062700
     27 H16A       -2.6990    1.0180   -0.3410 h1        1 50Z      0.062700
     28 H17        -4.5420   -0.8900    1.3190 ha        1 50Z      0.133000
     29 H18        -5.0010    1.7190   -0.3320 ha        1 50Z      0.116500
     30 H18A       -6.2700    0.7630    0.6210 ha        1 50Z      0.116500
@<TRIPOS>BOND
     1    1    2 1   
     2    1   14 2   
     3    2    3 1   
     4    2    4 2   
     5    3   19 1   
     6    3   20 1   
     7    4    5 1   
     8    4   13 1   
     9    5    6 1   
    10    5   12 2   
    11    6    8 ar  
    12    6   11 ar  
    13    7    8 ar  
    14    7    9 ar  
    15    7   21 1   
    16    9   10 ar  
    17    9   22 1   
    18   10   11 ar  
    19   10   23 1   
    20   11   24 1   
    21   13   14 1   
    22   14   15 1   
    23   15   16 1   
    24   15   25 1   
    25   16   17 1   
    26   16   26 1   
    27   16   27 1   
    28   17   18 2   
    29   17   28 1   
    30   18   29 1   
    31   18   30 1   
@<TRIPOS>SUBSTRUCTURE
     1 50Z         1 TEMP              0 ****  ****    0 ROOT
