@<TRIPOS>MOLECULE
50Z
   30    31     1     0     0
SMALL
bcc


@<TRIPOS>ATOM
      1 N1          1.9800   -1.3980   -0.0870 nc        1 50Z     -0.780000
      2 C2          0.6610   -1.8860   -0.0300 cc        1 50Z      0.728200
      3 N3          0.4150   -3.2250    0.0230 nh        1 50Z     -0.946500
      4 C4         -0.3530   -0.8760   -0.0100 cd        1 50Z     -0.421000
      5 C5         -1.7590   -1.1420    0.0410 c         1 50Z      0.543200
      6 C6         -2.7280    0.0110    0.0430 ca        1 50Z      0.343800
      7 C8         -3.1750    2.2790    0.0680 ca        1 50Z      0.393200
      8 N8         -2.2690    1.2870    0.0660 nb        1 50Z     -0.660000
      9 C9         -4.5670    2.0650    0.0480 ca        1 50Z     -0.228300
     10 C10        -5.0320    0.7520    0.0240 ca        1 50Z     -0.105000
     11 C11        -4.1070   -0.2940    0.0220 ca        1 50Z     -0.191300
     12 O12        -2.2390   -2.2940    0.0800 o         1 50Z     -0.608100
     13 S13         0.3620    0.6560   -0.0650 ss        1 50Z     -0.037300
     14 C14         1.9440   -0.0420   -0.1200 cd        1 50Z      0.654300
     15 N15         3.0580    0.7660   -0.2820 nh        1 50Z     -0.814900
     16 C16         4.3810    0.1890   -0.1470 c3        1 50Z      0.221000
     17 C17         5.4680    1.2110   -0.2720 c2        1 50Z     -0.190200
     18 C18         6.4890    1.2820    0.5780 c2        1 50Z     -0.203000
     19 HN3         1.1560   -3.8760   -0.0470 hn        1 50Z      0.456300
     20 HN3A       -0.5290   -3.5360    0.0280 hn        1 50Z      0.456300
     21 H8         -2.7600    3.3030    0.0870 h4        1 50Z      0.023100
     22 H9         -5.2590    2.9170    0.0500 ha        1 50Z      0.145000
     23 H10        -6.1110    0.5380    0.0080 ha        1 50Z      0.142000
     24 H11        -4.4270   -1.3470    0.0070 ha        1 50Z      0.170000
     25 HN15        2.9570    1.6800    0.1070 hn        1 50Z      0.417800
     26 H16         4.4800   -0.3630    0.8340 h1        1 50Z      0.062700
     27 H16A        4.5070   -0.5710   -0.9740 h1        1 50Z      0.062700
     28 H17         5.3930    1.8840   -1.1430 ha        1 50Z      0.133000
     29 H18         7.3060    2.0040    0.4490 ha        1 50Z      0.116500
     30 H18A        6.5870    0.6230    1.4520 ha        1 50Z      0.116500
@<TRIPOS>BOND
     1    1    2 1   
     2    1   14 2   
     3    2    3 1   
     4    2    4 2   
     5    3   19 1   
     6    3   20 1   
     7    4    5 1   
     8    4   13 1   
     9    5    6 1   
    10    5   12 2   
    11    6    8 ar  
    12    6   11 ar  
    13    7    8 ar  
    14    7    9 ar  
    15    7   21 1   
    16    9   10 ar  
    17    9   22 1   
    18   10   11 ar  
    19   10   23 1   
    20   11   24 1   
    21   13   14 1   
    22   14   15 1   
    23   15   16 1   
    24   15   25 1   
    25   16   17 1   
    26   16   26 1   
    27   16   27 1   
    28   17   18 2   
    29   17   28 1   
    30   18   29 1   
    31   18   30 1   
@<TRIPOS>SUBSTRUCTURE
     1 50Z         1 TEMP              0 ****  ****    0 ROOT
