@<TRIPOS>MOLECULE
511
   37    37     1     0     0
SMALL
bcc


@<TRIPOS>ATOM
      1 Cl1         1.9460   -1.2030    1.7880 cl        1 511     -0.046000
      2 N01         6.8550    0.5620   -1.4050 n         1 511     -0.224000
      3 C02         8.0960    1.0300   -1.7100 c1        1 511      0.042000
      4 O01        10.3160   -0.2690   -5.8320 o         1 511     -0.572000
      5 C03         8.3040    1.0350   -3.2100 c3        1 511     -0.160000
      6 O02         9.8700    1.8810   -5.4140 o         1 511     -0.572000
      7 C04         6.5960   -0.8750   -3.4900 cu        1 511     -0.174000
      8 C05         6.5330   -2.1590   -3.7920 c2        1 511      0.014000
      9 C06         5.8910   -3.1440   -3.0180 c1        1 511     -0.082000
     10 C07         5.3590   -4.0070   -2.3790 c1        1 511     -0.236000
     11 C08         7.0050    0.4940   -3.8160 cx        1 511     -0.080000
     12 C09         6.0910    0.1990   -2.5990 cx        1 511     -0.112000
     13 C10         9.5480    0.2900   -3.6280 c3        1 511     -0.208000
     14 C11         9.9430    0.6700   -5.0690 c2        1 511      0.322000
     15 C12         8.0150   -2.3770   -5.7180 c1        1 511     -0.078000
     16 C14         4.8470    0.1530    0.0560 c3        1 511     -0.204000
     17 C15         4.6150   -1.2600    0.1290 c1        1 511      0.006000
     18 C16         3.5060   -2.0230   -0.2210 c2        1 511     -0.158000
     19 C17         2.3340   -2.1760    0.4340 c2        1 511     -0.088000
     20 C18         1.3500   -3.1790    0.1030 c2        1 511     -0.422000
     21 C19         1.5100   -4.4650   -0.1420 c1        1 511      0.182000
     22 H1          8.4420    2.1110   -3.5400 hc        1 511      0.174000
     23 H3          6.6660    0.9810   -4.7430 hc        1 511      0.155000
     24 H4          4.9080   -4.7800   -1.8120 ha        1 511      0.221000
     25 H5          5.0110    0.4190   -2.5660 h1        1 511      0.131000
     26 H6         10.3950    0.5720   -2.9530 hc        1 511      0.081500
     27 H7          9.3910   -0.8150   -3.5530 hc        1 511      0.081500
     28 H8          8.7610   -1.5740   -5.5670 ha        1 511      0.194000
     29 H9          3.7460   -4.6330    0.1530 ha        1 511      0.013000
     30 H10         3.5750   -5.2900    0.2200 ha        1 511      0.013000
     31 H11         4.2230    0.7110   -0.6930 hc        1 511      0.147000
     32 H12         3.7310   -2.6780   -1.1010 ha        1 511      0.203000
     33 H13         0.2990   -2.8070    0.0620 ha        1 511      0.198000
     34 H14         4.5390    0.5230    1.0900 hc        1 511      0.147000
     35 O03         7.0300   -2.7300   -5.0370 os        1 511      0.012000
     36 O04         7.0050    0.7450    0.9010 o         1 511     -0.279000
     37 C13         6.3290    0.4940   -0.1030 c2        1 511      0.358000
@<TRIPOS>BOND
     1    1   19 1   
     2    2    3 1   
     3    2   12 1   
     4    2   37 1   
     5    3    5 1   
     6    4   14 1   
     7    5   11 1   
     8    5   13 1   
     9    5   22 1   
    10    6   14 1   
    11    7    8 1   
    12    7   11 1   
    13    7   12 1   
    14    8    9 1   
    15    8   35 1   
    16    9   10 1   
    17   10   24 1   
    18   11   12 1   
    19   11   23 1   
    20   12   25 1   
    21   13   14 1   
    22   13   26 1   
    23   13   27 1   
    24   15   28 1   
    25   15   35 1   
    26   16   17 1   
    27   16   31 1   
    28   16   34 1   
    29   16   37 1   
    30   17   18 1   
    31   18   19 1   
    32   18   32 1   
    33   19   20 1   
    34   20   21 1   
    35   20   33 1   
    36   29   30 1   
    37   36   37 1   
@<TRIPOS>SUBSTRUCTURE
     1 511         1 TEMP              0 ****  ****    0 ROOT
