@<TRIPOS>MOLECULE
511
   37    32     1     0     0
SMALL
bcc


@<TRIPOS>ATOM
      1 CL1        -6.1100   -2.4040   -0.0140 cl        1 511     -0.029000
      2 N01         0.8020   -1.3880    0.0950 n2        1 511     -0.204000
      3 C02         2.1840   -1.3820    0.0500 c1        1 511     -0.022500
      4 O01         5.2370    0.8420    1.5030 o         1 511     -0.575500
      5 C03         2.6060   -0.0510    0.0020 c1        1 511     -0.064000
      6 O02         5.7660   -1.0790    0.6380 o         1 511     -0.575500
      7 C04         1.3340    2.1390   -0.0270 c1        1 511     -0.095000
      8 O03         0.7170    3.9650   -0.0920 os        1 511     -0.230000
      9 C05         0.0370    2.7130   -0.0150 c2        1 511      0.010000
     10 O04         0.4450   -3.7370    0.1360 o         1 511     -0.314000
     11 C06        -1.0640    1.9090    0.0410 c2        1 511     -0.156000
     12 C07        -0.9100    0.4970    0.0870 c1        1 511     -0.137000
     13 C08         1.4850    0.7540    0.0170 c1        1 511     -0.064000
     14 C09         0.3660   -0.0670    0.0750 c1        1 511     -0.022500
     15 C10         4.0110    0.1430   -0.5230 c2        1 511     -0.185000
     16 C11         5.0440   -0.0780    0.6400 c2        1 511      0.338000
     17 C12        -0.1260    5.0700   -0.3350 c3        1 511     -0.069000
     18 C13        -0.0680   -2.5960    0.1360 c1        1 511      0.359000
     19 C14        -1.6030   -2.4400    0.0840 c2        1 511     -0.104000
     20 C15        -2.3290   -2.4160    1.2710 c2        1 511     -0.081000
     21 C16        -3.7070   -2.4230    1.2370 c1        1 511     -0.133000
     22 C17        -4.3700   -2.4530    0.0250 c1        1 511     -0.052000
     23 C18        -3.6540   -2.4760   -1.1520 c1        1 511     -0.137000
     24 C19        -2.2570   -2.4690   -1.1190 c1        1 511     -0.085000
     25 H1          2.7760   -2.1930   -0.0300 DU        1 511      0.241000
     26 H3          2.1230    2.6320    0.3010 ha        1 511      0.155000
     27 H4         -1.9740    2.3430    0.0050 ha        1 511      0.127000
     28 H5         -1.8360    0.3480    0.0100 ha        1 511      0.131000
     29 H6          4.1750   -0.4740   -1.2070 ha        1 511      0.080000
     30 H7          4.1000    1.0040   -0.8560 ha        1 511      0.080000
     31 H8         -0.3410    5.4860    0.4840 h1        1 511      0.069667
     32 H9         -0.9310    4.7730   -0.7640 h1        1 511      0.069667
     33 H10         0.3270    5.6970   -0.9040 h1        1 511      0.069667
     34 H11        -1.8560   -2.5230    2.1420 ha        1 511      0.161000
     35 H12        -4.2090   -2.5240    2.0650 ha        1 511      0.149000
     36 H13        -4.1300   -2.4550   -2.0230 ha        1 511      0.145000
     37 H14        -2.0590   -2.6850   -1.9850 ha        1 511      0.152000
@<TRIPOS>BOND
     1    1   22 1   
     2    2    3 1   
     3    2   14 1   
     4    3    5 1   
     5    4   16 1   
     6    5   13 1   
     7    6   16 1   
     8    7    9 1   
     9    7   26 1   
    10    8    9 1   
    11    8   17 1   
    12    9   11 1   
    13   10   18 1   
    14   11   12 1   
    15   11   27 1   
    16   12   28 1   
    17   13   14 1   
    18   15   16 1   
    19   15   29 1   
    20   15   30 1   
    21   17   31 1   
    22   17   32 1   
    23   17   33 1   
    24   18   19 1   
    25   19   20 1   
    26   19   24 1   
    27   20   21 1   
    28   20   34 1   
    29   21   35 1   
    30   22   23 1   
    31   23   36 1   
    32   24   37 1   
@<TRIPOS>SUBSTRUCTURE
     1 511         1 TEMP              0 ****  ****    0 ROOT
