@<TRIPOS>MOLECULE
511
   37    39     1     0     0
SMALL
bcc


@<TRIPOS>ATOM
      1 CL1         5.4130    2.4430   -0.9500 cl        1 511     -0.109400
      2 N01        -0.1740   -1.0100    0.8560 n         1 511     -0.266200
      3 C02        -1.1970   -1.9840    1.0740 cc        1 511     -0.031400
      4 O01        -4.6220   -4.1630   -0.0690 o         1 511     -0.840800
      5 C03        -2.4400   -1.4580    0.7770 cd        1 511     -0.077400
      6 O02        -2.6890   -4.3290    1.0370 o         1 511     -0.840800
      7 C04        -3.1050    0.9210   -0.0500 ca        1 511     -0.115000
      8 C05        -2.5680    2.1760   -0.3810 ca        1 511      0.090100
      9 C06        -1.1920    2.4340   -0.3110 ca        1 511     -0.204000
     10 C07        -0.3030    1.4360    0.0890 ca        1 511     -0.119000
     11 C08        -2.2330   -0.0770    0.3540 ca        1 511     -0.037800
     12 C09        -0.8070    0.1780    0.4140 ca        1 511     -0.031400
     13 C10        -3.7310   -2.1450    0.8680 c3        1 511     -0.152200
     14 C11        -3.6640   -3.6640    0.5830 c         1 511      0.917600
     15 C12        -2.9980    4.3420   -1.2720 c3        1 511      0.119700
     16 C14         2.1900   -0.2880    0.5520 ca        1 511     -0.120600
     17 C15         2.9270    0.4820    1.4560 ca        1 511     -0.085000
     18 C16         3.9270    1.3350    0.9920 ca        1 511     -0.134500
     19 C17         4.1900    1.4050   -0.3800 ca        1 511      0.024400
     20 C18         3.4610    0.6310   -1.2880 ca        1 511     -0.134500
     21 C19         2.4580   -0.2160   -0.8190 ca        1 511     -0.085000
     22 H1         -0.9540   -3.0100    1.3930 h4        1 511      0.241000
     23 H3         -4.1870    0.7410   -0.1120 ha        1 511      0.159000
     24 H4         -0.7920    3.4240   -0.5680 ha        1 511      0.124000
     25 H5          0.7720    1.6560    0.1390 ha        1 511      0.130000
     26 H6         -4.1410   -2.0290    1.9070 hc        1 511      0.040700
     27 H7         -4.4620   -1.6790    0.1570 hc        1 511      0.040700
     28 H8         -3.9130    4.9000   -1.5950 h1        1 511      0.034033
     29 H9         -2.4560    4.9100   -0.4770 h1        1 511      0.034033
     30 H10        -2.3230    4.1570   -2.1430 h1        1 511      0.034033
     31 H11         2.7210    0.4080    2.5350 ha        1 511      0.155500
     32 H12         4.5060    1.9430    1.7030 ha        1 511      0.146500
     33 H13         3.6730    0.6870   -2.3660 ha        1 511      0.146500
     34 H14         1.8770   -0.8280   -1.5270 ha        1 511      0.155500
     35 O03        -3.5120    3.1250   -0.7550 os        1 511     -0.332900
     36 O04         1.5480   -2.2880    1.6600 o         1 511     -0.556100
     37 C13         1.1770   -1.2600    1.0650 c         1 511      0.683700
@<TRIPOS>BOND
     1    1   19 1   
     2    2    3 1   
     3    2   12 1   
     4    2   37 1   
     5    3    5 2   
     6    3   22 1   
     7    4   14 1   
     8    5   11 1   
     9    5   13 1   
    10    6   14 1   
    11    7    8 ar  
    12    7   11 ar  
    13    7   23 1   
    14    8    9 ar  
    15    8   35 1   
    16    9   10 ar  
    17    9   24 1   
    18   10   12 ar  
    19   10   25 1   
    20   11   12 ar  
    21   13   14 1   
    22   13   26 1   
    23   13   27 1   
    24   15   28 1   
    25   15   29 1   
    26   15   30 1   
    27   15   35 1   
    28   16   17 ar  
    29   16   21 ar  
    30   16   37 1   
    31   17   18 ar  
    32   17   31 1   
    33   18   19 ar  
    34   18   32 1   
    35   19   20 ar  
    36   20   21 ar  
    37   20   33 1   
    38   21   34 1   
    39   36   37 2   
@<TRIPOS>SUBSTRUCTURE
     1 511         1 TEMP              0 ****  ****    0 ROOT
