@<TRIPOS>MOLECULE
512
   17    13     1     0     0
SMALL
bcc


@<TRIPOS>ATOM
      1 C1         -2.3320    0.4710   -1.7460 c1        1 512     -0.228400
      2 C2         -0.8810    0.4810   -1.7120 cg        1 512     -0.055500
      3 S3         -2.8430    0.4230   -0.2820 ss        1 512      0.066800
      4 C4         -1.6010    0.4040    0.6480 c1        1 512     -0.228400
      5 C5         -0.4160    0.4380   -0.1900 cg        1 512     -0.055500
      6 C6         -1.6210    0.4320    2.1600 c1        1 512      0.856000
      7 O7         -1.3320    1.4920    2.7740 o         1 512     -0.795000
      8 O8          0.9130    0.4350    0.2640 o         1 512     -0.334500
      9 C9          1.5810   -0.7890    0.0650 c3        1 512      0.098100
     10 C10         3.0600   -0.6040    0.3230 c         1 512      0.916600
     11 O13         3.5950    0.5210    0.1420 o         1 512     -0.854300
     12 O14        -1.9380   -0.6030    2.8050 o         1 512     -0.795000
     13 O15         3.7590   -1.5780    0.7070 o         1 512     -0.854300
     14 BR19        0.2740    0.5360   -3.2350 br        1 512      0.019000
     15 H1         -2.8870    0.4920   -2.5490 DU        1 512      0.139000
     16 H91         1.2240   -1.4600    0.6830 h1        1 512      0.053200
     17 H92         1.4450   -1.0890   -0.8570 h1        1 512      0.053200
@<TRIPOS>BOND
     1    1    2 3   
     2    1    3 1   
     3    2    5 1   
     4    3    4 1   
     5    4    5 3   
     6    6    7 2   
     7    6   12 2   
     8    8    9 1   
     9    9   10 1   
    10    9   16 1   
    11    9   17 1   
    12   10   11 1   
    13   10   13 1   
@<TRIPOS>SUBSTRUCTURE
     1 512         1 TEMP              0 ****  ****    0 ROOT
