@<TRIPOS>MOLECULE
512
   17    17     1     0     0
SMALL
bcc


@<TRIPOS>ATOM
      1 C1         -0.1020   -0.3520    0.0790 cc        1 512     -0.216100
      2 C2          1.1850    0.0010   -0.2740 cd        1 512     -0.066900
      3 S3         -0.3440   -0.2290    1.7140 ss        1 512     -0.022800
      4 C4          1.2200    0.3170    2.0460 cc        1 512     -0.171700
      5 C5          1.9690    0.3960    0.8850 cd        1 512      0.141100
      6 C6          1.5410    0.6460    3.4860 c         1 512      0.940200
      7 O7          1.7600    1.8500    3.7940 o         1 512     -0.826800
      8 O8          3.2620    0.7610    0.6580 os        1 512     -0.289900
      9 C9          4.0670    1.0480    1.8150 c3        1 512      0.008400
     10 C10         5.5130    1.2610    1.3020 c         1 512      0.916600
     11 O13         6.3170    0.2870    1.3730 o         1 512     -0.854300
     12 O14         1.4920   -0.2960    4.3300 o         1 512     -0.826800
     13 O15         5.8480    2.4080    0.8920 o         1 512     -0.854300
     14 BR19        1.7780   -0.0390   -2.0330 br        1 512     -0.121100
     15 H1         -0.8740   -0.6760   -0.6130 h4        1 512      0.139000
     16 H91         4.0180    0.1840    2.5240 h1        1 512      0.053200
     17 H92         3.6710    1.9710    2.3120 h1        1 512      0.053200
@<TRIPOS>BOND
     1    1    2 2   
     2    1    3 1   
     3    1   15 1   
     4    2    5 1   
     5    2   14 1   
     6    3    4 1   
     7    4    5 2   
     8    4    6 1   
     9    5    8 1   
    10    6    7 1   
    11    6   12 1   
    12    8    9 1   
    13    9   10 1   
    14    9   16 1   
    15    9   17 1   
    16   10   11 1   
    17   10   13 1   
@<TRIPOS>SUBSTRUCTURE
     1 512         1 TEMP              0 ****  ****    0 ROOT
