@<TRIPOS>MOLECULE
512
   17    17     1     0     0
SMALL
bcc


@<TRIPOS>ATOM
      1 C1          0.6650   -2.6250    0.1100 cc        1 512     -0.216100
      2 C2         -0.3400   -1.6790    0.1190 cd        1 512     -0.066900
      3 S3          2.1650   -1.9260    0.1850 ss        1 512     -0.022800
      4 C4          1.5780   -0.3430    0.2580 cc        1 512     -0.171700
      5 C5          0.1950   -0.3300    0.2050 cd        1 512      0.141100
      6 C6          2.6000    0.7630    0.3890 c         1 512      0.940200
      7 O7          2.6360    1.4250    1.4620 o         1 512     -0.826800
      8 O8         -0.7070    0.6910    0.2150 os        1 512     -0.289900
      9 C9         -0.1760    2.0270    0.1920 c3        1 512      0.008400
     10 C10        -1.3860    2.9790    0.0320 c         1 512      0.916600
     11 O13        -1.6580    3.4040   -1.1280 o         1 512     -0.854300
     12 O14         3.4260    0.9160   -0.5570 o         1 512     -0.826800
     13 O15        -2.0140    3.3410    1.0680 o         1 512     -0.854300
     14 BR19       -2.1370   -2.1380    0.0340 br        1 512     -0.121100
     15 H1          0.5120   -3.7000    0.0570 h4        1 512      0.139000
     16 H91         0.5300    2.1300   -0.6700 h1        1 512      0.053200
     17 H92         0.3680    2.2160    1.1530 h1        1 512      0.053200
@<TRIPOS>BOND
     1    1    2 2   
     2    1    3 1   
     3    1   15 1   
     4    2    5 1   
     5    2   14 1   
     6    3    4 1   
     7    4    5 2   
     8    4    6 1   
     9    5    8 1   
    10    6    7 1   
    11    6   12 1   
    12    8    9 1   
    13    9   10 1   
    14    9   16 1   
    15    9   17 1   
    16   10   11 1   
    17   10   13 1   
@<TRIPOS>SUBSTRUCTURE
     1 512         1 TEMP              0 ****  ****    0 ROOT
