@<TRIPOS>MOLECULE
512
   17    17     1     0     0
SMALL
bcc


@<TRIPOS>ATOM
      1 C1         -0.1420   -0.1600    0.0400 cc        1 512     -0.216100
      2 C2          1.1740    0.0910   -0.2930 cd        1 512     -0.066900
      3 S3         -0.4010   -0.0080    1.6690 ss        1 512     -0.022800
      4 C4          1.1950    0.4180    2.0260 cc        1 512     -0.171700
      5 C5          1.9670    0.4320    0.8770 cd        1 512      0.141100
      6 C6          1.5160    0.7310    3.4690 c         1 512      0.940200
      7 O7          1.8200    1.9170    3.7750 o         1 512     -0.826800
      8 O8          3.2880    0.6940    0.6710 os        1 512     -0.289900
      9 C9          4.0930    0.9290    1.8390 c3        1 512      0.008400
     10 C10         5.5590    1.0290    1.3500 c         1 512      0.916600
     11 O13         6.2870   -0.0020    1.4410 o         1 512     -0.854300
     12 O14         1.3850   -0.2000    4.3160 o         1 512     -0.826800
     13 O15         5.9860    2.1450    0.9380 o         1 512     -0.854300
     14 Br19        1.7920   -0.0070   -2.0410 br        1 512     -0.121100
     15 H1         -0.9250   -0.4280   -0.6640 h4        1 512      0.139000
     16 H91         3.9670    0.0770    2.5530 h1        1 512      0.053200
     17 H92         3.7590    1.8830    2.3230 h1        1 512      0.053200
@<TRIPOS>BOND
     1    1    2 2   
     2    1    3 1   
     3    1   15 1   
     4    2    5 1   
     5    2   14 1   
     6    3    4 1   
     7    4    5 2   
     8    4    6 1   
     9    5    8 1   
    10    6    7 1   
    11    6   12 1   
    12    8    9 1   
    13    9   10 1   
    14    9   16 1   
    15    9   17 1   
    16   10   11 1   
    17   10   13 1   
@<TRIPOS>SUBSTRUCTURE
     1 512         1 TEMP              0 ****  ****    0 ROOT
