@<TRIPOS>MOLECULE
513
   21    22     1     0     0
SMALL
bcc


@<TRIPOS>ATOM
      1 C4          0.1580    0.0150   -0.0320 cc        1 513     -0.130400
      2 N7         -2.4010    1.3460    1.9290 n4        1 513     -0.848600
      3 S3          1.8080   -0.0210    0.0800 ss        1 513      0.240500
      4 C2          1.8200   -0.0000    1.7630 ca        1 513     -0.116100
      5 C1          0.4930    0.0170    2.2760 ca        1 513     -0.064800
      6 C5         -0.4670    0.0320    1.2010 cd        1 513     -0.231400
      7 C8          2.9090   -0.0080    2.6460 ca        1 513     -0.059000
      8 C9          2.6780   -0.0010    4.0100 ca        1 513     -0.092000
      9 C6         -1.9200    0.0120    1.4180 c3        1 513      0.206000
     10 C10         1.3610    0.0060    4.5210 ca        1 513      0.007100
     11 C11         0.2720    0.0120    3.6620 ca        1 513     -0.122000
     12 BR1         1.0890    0.0030    6.3700 br        1 513     -0.036100
     13 H8          3.9390   -0.0240    2.2560 ha        1 513      0.164000
     14 H9          3.5340   -0.0060    4.7080 ha        1 513      0.173000
     15 H11        -0.7550   -0.0180    4.0540 ha        1 513      0.126000
     16 H4         -0.3610    0.0040   -0.9950 h4        1 513      0.188000
     17 H61C       -2.4780   -0.2070    0.4620 hx        1 513      0.112200
     18 H62C       -2.1990   -0.7580    2.1980 hx        1 513      0.112200
     19 H71N       -2.2180    2.0740    1.2320 hn        1 513      0.457133
     20 H72N       -1.8890    1.5850    2.7860 hn        1 513      0.457133
     21 H73        -3.4030    1.3120    2.1290 hn        1 513      0.457133
@<TRIPOS>BOND
     1    1    3 1   
     2    1    6 2   
     3    1   16 1   
     4    2    9 1   
     5    2   19 1   
     6    2   20 1   
     7    2   21 1   
     8    3    4 1   
     9    4    5 ar  
    10    4    7 ar  
    11    5    6 1   
    12    5   11 ar  
    13    6    9 1   
    14    7    8 ar  
    15    7   13 1   
    16    8   10 ar  
    17    8   14 1   
    18    9   17 1   
    19    9   18 1   
    20   10   11 ar  
    21   10   12 1   
    22   11   15 1   
@<TRIPOS>SUBSTRUCTURE
     1 513         1 TEMP              0 ****  ****    0 ROOT
