@<TRIPOS>MOLECULE
513
   21    22     1     0     0
SMALL
bcc


@<TRIPOS>ATOM
      1 C4          0.1380   -0.0210   -0.0290 cc        1 513     -0.130400
      2 N7         -2.3930    1.3660    1.9310 n4        1 513     -0.848600
      3 S3          1.7880   -0.0720    0.0710 ss        1 513      0.240500
      4 C2          1.8130   -0.0260    1.7540 ca        1 513     -0.116100
      5 C1          0.4900    0.0130    2.2770 ca        1 513     -0.064800
      6 C5         -0.4770    0.0210    1.2080 cd        1 513     -0.231400
      7 C8          2.9080   -0.0320    2.6290 ca        1 513     -0.059000
      8 C9          2.6880   -0.0010    3.9950 ca        1 513     -0.092000
      9 C6         -1.9290    0.0200    1.4370 c3        1 513      0.206000
     10 C10         1.3750    0.0260    4.5150 ca        1 513      0.007100
     11 C11         0.2790    0.0300    3.6640 ca        1 513     -0.122000
     12 BR1         1.1170    0.0540    6.3660 br        1 513     -0.035100
     13 H8          3.9360   -0.0640    2.2320 ha        1 513      0.164000
     14 H9          3.5490   -0.0050    4.6860 ha        1 513      0.173000
     15 H11        -0.7450    0.0170    4.0640 ha        1 513      0.126000
     16 H4         -0.3890   -0.0410   -0.9870 h4        1 513      0.188000
     17 H61C       -2.4960   -0.2080    0.4880 hx        1 513      0.112200
     18 H62C       -2.2090   -0.7360    2.2300 hx        1 513      0.112200
     19 H71N       -2.2080    2.0820    1.2220 hn        1 513      0.457133
     20 H72N       -1.8710    1.6120    2.7810 hn        1 513      0.457133
     21 H73        -3.3930    1.3450    2.1390 hn        1 513      0.457133
@<TRIPOS>BOND
     1    1    3 1   
     2    1    6 2   
     3    1   16 1   
     4    2    9 1   
     5    2   19 1   
     6    2   20 1   
     7    2   21 1   
     8    3    4 1   
     9    4    5 ar  
    10    4    7 ar  
    11    5    6 1   
    12    5   11 ar  
    13    6    9 1   
    14    7    8 ar  
    15    7   13 1   
    16    8   10 ar  
    17    8   14 1   
    18    9   17 1   
    19    9   18 1   
    20   10   11 ar  
    21   10   12 1   
    22   11   15 1   
@<TRIPOS>SUBSTRUCTURE
     1 513         1 TEMP              0 ****  ****    0 ROOT
