@<TRIPOS>MOLECULE
513
   20    15     1     0     0
SMALL
bcc


@<TRIPOS>ATOM
      1 C4         -0.4730   -0.2070   -2.1690 c1        1 513     -0.397000
      2 N7         -3.0670    1.0780   -0.7030 n3        1 513     -0.349000
      3 S3          1.0500   -0.2730   -2.1800 ss        1 513      0.510000
      4 C2          1.5470   -0.1770   -0.6690 c1        1 513     -0.302000
      5 C1          0.4010   -0.0640    0.1540 c1        1 513     -0.058000
      6 C5         -0.9060   -0.0810   -0.7900 c1        1 513     -0.092000
      7 C8          2.8120   -0.2070   -0.0990 c1        1 513     -0.099000
      8 C9          2.9570   -0.1240    1.3090 c1        1 513     -0.098000
      9 C6         -2.4050   -0.2280   -0.5520 c2        1 513     -0.022000
     10 C10         1.8060   -0.0110    2.1330 c1        1 513     -0.176000
     11 C11         0.5400    0.0180    1.5550 c1        1 513     -0.050000
     12 BR1         2.0230   -0.0610    4.0300 br        1 513      0.050000
     13 H8          3.6070   -0.2890   -0.6740 ha        1 513      0.141000
     14 H9          3.9140   -0.1480    1.7420 ha        1 513      0.147000
     15 H11        -0.2090    0.0930    2.0870 ha        1 513      0.170000
     16 H4         -1.0480   -0.2090   -2.9460 DU        1 513      0.172000
     17 H61C       -2.5590   -0.5660    0.3550 h4        1 513      0.076500
     18 H62C       -2.7830   -0.8640   -1.2090 h4        1 513      0.076500
     19 H71N       -3.5410    1.2750    0.0660 hn        1 513      0.149500
     20 H72N       -3.6660    1.0460   -1.4400 hn        1 513      0.149500
@<TRIPOS>BOND
     1    1    3 1   
     2    1    6 1   
     3    2    9 1   
     4    2   19 1   
     5    2   20 1   
     6    3    4 1   
     7    4    7 1   
     8    5   11 1   
     9    7   13 1   
    10    8   10 1   
    11    8   14 1   
    12    9   17 1   
    13    9   18 1   
    14   10   12 1   
    15   11   15 1   
@<TRIPOS>SUBSTRUCTURE
     1 513         1 TEMP              0 ****  ****    0 ROOT
