@<TRIPOS>MOLECULE
513
   21    22     1     0     0
SMALL
bcc


@<TRIPOS>ATOM
      1 C4          0.1390   -0.0050   -0.0310 cc        1 513     -0.130400
      2 N7         -2.3990    1.3540    1.9390 nz        1 513     -0.848600
      3 S3          1.7890   -0.0470    0.0690 ss        1 513      0.240500
      4 C2          1.8150   -0.0130    1.7520 ca        1 513     -0.116100
      5 C1          0.4920    0.0150    2.2750 ca        1 513     -0.064800
      6 C5         -0.4760    0.0250    1.2070 cd        1 513     -0.231400
      7 C8          2.9100   -0.0180    2.6260 ca        1 513     -0.059000
      8 C9          2.6900    0.0030    3.9920 ca        1 513     -0.092000
      9 C6         -1.9280    0.0140    1.4360 c3        1 513      0.206000
     10 C10         1.3770    0.0200    4.5130 ca        1 513      0.007100
     11 C11         0.2810    0.0230    3.6620 ca        1 513     -0.122000
     12 Br1         1.1200    0.0340    6.3640 br        1 513     -0.035100
     13 H8          3.9370   -0.0410    2.2280 ha        1 513      0.164000
     14 H9          3.5510   -0.0010    4.6830 ha        1 513      0.173000
     15 H11        -0.7430    0.0010    4.0630 ha        1 513      0.126000
     16 H4         -0.3890   -0.0220   -0.9890 h4        1 513      0.188000
     17 H61C       -2.4940   -0.2110    0.4860 hx        1 513      0.112200
     18 H62C       -2.2040   -0.7480    2.2240 hx        1 513      0.112200
     19 H71N       -2.2190    2.0760    1.2350 hn        1 513      0.457133
     20 H72N       -1.8790    1.5980    2.7900 hn        1 513      0.457133
     21 H73        -3.4000    1.3270    2.1480 hn        1 513      0.457133
@<TRIPOS>BOND
     1    1    3 1   
     2    1    6 2   
     3    1   16 1   
     4    2    9 1   
     5    2   19 1   
     6    2   20 1   
     7    2   21 1   
     8    3    4 1   
     9    4    5 ar  
    10    4    7 ar  
    11    5    6 1   
    12    5   11 ar  
    13    6    9 1   
    14    7    8 ar  
    15    7   13 1   
    16    8   10 ar  
    17    8   14 1   
    18    9   17 1   
    19    9   18 1   
    20   10   11 ar  
    21   10   12 1   
    22   11   15 1   
@<TRIPOS>SUBSTRUCTURE
     1 513         1 TEMP              0 ****  ****    0 ROOT
