@<TRIPOS>MOLECULE
513
   20    21     1     0     0
SMALL
bcc


@<TRIPOS>ATOM
      1 C4          3.4390   -0.0660    0.2130 cc        1 513     -0.134400
      2 N7          2.0590   -3.0980   -0.7500 n3        1 513     -0.911800
      3 S3          3.0550    1.5600    0.0100 ss        1 513      0.047500
      4 C2          1.3930    1.2760   -0.0340 ca        1 513     -0.075100
      5 C1          1.1160   -0.1120    0.1160 ca        1 513     -0.077800
      6 C5          2.3360   -0.8750    0.2600 cd        1 513     -0.084400
      7 C8          0.3390    2.1840   -0.1870 ca        1 513     -0.090000
      8 C9         -0.9650    1.7200   -0.1910 ca        1 513     -0.102000
      9 C6          2.3570   -2.3520    0.4520 c3        1 513      0.219000
     10 C10        -1.2400    0.3450   -0.0390 ca        1 513     -0.027900
     11 C11        -0.2090   -0.5700    0.1150 ca        1 513     -0.070000
     12 BR1        -3.0200   -0.2400   -0.0470 br        1 513     -0.088100
     13 H8          0.5480    3.2580   -0.3050 ha        1 513      0.143000
     14 H9         -1.7960    2.4330   -0.3130 ha        1 513      0.149000
     15 H11        -0.4090   -1.6460    0.2390 ha        1 513      0.145000
     16 H4          4.4730   -0.4040    0.2880 h4        1 513      0.178000
     17 H61C        1.6440   -2.5930    1.2990 h1        1 513      0.037200
     18 H62C        3.3890   -2.6670    0.7870 h1        1 513      0.037200
     19 H71N        1.7850   -4.0320   -0.5170 hn        1 513      0.352800
     20 H72N        1.3300   -2.6610   -1.2790 hn        1 513      0.352800
@<TRIPOS>BOND
     1    1    3 1   
     2    1    6 2   
     3    1   16 1   
     4    2    9 1   
     5    2   19 1   
     6    2   20 1   
     7    3    4 1   
     8    4    5 ar  
     9    4    7 ar  
    10    5    6 1   
    11    5   11 ar  
    12    6    9 1   
    13    7    8 ar  
    14    7   13 1   
    15    8   10 ar  
    16    8   14 1   
    17    9   17 1   
    18    9   18 1   
    19   10   11 ar  
    20   10   12 1   
    21   11   15 1   
@<TRIPOS>SUBSTRUCTURE
     1 513         1 TEMP              0 ****  ****    0 ROOT
