@<TRIPOS>MOLECULE
514
   31    33     1     0     0
SMALL
bcc


@<TRIPOS>ATOM
      1 O1          0.1620   -0.0420    0.4380 o         1 514     -0.441100
      2 C2          2.3020   -0.0820   -4.7210 cc        1 514      0.604300
      3 N3          4.4170    0.0390   -3.8210 nd        1 514     -0.214000
      4 N4          3.8220   -0.0170   -4.8960 nd        1 514     -0.155000
      5 C5         -0.7520   -0.2780   -6.7620 ca        1 514     -0.171600
      6 C6         -2.1510   -0.3380   -6.6180 ca        1 514     -0.053000
      7 C7         -0.1820   -0.2880   -8.0450 ca        1 514     -0.053000
      8 C8          0.0470   -0.2060   -5.5330 cf        1 514      0.629900
      9 C9         -2.9640   -0.4070   -7.7450 ca        1 514     -0.145500
     10 C10        -1.0080   -0.3580   -9.1660 ca        1 514     -0.145500
     11 O11        -0.4410   -0.1960   -4.3870 o         1 514     -0.616300
     12 N12         1.4860   -0.1450   -5.7020 ne        1 514     -0.308000
     13 C13        -2.3940   -0.4170   -9.0200 ca        1 514     -0.060000
     14 C14         3.4660    0.0250   -2.7290 cc        1 514      0.410600
     15 C15         2.1510   -0.0490   -3.2360 cc        1 514     -0.378600
     16 C16         1.2400   -0.0610   -2.1290 c2        1 514      0.253600
     17 N17         1.9530    0.0020   -0.9760 n         1 514     -0.338000
     18 C18         3.4180    0.0620   -1.2380 c3        1 514     -0.011300
     19 C19         1.3850    0.0110    0.3640 c         1 514      0.676100
     20 C20         2.3450    0.0860    1.5080 c3        1 514     -0.178100
     21 H6         -2.5950   -0.3300   -5.6090 ha        1 514      0.157500
     22 H7          0.9090   -0.2420   -8.1880 ha        1 514      0.157500
     23 H9         -4.0580   -0.4540   -7.6290 ha        1 514      0.156000
     24 H10        -0.5600   -0.3660  -10.1720 ha        1 514      0.156000
     25 H13        -3.0400   -0.4720   -9.9110 ha        1 514      0.155000
     26 H16         0.1290   -0.1130   -2.1730 h4        1 514      0.274000
     27 H181        3.8540    1.0150   -0.8190 h1        1 514      0.160700
     28 H182        3.9390   -0.8240   -0.7700 h1        1 514      0.160700
     29 H201        1.7540    0.0840    2.4620 hc        1 514      0.105367
     30 H202        2.9480    1.0260    1.4600 hc        1 514      0.105367
     31 H203        3.0310   -0.7980    1.5080 hc        1 514      0.105367
@<TRIPOS>BOND
     1    1   19 2   
     2    2    4 2   
     3    2   12 1   
     4    2   15 1   
     5    3    4 1   
     6    3   14 2   
     7    5    6 ar  
     8    5    7 ar  
     9    5    8 1   
    10    6    9 ar  
    11    6   21 1   
    12    7   10 ar  
    13    7   22 1   
    14    8   11 1   
    15    8   12 2   
    16    9   13 ar  
    17    9   23 1   
    18   10   13 ar  
    19   10   24 1   
    20   13   25 1   
    21   14   15 1   
    22   14   18 1   
    23   15   16 2   
    24   16   17 1   
    25   16   26 1   
    26   17   18 1   
    27   17   19 1   
    28   18   27 1   
    29   18   28 1   
    30   19   20 1   
    31   20   29 1   
    32   20   30 1   
    33   20   31 1   
@<TRIPOS>SUBSTRUCTURE
     1 514         1 TEMP              0 ****  ****    0 ROOT
