@<TRIPOS>MOLECULE
514
   31    33     1     0     0
SMALL
bcc


@<TRIPOS>ATOM
      1 O1          0.1640   -0.0470    0.4380 o         1 514     -0.441100
      2 C2          2.3020   -0.0780   -4.7220 cc        1 514      0.604300
      3 N3          4.4170    0.0470   -3.8230 nd        1 514     -0.214000
      4 N4          3.8210   -0.0100   -4.8970 nd        1 514     -0.155000
      5 C5         -0.7530   -0.2800   -6.7620 ca        1 514     -0.171600
      6 C6         -2.1520   -0.3430   -6.6170 ca        1 514     -0.053000
      7 C7         -0.1840   -0.2870   -8.0450 ca        1 514     -0.053000
      8 C8          0.0460   -0.2080   -5.5330 cf        1 514      0.629900
      9 C9         -2.9650   -0.4130   -7.7430 ca        1 514     -0.145500
     10 C10        -1.0100   -0.3570   -9.1650 ca        1 514     -0.145500
     11 O11        -0.4410   -0.2000   -4.3870 o         1 514     -0.616300
     12 N12         1.4850   -0.1430   -5.7030 ne        1 514     -0.308000
     13 C13        -2.3960   -0.4200   -9.0190 ca        1 514     -0.060000
     14 C14         3.4660    0.0290   -2.7300 cc        1 514      0.410600
     15 C15         2.1510   -0.0470   -3.2360 cc        1 514     -0.378600
     16 C16         1.2410   -0.0620   -2.1290 c2        1 514      0.253600
     17 N17         1.9540    0.0020   -0.9760 n         1 514     -0.338000
     18 C18         3.4190    0.0660   -1.2390 c3        1 514     -0.011300
     19 C19         1.3870    0.0100    0.3640 c         1 514      0.676100
     20 C20         2.3470    0.0860    1.5070 c3        1 514     -0.178100
     21 H6         -2.5950   -0.3370   -5.6080 ha        1 514      0.157500
     22 H7          0.9070   -0.2380   -8.1880 ha        1 514      0.157500
     23 H9         -4.0590   -0.4630   -7.6270 ha        1 514      0.156000
     24 H10        -0.5620   -0.3620  -10.1720 ha        1 514      0.156000
     25 H13        -3.0420   -0.4750   -9.9090 ha        1 514      0.155000
     26 H16         0.1300   -0.1160   -2.1730 h4        1 514      0.274000
     27 H181        3.8530    1.0200   -0.8200 h1        1 514      0.160700
     28 H182        3.9420   -0.8200   -0.7720 h1        1 514      0.160700
     29 H201        1.7560    0.0820    2.4620 hc        1 514      0.105367
     30 H202        3.0350   -0.7960    1.5070 hc        1 514      0.105367
     31 H203        2.9480    1.0280    1.4600 hc        1 514      0.105367
@<TRIPOS>BOND
     1    1   19 2   
     2    2    4 2   
     3    2   12 1   
     4    2   15 1   
     5    3    4 1   
     6    3   14 2   
     7    5    6 ar  
     8    5    7 ar  
     9    5    8 1   
    10    6    9 ar  
    11    6   21 1   
    12    7   10 ar  
    13    7   22 1   
    14    8   11 1   
    15    8   12 2   
    16    9   13 ar  
    17    9   23 1   
    18   10   13 ar  
    19   10   24 1   
    20   13   25 1   
    21   14   15 1   
    22   14   18 1   
    23   15   16 2   
    24   16   17 1   
    25   16   26 1   
    26   17   18 1   
    27   17   19 1   
    28   18   27 1   
    29   18   28 1   
    30   19   20 1   
    31   20   29 1   
    32   20   30 1   
    33   20   31 1   
@<TRIPOS>SUBSTRUCTURE
     1 514         1 TEMP              0 ****  ****    0 ROOT
