@<TRIPOS>MOLECULE
514
   31    33     1     0     0
SMALL
bcc


@<TRIPOS>ATOM
      1 O1         -3.6650    2.8690    0.0360 o         1 514     -0.441100
      2 C2         -0.1010   -1.4290   -0.0500 cc        1 514      0.604300
      3 N3         -1.8860   -2.8810   -0.0830 nd        1 514     -0.214000
      4 N4         -0.6570   -2.8560   -0.0810 nd        1 514     -0.155000
      5 C5          3.1350    0.3210   -0.0090 ca        1 514     -0.171600
      6 C6          3.6620    1.6260    0.0200 ca        1 514     -0.053000
      7 C7          4.0030   -0.7810   -0.0310 ca        1 514     -0.053000
      8 C8          1.6730    0.1880   -0.0130 cf        1 514      0.629900
      9 C9          5.0390    1.8210    0.0250 ca        1 514     -0.145500
     10 C10         5.3820   -0.5730   -0.0250 ca        1 514     -0.145500
     11 O11         0.8870    1.1530    0.0060 o         1 514     -0.616300
     12 N12         1.1500   -1.1650   -0.0430 ne        1 514     -0.308000
     13 C13         5.9010    0.7220    0.0030 ca        1 514     -0.060000
     14 C14        -2.4080   -1.5300   -0.0550 cc        1 514      0.410600
     15 C15        -1.3440   -0.6030   -0.0340 cc        1 514     -0.378600
     16 C16        -1.8980    0.7190   -0.0070 c2        1 514      0.253600
     17 N17        -3.2520    0.6260   -0.0110 n         1 514     -0.338000
     18 C18        -3.7050   -0.7920   -0.0410 c3        1 514     -0.011300
     19 C19        -4.1720    1.7530    0.0120 c         1 514      0.676100
     20 C20        -5.6330    1.4370    0.0030 c3        1 514     -0.178100
     21 H6          2.9760    2.4900    0.0370 ha        1 514      0.157500
     22 H7          3.6190   -1.8130   -0.0530 ha        1 514      0.157500
     23 H9          5.4490    2.8430    0.0480 ha        1 514      0.156000
     24 H10         6.0630   -1.4390   -0.0420 ha        1 514      0.156000
     25 H13         6.9920    0.8780    0.0080 ha        1 514      0.155000
     26 H16        -1.3390    1.6820    0.0140 h4        1 514      0.274000
     27 H181       -4.3200   -0.9900   -0.9680 h1        1 514      0.160700
     28 H182       -4.3220   -1.0290    0.8740 h1        1 514      0.160700
     29 H201       -5.9120    0.8750   -0.9230 hc        1 514      0.105367
     30 H202       -5.9150    0.8370    0.9040 hc        1 514      0.105367
     31 H203       -6.2010    2.4050    0.0230 hc        1 514      0.105367
@<TRIPOS>BOND
     1    1   19 2   
     2    2    4 2   
     3    2   12 1   
     4    2   15 1   
     5    3    4 1   
     6    3   14 2   
     7    5    6 ar  
     8    5    7 ar  
     9    5    8 1   
    10    6    9 ar  
    11    6   21 1   
    12    7   10 ar  
    13    7   22 1   
    14    8   11 1   
    15    8   12 2   
    16    9   13 ar  
    17    9   23 1   
    18   10   13 ar  
    19   10   24 1   
    20   13   25 1   
    21   14   15 1   
    22   14   18 1   
    23   15   16 2   
    24   16   17 1   
    25   16   26 1   
    26   17   18 1   
    27   17   19 1   
    28   18   27 1   
    29   18   28 1   
    30   19   20 1   
    31   20   29 1   
    32   20   30 1   
    33   20   31 1   
@<TRIPOS>SUBSTRUCTURE
     1 514         1 TEMP              0 ****  ****    0 ROOT
