@<TRIPOS>MOLECULE
514
   31    33     1     0     0
SMALL
bcc


@<TRIPOS>ATOM
      1 O1          0.1690   -0.0570    0.4420 o         1 514     -0.441100
      2 C2          2.3040   -0.0730   -4.7190 cc        1 514      0.604300
      3 N3          4.4190    0.0560   -3.8210 nd        1 514     -0.214000
      4 N4          3.8240   -0.0000   -4.8960 nd        1 514     -0.155000
      5 C5         -0.7500   -0.2800   -6.7580 ca        1 514     -0.171600
      6 C6         -2.1500   -0.3470   -6.6130 ca        1 514     -0.053000
      7 C7         -0.1820   -0.2820   -8.0410 ca        1 514     -0.053000
      8 C8          0.0490   -0.2080   -5.5300 cf        1 514      0.629900
      9 C9         -2.9630   -0.4170   -7.7390 ca        1 514     -0.145500
     10 C10        -1.0080   -0.3520   -9.1620 ca        1 514     -0.145500
     11 O11        -0.4380   -0.2050   -4.3830 o         1 514     -0.616300
     12 N12         1.4880   -0.1390   -5.7000 ne        1 514     -0.308000
     13 C13        -2.3950   -0.4190   -9.0140 ca        1 514     -0.060000
     14 C14         3.4690    0.0350   -2.7280 cc        1 514      0.410600
     15 C15         2.1540   -0.0450   -3.2340 cc        1 514     -0.378600
     16 C16         1.2450   -0.0650   -2.1260 c2        1 514      0.253600
     17 N17         1.9580    0.0000   -0.9730 n         1 514     -0.338000
     18 C18         3.4220    0.0680   -1.2370 c3        1 514     -0.011300
     19 C19         1.3920    0.0040    0.3670 c         1 514      0.676100
     20 C20         2.3520    0.0810    1.5100 c3        1 514     -0.178100
     21 H6         -2.5920   -0.3450   -5.6030 ha        1 514      0.157500
     22 H7          0.9090   -0.2300   -8.1850 ha        1 514      0.157500
     23 H9         -4.0570   -0.4700   -7.6220 ha        1 514      0.156000
     24 H10        -0.5610   -0.3530  -10.1690 ha        1 514      0.156000
     25 H13        -3.0410   -0.4740   -9.9050 ha        1 514      0.155000
     26 H16         0.1340   -0.1220   -2.1690 h4        1 514      0.274000
     27 H181        3.8550    1.0230   -0.8170 h1        1 514      0.160700
     28 H182        3.9490   -0.8160   -0.7720 h1        1 514      0.160700
     29 H201        1.7620    0.0740    2.4650 hc        1 514      0.105367
     30 H202        3.0430   -0.7990    1.5080 hc        1 514      0.105367
     31 H203        2.9500    1.0250    1.4630 hc        1 514      0.105367
@<TRIPOS>BOND
     1    1   19 2   
     2    2    4 2   
     3    2   12 1   
     4    2   15 1   
     5    3    4 1   
     6    3   14 2   
     7    5    6 ar  
     8    5    7 ar  
     9    5    8 1   
    10    6    9 ar  
    11    6   21 1   
    12    7   10 ar  
    13    7   22 1   
    14    8   11 1   
    15    8   12 2   
    16    9   13 ar  
    17    9   23 1   
    18   10   13 ar  
    19   10   24 1   
    20   13   25 1   
    21   14   15 1   
    22   14   18 1   
    23   15   16 2   
    24   16   17 1   
    25   16   26 1   
    26   17   18 1   
    27   17   19 1   
    28   18   27 1   
    29   18   28 1   
    30   19   20 1   
    31   20   29 1   
    32   20   30 1   
    33   20   31 1   
@<TRIPOS>SUBSTRUCTURE
     1 514         1 TEMP              0 ****  ****    0 ROOT
