@<TRIPOS>MOLECULE
514
   31    27     1     0     0
SMALL
bcc


@<TRIPOS>ATOM
      1 O1         -1.5220   -0.5830    4.7450 o         1 514     -0.443100
      2 C2          0.8440   -0.7730   -0.2600 cg        1 514      0.334500
      3 N3          2.9590   -0.7530    0.8240 n1        1 514      0.060500
      4 N4          2.3200   -0.8710   -0.4280 n1        1 514      0.060500
      5 C5         -0.5190    0.5700   -3.4640 cg        1 514     -0.119200
      6 C6         -0.0680    0.9340   -4.7230 c1        1 514     -0.003500
      7 C7         -1.8770    0.5740   -3.1860 c1        1 514     -0.049500
      8 C8          0.4670    0.1330   -2.4040 c         1 514      0.539300
      9 C9         -0.9750    1.3020   -5.7040 c1        1 514     -0.049500
     10 C10        -2.7840    0.9430   -4.1680 c1        1 514     -0.049500
     11 O11         1.6550    0.1010   -2.6570 o         1 514     -0.479100
     12 N12        -0.0010   -0.3220   -1.1450 n1        1 514     -0.419800
     13 C13        -2.3330    1.3070   -5.4270 c1        1 514     -0.049500
     14 C14         2.0180   -0.5830    1.8150 c1        1 514      0.115200
     15 C15         0.7460   -0.5830    1.2580 ce        1 514     -0.329400
     16 C16        -0.2170   -0.5830    2.2700 ce        1 514      0.740500
     17 N17         0.4020   -0.5830    3.5170 nf        1 514     -0.656100
     18 C18         1.9240   -0.5830    3.4210 c2        1 514     -0.098100
     19 C19        -0.3070   -0.5830    4.7450 c         1 514      0.749500
     20 C20         0.4490   -0.5830    6.0550 c3        1 514     -0.177100
     21 H6          0.8880    0.9300   -4.9180 ha        1 514      0.104500
     22 H7         -2.1950    0.3180   -2.3000 ha        1 514      0.092250
     23 H9         -0.6570    1.5590   -6.5910 ha        1 514      0.092250
     24 H10        -3.7400    0.9460   -3.9720 ha        1 514      0.092250
     25 H13        -2.9710    1.5670   -6.1180 ha        1 514      0.092250
     26 H16        -1.0590   -1.0600    2.1430 h4        1 514      0.124800
     27 H181        2.4840   -1.2540    3.8550 ha        1 514      0.202500
     28 H182        2.2320    0.2610    3.8040 ha        1 514      0.202500
     29 H201       -0.1850   -0.6020    6.7970 hc        1 514      0.106700
     30 H202        1.0250   -1.3700    6.0990 hc        1 514      0.106700
     31 H203        0.9960    0.2240    6.1150 hc        1 514      0.106700
@<TRIPOS>BOND
     1    1   19 2   
     2    2   12 3   
     3    2   15 1   
     4    3    4 3   
     5    5    6 3   
     6    5    8 1   
     7    6   21 1   
     8    7   10 3   
     9    7   22 1   
    10    8   11 2   
    11    8   12 1   
    12    9   13 3   
    13    9   23 1   
    14   10   24 1   
    15   13   25 1   
    16   14   15 2   
    17   14   18 2   
    18   15   16 1   
    19   16   17 2   
    20   16   26 1   
    21   17   19 1   
    22   18   27 1   
    23   18   28 1   
    24   19   20 1   
    25   20   29 1   
    26   20   30 1   
    27   20   31 1   
@<TRIPOS>SUBSTRUCTURE
     1 514         1 TEMP              0 ****  ****    0 ROOT
