@<TRIPOS>MOLECULE
515
   87    80     1     0     0
SMALL
bcc


@<TRIPOS>ATOM
      1 C1          1.9090   -1.8390   -5.4760 c1        1 515     -0.027500
      2 C2          2.8930   -2.8610   -5.6020 c1        1 515      0.107500
      3 C3          3.3930   -3.4900   -4.4660 c1        1 515     -0.130500
      4 C4          2.9270   -3.1170   -3.1930 c1        1 515     -0.106000
      5 C5          1.9570   -2.1120   -3.0680 c1        1 515     -0.129000
      6 C6          1.4490   -1.4720   -4.2220 c1        1 515     -0.027500
      7 N4          3.5880   -3.7830   -6.5260 n         1 515     -0.268000
      8 C9          1.4770   -0.8490   -0.9290 c3        1 515      0.004000
      9 N1          2.7350   -0.2460   -0.6940 n         1 515     -0.352000
     10 C10         2.8120    1.1560   -0.3560 c2        1 515      0.304000
     11 C11         0.7290   -0.9750    0.3740 c2        1 515      0.297000
     12 N2         -0.3330   -0.0620    0.6840 n         1 515     -0.376000
     13 C12        -0.7920    0.0790    2.0510 c3        1 515     -0.025000
     14 C13        -1.5430    1.4210    2.2080 c3        1 515     -0.178000
     15 C14        -3.0270    3.1520    5.3530 c3        1 515     -0.032000
     16 C15        -2.0910    1.5400    3.6440 c3        1 515     -0.154000
     17 O1         -3.6280    4.4390    5.5400 os        1 515     -0.242000
     18 O4          1.7940    1.7860   -0.1390 o         1 515     -0.413000
     19 C23         4.1600    1.8630   -0.3500 c3        1 515     -0.255000
     20 C8          5.0200   -3.8020   -6.5780 c2        1 515      0.271000
     21 O8          1.0460   -1.8310    1.1740 o         1 515     -0.403000
     22 C7          1.6830   -2.2490   -1.5420 c3        1 515     -0.115000
     23 O5          5.6640   -3.0610   -5.8640 o         1 515     -0.434000
     24 C24         5.7360   -4.7410   -7.5460 c2        1 515      0.371000
     25 O6          6.3070   -4.2750   -8.5690 o         1 515     -0.537500
     26 C25         2.6710   -6.0040   -7.0330 c1        1 515     -0.089000
     27 C26         2.8220   -4.6670   -7.3780 c1        1 515      0.107500
     28 C27         2.2730   -4.1900   -8.5530 c1        1 515     -0.130500
     29 C28         1.5710   -5.0480   -9.3900 c1        1 515     -0.163750
     30 C29         1.4210   -6.3850   -9.0450 c1        1 515     -0.163750
     31 C30         1.9700   -6.8610   -7.8690 c1        1 515     -0.118000
     32 O9          4.2970   -7.1410   -5.7140 o         1 515     -0.571000
     33 O10         2.5480   -6.3750   -4.6890 o         1 515     -0.571000
     34 C31         3.2150   -6.5060   -5.7360 c2        1 515      0.357000
     35 C32        -3.8500    4.7820    6.9150 c2        1 515      0.105000
     36 C33        -5.0390    4.2310    7.3740 c2        1 515     -0.179000
     37 C34        -5.4740    4.4880    8.6920 c1        1 515     -0.038000
     38 C35        -4.7180    5.2850    9.5220 c1        1 515     -0.047000
     39 C36        -3.5140    5.8430    9.0570 c1        1 515     -0.116000
     40 C37        -3.0860    5.5890    7.7550 c1        1 515     -0.085000
     41 C38        -1.7670    6.2330    7.4060 c2        1 515      0.368000
     42 O11        -0.7000    5.5770    7.5110 o         1 515     -0.556500
     43 O12        -1.7340    7.4330    7.0130 o         1 515     -0.556500
     44 C16         1.4500   -1.1590   -6.6220 c2        1 515     -0.107000
     45 C17         0.5320   -0.1150   -6.4930 c1        1 515     -0.154500
     46 C18         0.0680    0.2560   -5.2280 c1        1 515     -0.154500
     47 C19         0.5210   -0.4160   -4.0940 c2        1 515     -0.107000
     48 C20        -2.6620    2.9650    3.8630 c3        1 515     -0.163000
     49 O2          5.7080   -5.9900   -7.3520 o         1 515     -0.537500
     50 C41        -6.6580    3.8970    9.1700 c1        1 515     -0.115000
     51 C42        -7.0640    4.1190   10.4810 c1        1 515     -0.163750
     52 C43        -6.2990    4.9260   11.3220 c1        1 515     -0.163750
     53 C44        -5.1310    5.5090   10.8510 c1        1 515     -0.116000
     54 H31         4.0690   -4.1910   -4.5520 ha        1 515      0.189000
     55 H41         3.2790   -3.5600   -2.3940 ha        1 515      0.122000
     56 H91         0.9620   -0.2970   -1.5450 h1        1 515      0.118000
     57 H1          3.4990   -0.7470   -0.7490 hn        1 515      0.237000
     58 H2         -0.7120    0.4350    0.0230 hn        1 515      0.253000
     59 H121       -1.3950   -0.6590    2.2700 h1        1 515      0.089000
     60 H122       -0.0250    0.0630    2.6560 h1        1 515      0.089000
     61 H131       -0.9320    2.1570    2.0320 hc        1 515      0.083000
     62 H132       -2.2850    1.4550    1.5730 hc        1 515      0.083000
     63 H141       -3.6580    2.4550    5.6250 h1        1 515      0.105500
     64 H142       -2.2140    3.0880    5.8990 h1        1 515      0.105500
     65 H151       -2.8030    0.8780    3.7790 hc        1 515      0.081000
     66 H152       -1.3710    1.3760    4.2820 hc        1 515      0.081000
     67 H231        4.5030    1.9090    0.5700 hc        1 515      0.121667
     68 H232        4.7910    1.3670   -0.9090 hc        1 515      0.121667
     69 H233        4.0540    2.7760   -0.7060 hc        1 515      0.121667
     70 H71         0.8800   -2.7870   -1.4020 hc        1 515      0.102000
     71 H72         2.4490   -2.6860   -1.1100 hc        1 515      0.102000
     72 H271        2.3780   -3.2520   -8.7950 ha        1 515      0.189000
     73 H281        1.1850   -4.7140  -10.2150 ha        1 515      0.100000
     74 H291        0.9270   -6.9890   -9.6330 ha        1 515      0.100000
     75 H301        1.8640   -7.8020   -7.6260 ha        1 515      0.125000
     76 H331       -5.6110    3.7320    6.7630 ha        1 515      0.129000
     77 H361       -2.9480    6.3600    9.6650 ha        1 515      0.128500
     78 H161        1.7730   -1.4170   -7.5040 ha        1 515      0.136000
     79 H171        0.2140    0.3570   -7.2880 ha        1 515      0.108000
     80 H181       -0.5760    0.9890   -5.1380 ha        1 515      0.108000
     81 H191        0.1950   -0.1560   -3.2090 ha        1 515      0.136000
     82 H201       -3.4630    3.0820    3.3140 hc        1 515      0.084500
     83 H202       -1.9910    3.6270    3.6060 hc        1 515      0.084500
     84 H411       -7.2020    3.3460    8.5780 ha        1 515      0.118000
     85 H421       -7.8880    3.7080   10.8140 ha        1 515      0.100000
     86 H431       -6.5860    5.0820   12.2450 ha        1 515      0.100000
     87 H441       -4.5970    6.0730   11.4380 ha        1 515      0.128500
@<TRIPOS>BOND
     1    1    6 1   
     2    1   44 1   
     3    2    3 1   
     4    2    7 1   
     5    3   54 1   
     6    4    5 1   
     7    4   55 1   
     8    5   22 1   
     9    6   47 1   
    10    7   20 1   
    11    7   27 1   
    12    8    9 1   
    13    8   11 1   
    14    8   22 1   
    15    8   56 1   
    16    9   10 1   
    17    9   57 1   
    18   10   18 1   
    19   10   19 1   
    20   11   12 1   
    21   11   21 1   
    22   12   13 1   
    23   12   58 1   
    24   13   14 1   
    25   13   59 1   
    26   13   60 1   
    27   14   16 1   
    28   14   61 1   
    29   14   62 1   
    30   15   17 1   
    31   15   48 1   
    32   15   63 1   
    33   15   64 1   
    34   16   48 1   
    35   16   65 1   
    36   16   66 1   
    37   17   35 1   
    38   19   67 1   
    39   19   68 1   
    40   19   69 1   
    41   20   23 1   
    42   20   24 1   
    43   22   70 1   
    44   22   71 1   
    45   24   25 1   
    46   24   49 1   
    47   26   31 1   
    48   26   34 1   
    49   27   28 1   
    50   28   72 1   
    51   29   30 1   
    52   29   73 1   
    53   30   74 1   
    54   31   75 1   
    55   32   34 1   
    56   33   34 1   
    57   35   36 1   
    58   35   40 1   
    59   36   37 1   
    60   36   76 1   
    61   37   50 1   
    62   38   39 1   
    63   38   53 1   
    64   39   77 1   
    65   40   41 1   
    66   41   42 1   
    67   41   43 1   
    68   44   45 1   
    69   44   78 1   
    70   45   79 1   
    71   46   47 1   
    72   46   80 1   
    73   47   81 1   
    74   48   82 1   
    75   48   83 1   
    76   50   84 1   
    77   51   52 1   
    78   51   85 1   
    79   52   86 1   
    80   53   87 1   
@<TRIPOS>SUBSTRUCTURE
     1 515         1 TEMP              0 ****  ****    0 ROOT
