@<TRIPOS>MOLECULE
515
   87    91     1     0     0
SMALL
bcc


@<TRIPOS>ATOM
      1 C1         -1.3680   -0.3050   -4.9390 ca        1 515     -0.023000
      2 C2         -0.4830   -0.7550   -5.9880 ca        1 515      0.107600
      3 C3          0.5930   -1.5700   -5.6510 ca        1 515     -0.101000
      4 C4          0.9350   -1.7770   -4.3020 ca        1 515     -0.082000
      5 C5          0.2070   -1.2060   -3.2780 ca        1 515     -0.124300
      6 C6         -1.0120   -0.5310   -3.5810 ca        1 515     -0.008000
      7 N4         -0.6980   -0.3700   -7.3350 n         1 515     -0.310200
      8 C9          1.2980    0.1890   -1.5380 c3        1 515      0.058700
      9 N1          2.2790    0.7050   -2.4550 n         1 515     -0.539900
     10 C10         3.4120   -0.0040   -2.8350 c         1 515      0.671100
     11 C11         1.7900    0.1910   -0.0690 c         1 515      0.652100
     12 N2          0.8190   -0.0540    0.9000 n         1 515     -0.589900
     13 C12         1.1690   -0.2870    2.2710 c3        1 515      0.091000
     14 C13         0.1540    0.2470    3.2860 c3        1 515     -0.091400
     15 C14         0.2730    0.1370    7.1240 c3        1 515      0.125400
     16 C15         0.6500   -0.0480    4.6860 c3        1 515     -0.077400
     17 O1         -0.6900    0.5670    8.0920 os        1 515     -0.288900
     18 O4          3.7800   -1.0530   -2.2570 o         1 515     -0.663100
     19 C23         4.2100    0.5860   -3.9720 c3        1 515     -0.194100
     20 C8         -0.8380   -1.3410   -8.3510 c         1 515      0.562100
     21 O8          2.9530    0.4500    0.2850 o         1 515     -0.595100
     22 C7          0.7610   -1.2190   -1.8950 c3        1 515     -0.050100
     23 O5         -0.9080   -0.9820   -9.5410 o         1 515     -0.643100
     24 C24        -0.9810   -2.8510   -7.9730 c         1 515      0.893600
     25 O6          0.0710   -3.5340   -7.9320 o         1 515     -0.801800
     26 C25         0.2190    1.9500   -7.1020 ca        1 515     -0.109600
     27 C26        -0.7100    1.0220   -7.6330 ca        1 515      0.092600
     28 C27        -1.7180    1.5050   -8.5060 ca        1 515     -0.149000
     29 C28        -1.8080    2.8520   -8.8290 ca        1 515     -0.157000
     30 C29        -0.9090    3.7650   -8.2820 ca        1 515     -0.181000
     31 C30         0.0870    3.3060   -7.4280 ca        1 515     -0.112000
     32 O9          1.3670    2.0600   -5.0030 o         1 515     -0.842800
     33 O10         2.3980    1.0250   -6.6710 o         1 515     -0.842800
     34 C32        -0.3330    0.3720    9.4100 ca        1 515      0.175100
     35 C33         0.8730   -0.1820    9.8030 ca        1 515     -0.257000
     36 C34         1.1680   -0.3470   11.1810 ca        1 515     -0.012000
     37 C35         0.2150    0.0610   12.1500 ca        1 515     -0.057000
     38 C36        -1.0140    0.6260   11.7090 ca        1 515     -0.121000
     39 C37        -1.3070    0.7880   10.3780 ca        1 515     -0.093600
     40 C38        -2.6540    1.4010    9.9880 c         1 515      0.925200
     41 O11        -3.6220    0.6120    9.8200 o         1 515     -0.817800
     42 O12        -2.7190    2.6580    9.9180 o         1 515     -0.817800
     43 C16        -2.5970    0.3540   -5.2210 ca        1 515     -0.073000
     44 C17        -3.4330    0.7670   -4.2120 ca        1 515     -0.170000
     45 C18        -3.0740    0.5520   -2.8630 ca        1 515     -0.141000
     46 C19        -1.8920   -0.0760   -2.5600 ca        1 515     -0.137000
     47 C20        -0.3120    0.4310    5.7520 c3        1 515     -0.085400
     48 O2         -2.1560   -3.2630   -7.8060 o         1 515     -0.801800
     49 C41         2.3960   -0.9120   11.6180 ca        1 515     -0.126000
     50 C42         2.6620   -1.0620   12.9590 ca        1 515     -0.154000
     51 C43         1.7120   -0.6550   13.9230 ca        1 515     -0.171000
     52 C44         0.5160   -0.1060   13.5260 ca        1 515     -0.107000
     53 H31         1.2130   -2.0280   -6.4440 ha        1 515      0.183000
     54 H41         1.8500   -2.3490   -4.0770 ha        1 515      0.134000
     55 H91         0.4190    0.9080   -1.5840 h1        1 515      0.077700
     56 H1          1.9090    1.3310   -3.1560 hn        1 515      0.373500
     57 H2         -0.0860   -0.3360    0.6120 hn        1 515      0.299500
     58 H121        1.2880   -1.3980    2.4490 h1        1 515      0.043700
     59 H122        2.1700    0.1950    2.4690 h1        1 515      0.043700
     60 H131        0.0190    1.3520    3.1550 hc        1 515      0.045700
     61 H132       -0.8460   -0.2330    3.1280 hc        1 515      0.045700
     62 H141        0.4630   -0.9620    7.2460 h1        1 515      0.027700
     63 H142        1.2320    0.7010    7.2730 h1        1 515      0.027700
     64 H151        0.8100   -1.1530    4.7990 hc        1 515      0.035700
     65 H152        1.6480    0.4460    4.8350 hc        1 515      0.035700
     66 H231        5.0180   -0.1270   -4.2570 hc        1 515      0.078367
     67 H232        3.5420    0.7780   -4.8650 hc        1 515      0.078367
     68 H233        4.6630    1.5540   -3.6550 hc        1 515      0.078367
     69 H71         1.6060   -1.9570   -1.8200 hc        1 515      0.052700
     70 H72        -0.0280   -1.5280   -1.1630 hc        1 515      0.052700
     71 H271       -2.4250    0.7920   -8.9600 ha        1 515      0.139000
     72 H281       -2.5940    3.1940   -9.5160 ha        1 515      0.094000
     73 H291       -0.9850    4.8320   -8.5250 ha        1 515      0.092000
     74 H301        0.8030    4.0150   -6.9830 ha        1 515      0.125000
     75 H331        1.6290   -0.5060    9.0770 ha        1 515      0.123000
     76 H361       -1.7500    0.9420   12.4640 ha        1 515      0.134000
     77 H161       -2.8820    0.5290   -6.2720 ha        1 515      0.145000
     78 H171       -4.3830    1.2680   -4.4420 ha        1 515      0.107000
     79 H181       -3.7480    0.8950   -2.0660 ha        1 515      0.103000
     80 H191       -1.6160   -0.2400   -1.5080 ha        1 515      0.105000
     81 H201       -0.4970    1.5320    5.6520 hc        1 515      0.063200
     82 H202       -1.3030   -0.0820    5.6500 hc        1 515      0.063200
     83 H411        3.1300   -1.2260   10.8620 ha        1 515      0.116000
     84 H421        3.6120   -1.4990   13.2950 ha        1 515      0.105000
     85 H431        1.9430   -0.7840   14.9890 ha        1 515      0.104000
     86 H441       -0.2300    0.2150   14.2680 ha        1 515      0.118000
     87 C31         1.3930    1.6250   -6.1960 c         1 515      0.916200
@<TRIPOS>BOND
     1    1    2 ar  
     2    1    6 ar  
     3    1   43 ar  
     4    2    3 ar  
     5    2    7 1   
     6    3    4 ar  
     7    3   53 1   
     8    4    5 ar  
     9    4   54 1   
    10    5    6 ar  
    11    5   22 1   
    12    6   46 ar  
    13    7   20 1   
    14    7   27 1   
    15    8    9 1   
    16    8   11 1   
    17    8   22 1   
    18    8   55 1   
    19    9   10 1   
    20    9   56 1   
    21   10   18 2   
    22   10   19 1   
    23   11   12 1   
    24   11   21 2   
    25   12   13 1   
    26   12   57 1   
    27   13   14 1   
    28   13   58 1   
    29   13   59 1   
    30   14   16 1   
    31   14   60 1   
    32   14   61 1   
    33   15   17 1   
    34   15   47 1   
    35   15   62 1   
    36   15   63 1   
    37   16   47 1   
    38   16   64 1   
    39   16   65 1   
    40   17   34 1   
    41   19   66 1   
    42   19   67 1   
    43   19   68 1   
    44   20   23 2   
    45   20   24 1   
    46   22   69 1   
    47   22   70 1   
    48   24   25 1   
    49   24   48 1   
    50   26   27 ar  
    51   26   31 ar  
    52   26   87 1   
    53   27   28 ar  
    54   28   29 ar  
    55   28   71 1   
    56   29   30 ar  
    57   29   72 1   
    58   30   31 ar  
    59   30   73 1   
    60   31   74 1   
    61   32   87 1   
    62   33   87 1   
    63   34   35 ar  
    64   34   39 ar  
    65   35   36 ar  
    66   35   75 1   
    67   36   37 ar  
    68   36   49 ar  
    69   37   38 ar  
    70   37   52 ar  
    71   38   39 ar  
    72   38   76 1   
    73   39   40 1   
    74   40   41 1   
    75   40   42 1   
    76   43   44 ar  
    77   43   77 1   
    78   44   45 ar  
    79   44   78 1   
    80   45   46 ar  
    81   45   79 1   
    82   46   80 1   
    83   47   81 1   
    84   47   82 1   
    85   49   50 ar  
    86   49   83 1   
    87   50   51 ar  
    88   50   84 1   
    89   51   52 ar  
    90   51   85 1   
    91   52   86 1   
@<TRIPOS>SUBSTRUCTURE
     1 515         1 TEMP              0 ****  ****    0 ROOT
