@<TRIPOS>MOLECULE
515
   89    93     1     0     0
SMALL
bcc


@<TRIPOS>ATOM
      1 C1         -0.9680   -1.4380   -1.4190 ca        1 515     -0.072300
      2 C2         -0.7650   -0.6670   -0.1270 c3        1 515      0.384700
      3 C3         -1.9440    0.2010    0.2270 c2        1 515     -0.155200
      4 C4         -2.9120    0.4910   -0.6470 ce        1 515     -0.118000
      5 C5         -2.9080    0.0090   -2.0240 ce        1 515     -0.025200
      6 C6         -2.0020   -1.1050   -2.3130 ca        1 515     -0.021800
      7 N4          0.5480    0.0440   -0.1220 n         1 515     -0.369000
      8 C9         -1.3540    1.8560    5.9360 c2        1 515     -0.472000
      9 N1         -0.3980    2.1710    4.9150 n4        1 515     -0.469600
     10 C10         0.8880    2.6810    5.4900 c         1 515      0.569100
     11 C11        -2.0300    2.8720    6.6090 c2        1 515      0.542300
     12 N2         -3.0530    2.4360    7.6190 n4        1 515     -0.646800
     13 C12        -2.4970    1.5670    8.6910 c3        1 515      0.128800
     14 C13        -3.1100    0.1690    8.7160 c3        1 515     -0.115400
     15 C14        -4.9720    0.0670   11.1380 c3        1 515      0.118400
     16 C15        -2.7850   -0.5320   10.0220 c3        1 515     -0.068400
     17 O1         -6.2230   -0.2130   10.4850 os        1 515     -0.352900
     18 O4          1.6550    1.8790    6.0180 o         1 515     -0.502100
     19 C23         1.1120    4.1510    5.3500 c3        1 515     -0.199100
     20 C8          1.3040   -0.3880    0.9980 c         1 515      0.668500
     21 O8         -1.9030    4.1150    6.5030 o         1 515     -0.687300
     22 C7         -3.6850    0.5920   -2.9510 c2        1 515     -0.199000
     23 O5          2.4380   -0.0340    1.3110 o         1 515     -0.539500
     24 C24         0.5090   -1.5220    1.6340 c         1 515      0.658600
     25 O6         -0.6770   -1.6820    0.9500 os        1 515     -0.410900
     26 C25         0.4340    2.5030    0.3200 ca        1 515     -0.125600
     27 C26         0.5940    1.4010   -0.5500 ca        1 515      0.061600
     28 C27         0.8500    1.6360   -1.9200 ca        1 515     -0.125000
     29 C28         0.9420    2.9340   -2.4090 ca        1 515     -0.133000
     30 C29         0.7880    4.0210   -1.5500 ca        1 515     -0.147000
     31 C30         0.5380    3.8010   -0.2000 ca        1 515     -0.090000
     32 O9         -0.0010    1.2390    2.3400 o         1 515     -0.859800
     33 O10         0.0500    3.4320    2.4930 o         1 515     -0.859800
     34 C32        -7.1660    0.8000   10.6020 ca        1 515      0.131100
     35 C33        -8.2920    0.5230   11.3560 ca        1 515     -0.158000
     36 C34        -9.3550    1.4580   11.4180 ca        1 515     -0.031000
     37 C35        -9.2430    2.6820   10.7100 ca        1 515     -0.044000
     38 C36        -8.0700    2.9400    9.9500 ca        1 515     -0.099000
     39 C37        -7.0420    2.0270    9.8860 ca        1 515     -0.104600
     40 C38        -5.8230    2.3400    9.0640 c         1 515      0.913200
     41 O11        -5.7410    1.9270    7.8690 o         1 515     -0.848800
     42 O12        -4.8800    3.0160    9.5860 o         1 515     -0.848800
     43 C16        -0.1130   -2.5070   -1.7050 ca        1 515     -0.088000
     44 C17        -0.2760   -3.2540   -2.8690 ca        1 515     -0.137000
     45 C18        -1.3050   -2.9360   -3.7540 ca        1 515     -0.127000
     46 C19        -2.1610   -1.8740   -3.4760 ca        1 515     -0.131000
     47 C20        -4.0270   -1.0500   10.7180 c3        1 515     -0.084400
     48 O2          0.7230   -2.2800    2.5660 o         1 515     -0.539500
     49 C41       -10.5310    1.2020   12.1770 ca        1 515     -0.120000
     50 C42       -11.5450    2.1270   12.2260 ca        1 515     -0.141000
     51 C43       -11.4330    3.3490   11.5200 ca        1 515     -0.147000
     52 C44       -10.3090    3.6200   10.7790 ca        1 515     -0.109000
     53 H31        -1.9310    0.5800    1.2650 ha        1 515      0.186000
     54 H41        -3.7580    1.1350   -0.3550 ha        1 515      0.138000
     55 H91        -1.5070    0.7890    6.1240 hx        1 515      0.170000
     56 H1         -0.7640    2.8950    4.2610 hn        1 515      0.488800
     57 H2         -3.8400    1.9470    7.1500 hn        1 515      0.485800
     58 H121       -1.3820    1.4960    8.5600 hx        1 515      0.088200
     59 H122       -2.7250    2.0810    9.6730 hx        1 515      0.088200
     60 H131       -2.7210   -0.4280    7.8510 hc        1 515      0.078200
     61 H132       -4.2310    0.2500    8.5960 hc        1 515      0.078200
     62 H141       -5.1450    0.0560   12.2460 h1        1 515      0.053200
     63 H142       -4.5990    1.0810   10.8280 h1        1 515      0.053200
     64 H151       -2.2370    0.1590   10.7170 hc        1 515      0.037700
     65 H152       -2.1000   -1.3970    9.8200 hc        1 515      0.037700
     66 H231        2.0870    4.4250    5.8180 hc        1 515      0.100367
     67 H232        1.1230    4.4210    4.2590 hc        1 515      0.100367
     68 H233        0.2770    4.7110    5.8490 hc        1 515      0.100367
     69 H71        -3.6950    0.2900   -4.0050 ha        1 515      0.114500
     70 H72        -4.3520    1.4270   -2.6990 ha        1 515      0.114500
     71 H271        0.9790    0.7870   -2.6090 ha        1 515      0.137000
     72 H281        1.1410    3.0990   -3.4780 ha        1 515      0.121000
     73 H291        0.8640    5.0460   -1.9370 ha        1 515      0.123000
     74 H301        0.4120    4.6470    0.4980 ha        1 515      0.162000
     75 H331       -8.3750   -0.4310   11.8960 ha        1 515      0.134000
     76 H361       -7.9920    3.8910    9.4010 ha        1 515      0.141000
     77 H161        0.6880   -2.7610   -0.9930 ha        1 515      0.142000
     78 H171        0.4010   -4.0930   -3.0840 ha        1 515      0.130000
     79 H181       -1.4450   -3.5260   -4.6710 ha        1 515      0.125000
     80 H191       -2.9790   -1.6450   -4.1760 ha        1 515      0.129000
     81 H201       -3.7210   -1.6310   11.6260 hc        1 515      0.051200
     82 H202       -4.5720   -1.7560   10.0350 hc        1 515      0.051200
     83 H411      -10.6100    0.2490   12.7200 ha        1 515      0.123000
     84 H421      -12.4550    1.9310   12.8100 ha        1 515      0.118000
     85 H431      -12.2580    4.0730   11.5730 ha        1 515      0.120000
     86 H441      -10.2120    4.5660   10.2260 ha        1 515      0.128000
     87 H12        -0.2030    1.3310    4.3330 hn        1 515      0.488800
     88 H22        -3.4900    3.2660    8.0710 hn        1 515      0.485800
     89 C31         0.1500    2.3800    1.7900 c         1 515      0.920200
@<TRIPOS>BOND
     1    1    2 1   
     2    1    6 ar  
     3    1   43 ar  
     4    2    3 1   
     5    2    7 1   
     6    2   25 1   
     7    3    4 2   
     8    3   53 1   
     9    4    5 1   
    10    4   54 1   
    11    5    6 1   
    12    5   22 2   
    13    6   46 ar  
    14    7   20 1   
    15    7   27 1   
    16    8    9 1   
    17    8   11 2   
    18    8   55 1   
    19    9   10 1   
    20    9   56 1   
    21    9   87 1   
    22   10   18 2   
    23   10   19 1   
    24   11   12 1   
    25   11   21 1   
    26   12   13 1   
    27   12   57 1   
    28   12   88 1   
    29   13   14 1   
    30   13   58 1   
    31   13   59 1   
    32   14   16 1   
    33   14   60 1   
    34   14   61 1   
    35   15   17 1   
    36   15   47 1   
    37   15   62 1   
    38   15   63 1   
    39   16   47 1   
    40   16   64 1   
    41   16   65 1   
    42   17   34 1   
    43   19   66 1   
    44   19   67 1   
    45   19   68 1   
    46   20   23 2   
    47   20   24 1   
    48   22   69 1   
    49   22   70 1   
    50   24   25 1   
    51   24   48 2   
    52   26   27 ar  
    53   26   31 ar  
    54   26   89 1   
    55   27   28 ar  
    56   28   29 ar  
    57   28   71 1   
    58   29   30 ar  
    59   29   72 1   
    60   30   31 ar  
    61   30   73 1   
    62   31   74 1   
    63   32   89 1   
    64   33   89 1   
    65   34   35 ar  
    66   34   39 ar  
    67   35   36 ar  
    68   35   75 1   
    69   36   37 ar  
    70   36   49 ar  
    71   37   38 ar  
    72   37   52 ar  
    73   38   39 ar  
    74   38   76 1   
    75   39   40 1   
    76   40   41 1   
    77   40   42 1   
    78   43   44 ar  
    79   43   77 1   
    80   44   45 ar  
    81   44   78 1   
    82   45   46 ar  
    83   45   79 1   
    84   46   80 1   
    85   47   81 1   
    86   47   82 1   
    87   49   50 ar  
    88   49   83 1   
    89   50   51 ar  
    90   50   84 1   
    91   51   52 ar  
    92   51   85 1   
    93   52   86 1   
@<TRIPOS>SUBSTRUCTURE
     1 515         1 TEMP              0 ****  ****    0 ROOT
