@<TRIPOS>MOLECULE
516
   74    78     1     0     0
SMALL
bcc


@<TRIPOS>ATOM
      1 O16         1.6790    1.1000    0.4460 o         1 516     -0.718100
      2 C15         2.5490    0.1780    0.5120 c         1 516      0.693100
      3 C8          2.5480   -0.6700    1.8100 c3        1 516      0.077500
      4 C9          1.7480   -1.9880    1.6890 c3        1 516     -0.086700
      5 C10         1.9420   -2.8440    2.9410 c3        1 516     -0.086900
      6 C11         1.1120   -4.1120    2.8570 c3        1 516     -0.079400
      7 C12         1.4460   -4.9130    1.6170 c3        1 516     -0.089400
      8 C13         1.3230   -4.0650    0.3700 c3        1 516     -0.079400
      9 C14         2.1630   -2.8040    0.4700 c3        1 516     -0.086900
     10 N7          1.9920    0.1630    2.9670 n4        1 516     -0.660800
     11 C5          1.4210    1.5060    2.6110 c         1 516      0.551100
     12 O6          2.1960    2.4560    2.6420 o         1 516     -0.430100
     13 C3         -0.0980    1.6860    2.4170 c3        1 516      0.102500
     14 C4         -0.8530    0.4000    2.1260 c3        1 516     -0.157100
     15 N2         -0.3180    2.7060    1.3230 n4        1 516     -0.754000
     16 C1         -1.6150    3.4090    1.4520 c3        1 516      0.077100
     17 N17         3.4740    0.0060   -0.4500 n         1 516     -0.378800
     18 C18         3.3680    0.6940   -1.7550 c3        1 516      0.085400
     19 C19         4.7260    0.4850   -2.4620 c3        1 516     -0.094400
     20 C20         5.5690   -0.4130   -1.5640 c3        1 516     -0.087400
     21 C21         4.6890   -0.7930   -0.3630 c3        1 516      0.070000
     22 C22         2.2130    0.2220   -2.5920 cc        1 516      0.282700
     23 S23         2.2560    0.2190   -4.3000 ss        1 516      0.064700
     24 C24         0.6860   -0.3000   -4.3730 cc        1 516     -0.240400
     25 C25         0.1530   -0.4750   -3.0910 cd        1 516      0.392800
     26 N26         1.0420   -0.1740   -2.0670 nd        1 516     -0.660000
     27 C27        -1.1990   -0.9590   -2.8080 ca        1 516     -0.133500
     28 C28        -1.3610   -2.1400   -2.1110 ca        1 516     -0.108000
     29 C29        -2.6520   -2.6570   -1.8590 ca        1 516     -0.148000
     30 C30        -3.7650   -1.9830   -2.2990 ca        1 516     -0.091000
     31 C31        -3.6330   -0.7560   -3.0050 ca        1 516     -0.046000
     32 C33        -4.7790   -0.0520   -3.4700 ca        1 516     -0.109000
     33 C32        -2.3390   -0.2300   -3.2650 ca        1 516     -0.025000
     34 C36        -2.2330    0.9970   -3.9770 ca        1 516     -0.147000
     35 C35        -3.3560    1.6570   -4.4140 ca        1 516     -0.108000
     36 C34        -4.6440    1.1270   -4.1600 ca        1 516     -0.120000
     37 H8          3.6160   -0.9240    2.0970 hx        1 516      0.129700
     38 H9          0.6540   -1.7430    1.5710 hc        1 516      0.072700
     39 H10         3.0260   -3.1170    3.0400 hc        1 516      0.052950
     40 H10A        1.6460   -2.2950    3.8720 hc        1 516      0.052950
     41 H11         0.0220   -3.8470    2.8530 hc        1 516      0.063700
     42 H11A        1.3050   -4.7340    3.7710 hc        1 516      0.063700
     43 H12         0.7540   -5.7930    1.5440 hc        1 516      0.070700
     44 H12A        2.4900   -5.3170    1.6990 hc        1 516      0.070700
     45 H13         0.2490   -3.7890    0.1990 hc        1 516      0.063700
     46 H13A        1.6630   -4.6550   -0.5220 hc        1 516      0.063700
     47 H14         3.2420   -3.0960    0.5680 hc        1 516      0.052950
     48 H14A        2.0240   -2.2070   -0.4670 hc        1 516      0.052950
     49 HN7         1.2680   -0.3920    3.4420 hn        1 516      0.475300
     50 H3         -0.4770    2.1440    3.3870 hx        1 516      0.142700
     51 H4         -0.7820   -0.2970    2.9970 hc        1 516      0.100700
     52 H4A        -0.4630   -0.0970    1.2000 hc        1 516      0.100700
     53 H4B        -1.9450    0.6090    1.9730 hc        1 516      0.100700
     54 HN2        -0.2630    2.2120    0.4120 hn        1 516      0.488300
     55 H1         -1.6510    3.9760    2.4210 hx        1 516      0.120700
     56 H1A        -1.7130    4.1310    0.5930 hx        1 516      0.120700
     57 H1B        -2.4590    2.6690    1.4110 hx        1 516      0.120700
     58 H18         3.2010    1.7940   -1.5380 h1        1 516      0.093700
     59 H19         4.5870    0.0150   -3.4690 hc        1 516      0.085200
     60 H19A        5.2250    1.4760   -2.6130 hc        1 516      0.085200
     61 H20         5.8930   -1.3360   -2.1070 hc        1 516      0.086700
     62 H20A        6.4890    0.1200   -1.2160 hc        1 516      0.086700
     63 H21         5.2180   -0.5750    0.6050 h1        1 516      0.066700
     64 H21A        4.4370   -1.8890   -0.4030 h1        1 516      0.066700
     65 H24         0.1360   -0.4920   -5.2980 h4        1 516      0.214000
     66 H28        -0.4830   -2.7070   -1.7660 ha        1 516      0.129000
     67 H29        -2.7500   -3.6150   -1.3280 ha        1 516      0.143000
     68 H30        -4.7750   -2.3870   -2.1260 ha        1 516      0.151000
     69 H33        -5.7750   -0.4810   -3.2750 ha        1 516      0.150000
     70 H36        -1.2320    1.4010   -4.1890 ha        1 516      0.130000
     71 H35        -3.2680    2.5980   -4.9790 ha        1 516      0.146000
     72 H34        -5.5290    1.6660   -4.5320 ha        1 516      0.153000
     73 H72         2.7680    0.3280    3.6270 hn        1 516      0.475300
     74 H22         0.4540    3.3920    1.3460 hn        1 516      0.488300
@<TRIPOS>BOND
     1    1    2 2   
     2    2    3 1   
     3    2   17 1   
     4    3    4 1   
     5    3   10 1   
     6    3   37 1   
     7    4    5 1   
     8    4    9 1   
     9    4   38 1   
    10    5    6 1   
    11    5   39 1   
    12    5   40 1   
    13    6    7 1   
    14    6   41 1   
    15    6   42 1   
    16    7    8 1   
    17    7   43 1   
    18    7   44 1   
    19    8    9 1   
    20    8   45 1   
    21    8   46 1   
    22    9   47 1   
    23    9   48 1   
    24   10   11 1   
    25   10   49 1   
    26   10   73 1   
    27   11   12 2   
    28   11   13 1   
    29   13   14 1   
    30   13   15 1   
    31   13   50 1   
    32   14   51 1   
    33   14   52 1   
    34   14   53 1   
    35   15   16 1   
    36   15   54 1   
    37   15   74 1   
    38   16   55 1   
    39   16   56 1   
    40   16   57 1   
    41   17   18 1   
    42   17   21 1   
    43   18   19 1   
    44   18   22 1   
    45   18   58 1   
    46   19   20 1   
    47   19   59 1   
    48   19   60 1   
    49   20   21 1   
    50   20   61 1   
    51   20   62 1   
    52   21   63 1   
    53   21   64 1   
    54   22   23 1   
    55   22   26 2   
    56   23   24 1   
    57   24   25 2   
    58   24   65 1   
    59   25   26 1   
    60   25   27 1   
    61   27   28 ar  
    62   27   33 ar  
    63   28   29 ar  
    64   28   66 1   
    65   29   30 ar  
    66   29   67 1   
    67   30   31 ar  
    68   30   68 1   
    69   31   32 ar  
    70   31   33 ar  
    71   32   36 ar  
    72   32   69 1   
    73   33   34 ar  
    74   34   35 ar  
    75   34   70 1   
    76   35   36 ar  
    77   35   71 1   
    78   36   72 1   
@<TRIPOS>SUBSTRUCTURE
     1 516         1 TEMP              0 ****  ****    0 ROOT
