@<TRIPOS>MOLECULE
516
   72    70     1     0     0
SMALL
bcc


@<TRIPOS>ATOM
      1 O16        -0.9770    0.4510    0.8400 o         1 516     -0.357000
      2 C15         0.2240    0.4550    0.8190 c1        1 516      0.269000
      3 C8          1.0290    0.4880    2.1700 c2        1 516      0.016000
      4 C9          0.6430   -0.5620    2.9560 c3        1 516     -0.099000
      5 C10        -0.2960   -0.1010    4.1440 c3        1 516     -0.158500
      6 C11        -0.7130   -1.2420    5.0490 c3        1 516     -0.153000
      7 C12         0.1060   -2.3060    4.9140 c3        1 516     -0.157000
      8 C13         1.4460   -2.2420    4.7610 c3        1 516     -0.153000
      9 C14         1.8480   -1.0990    3.8690 c3        1 516     -0.158500
     10 N7          0.7550    1.7590    2.8760 n         1 516     -0.357000
     11 C5          1.7850    2.7530    2.9950 c2        1 516      0.259000
     12 O6          2.8520    2.5830    2.4560 o         1 516     -0.388000
     13 C3          1.4840    4.0770    3.6830 c3        1 516     -0.030000
     14 C4          1.1760    5.1120    2.6520 c3        1 516     -0.215000
     15 N2          2.6270    4.4890    4.4450 n3        1 516     -0.281000
     16 C1          2.2480    5.5370    5.3610 c3        1 516     -0.132000
     17 N17         0.9280    0.6100   -0.4470 n3        1 516     -0.315000
     18 C18         0.3160    0.7750   -1.8280 c3        1 516      0.071000
     19 C19         1.4810    1.1960   -2.7520 c3        1 516     -0.162000
     20 C20         2.4450    1.4900   -1.9560 c3        1 516     -0.173000
     21 C21         2.2050    0.6340   -0.6340 c3        1 516     -0.053000
     22 C22        -0.2520   -0.4540   -2.2720 c2        1 516     -0.284000
     23 S23         0.2640   -1.8740   -1.9270 ss        1 516      0.534000
     24 C24        -0.6290   -2.8770   -2.6520 c1        1 516     -0.470000
     25 C25        -1.6280   -2.1290   -3.3960 c2        1 516     -0.042000
     26 N26        -1.3800   -0.5950   -3.1480 n2        1 516     -0.100000
     27 C27        -2.5690   -2.6690   -4.2620 c1        1 516     -0.000000
     28 C28        -3.8130   -2.6310   -3.6340 c1        1 516     -0.118250
     29 C29        -4.9810   -2.7330   -4.3910 c1        1 516     -0.118250
     30 C30        -4.9030   -2.8730   -5.7700 c1        1 516     -0.114000
     31 C31        -3.6430   -2.9120   -6.4070 c1        1 516     -0.041000
     32 C33        -3.5610   -3.0910   -7.8050 c1        1 516     -0.118250
     33 C32        -2.4910   -2.8110   -5.6590 c2        1 516     -0.018000
     34 C36        -1.2300   -2.8870   -6.2940 c2        1 516     -0.120000
     35 C35        -1.1550   -3.0630   -7.6700 c1        1 516     -0.129000
     36 C34        -2.3200   -3.1650   -8.4250 c1        1 516     -0.118250
     37 H8          1.9770    0.4200    1.9820 h4        1 516      0.138000
     38 H9          0.2340   -1.2840    2.4330 hc        1 516      0.103000
     39 H10         0.1870    0.5810    4.6900 hc        1 516      0.088000
     40 H10A       -1.1120    0.3150    3.7590 hc        1 516      0.088000
     41 H11        -0.6890   -0.9360    5.9850 hc        1 516      0.080750
     42 H11A       -1.6090   -1.5040    4.8280 hc        1 516      0.080750
     43 H12        -0.0440   -2.8540    5.6890 hc        1 516      0.079000
     44 H12A       -0.2390   -2.8220    4.1220 hc        1 516      0.079000
     45 H13         1.8690   -2.1200    5.6560 hc        1 516      0.080750
     46 H13A        1.7660   -3.0920    4.3640 hc        1 516      0.080750
     47 H14         2.5620   -1.3880    3.3000 hc        1 516      0.088000
     48 H14A        2.1720   -0.3600    4.4300 hc        1 516      0.088000
     49 HN7        -0.0730    1.8970    3.2810 hn        1 516      0.235000
     50 H3          0.7150    3.9680    4.2780 h1        1 516      0.113000
     51 H4          0.5030    5.7340    3.0040 hc        1 516      0.091000
     52 H4A         1.9970    5.6090    2.4300 hc        1 516      0.091000
     53 H4B         0.8250    4.6710    1.8350 hc        1 516      0.091000
     54 HN2         2.9560    3.7730    4.9170 hn        1 516      0.171000
     55 H1          1.5980    5.1890    6.0020 h1        1 516      0.077000
     56 H1A         3.0470    5.8560    5.8440 h1        1 516      0.077000
     57 H1B         1.8430    6.2900    4.8550 h1        1 516      0.077000
     58 H18        -0.3690    1.4750   -1.8110 h1        1 516      0.144000
     59 H19         1.2270    1.9840   -3.2850 hc        1 516      0.105500
     60 H19A        1.7430    0.4360   -3.3540 hc        1 516      0.105500
     61 H20         2.4280    2.4430   -1.7470 hc        1 516      0.095500
     62 H20A        3.3050    1.2490   -2.3620 hc        1 516      0.095500
     63 H21         2.6440    1.0560    0.1200 h1        1 516      0.104000
     64 H21A        2.5360   -0.2520   -0.7530 h1        1 516      0.104000
     65 H24        -0.5410   -3.8680   -2.6220 DU        1 516      0.186000
     66 H28        -3.8670   -2.5320   -2.6730 ha        1 516      0.136000
     67 H29        -5.8640   -2.7050   -3.9450 ha        1 516      0.136000
     68 H30        -5.7220   -2.9450   -6.3020 ha        1 516      0.132000
     69 H33        -4.3800   -3.1630   -8.3380 ha        1 516      0.136000
     70 H36        -0.3990   -2.8140   -5.7580 ha        1 516      0.138000
     71 H35        -0.2840   -3.1150   -8.1090 ha        1 516      0.131000
     72 H34        -2.2650   -3.2890   -9.4020 ha        1 516      0.136000
@<TRIPOS>BOND
     1    1    2 1   
     2    2   17 1   
     3    3    4 1   
     4    3   10 1   
     5    3   37 1   
     6    4    5 1   
     7    4    9 1   
     8    4   38 1   
     9    5    6 1   
    10    5   39 1   
    11    5   40 1   
    12    6    7 1   
    13    6   41 1   
    14    6   42 1   
    15    7    8 1   
    16    7   43 1   
    17    7   44 1   
    18    8    9 1   
    19    8   45 1   
    20    8   46 1   
    21    9   47 1   
    22    9   48 1   
    23   10   11 1   
    24   10   49 1   
    25   11   12 1   
    26   11   13 1   
    27   13   14 1   
    28   13   15 1   
    29   13   50 1   
    30   14   51 1   
    31   14   52 1   
    32   14   53 1   
    33   15   16 1   
    34   15   54 1   
    35   16   55 1   
    36   16   56 1   
    37   16   57 1   
    38   17   18 1   
    39   17   21 1   
    40   18   19 1   
    41   18   22 1   
    42   18   58 1   
    43   19   20 1   
    44   19   59 1   
    45   19   60 1   
    46   20   21 1   
    47   20   61 1   
    48   20   62 1   
    49   21   63 1   
    50   21   64 1   
    51   22   23 1   
    52   22   26 1   
    53   23   24 1   
    54   24   25 1   
    55   25   26 1   
    56   25   27 1   
    57   27   33 1   
    58   28   29 1   
    59   28   66 1   
    60   29   67 1   
    61   30   31 1   
    62   30   68 1   
    63   31   33 1   
    64   32   36 1   
    65   32   69 1   
    66   33   34 1   
    67   34   35 1   
    68   34   70 1   
    69   35   71 1   
    70   36   72 1   
@<TRIPOS>SUBSTRUCTURE
     1 516         1 TEMP              0 ****  ****    0 ROOT
