@<TRIPOS>MOLECULE
516
   72    76     1     0     0
SMALL
bcc


@<TRIPOS>ATOM
      1 O16         1.6290    1.3770    1.2620 o         1 516     -0.599100
      2 C15         1.9540    0.7080    0.2620 c         1 516      0.628100
      3 C8          3.3130   -0.0460    0.2530 c3        1 516      0.045700
      4 C9          3.2670   -1.0730    1.4100 c3        1 516     -0.067700
      5 C10         4.6040   -1.7810    1.5700 c3        1 516     -0.074400
      6 C11         4.5410   -2.8360    2.6560 c3        1 516     -0.076400
      7 C12         3.4330   -3.8360    2.3980 c3        1 516     -0.078400
      8 C13         2.1020   -3.1360    2.2280 c3        1 516     -0.076400
      9 C14         2.1660   -2.0900    1.1340 c3        1 516     -0.074400
     10 N7          4.3890    0.9050    0.3760 n         1 516     -0.555900
     11 C5          5.0840    1.3830   -0.7160 c         1 516      0.618100
     12 O6          4.8740    0.9410   -1.8640 o         1 516     -0.628100
     13 C3          6.1520    2.4760   -0.4500 c3        1 516      0.118500
     14 C4          5.4070    3.8010   -0.2910 c3        1 516     -0.096100
     15 N2          7.1800    2.5480   -1.4700 n3        1 516     -0.802200
     16 C1          8.0420    1.3950   -1.5300 c3        1 516      0.143100
     17 N17         1.0950    0.5650   -0.8210 n         1 516     -0.461800
     18 C18        -0.1470    1.3420   -0.8780 c3        1 516      0.059400
     19 C19        -0.3730    1.7380   -2.3570 c3        1 516     -0.082400
     20 C20         0.6730    0.9860   -3.1710 c3        1 516     -0.094400
     21 C21         1.5860    0.2740   -2.1610 c3        1 516      0.067000
     22 C22        -1.3260    0.5680   -0.3460 cc        1 516      0.387700
     23 S23        -1.2110   -1.0650    0.1930 ss        1 516     -0.051300
     24 C24        -2.8290   -1.0790    0.5800 cc        1 516     -0.265400
     25 C25        -3.4220    0.1510    0.2960 cd        1 516      0.393800
     26 N26        -2.5460    1.1000   -0.2340 nd        1 516     -0.627000
     27 C27        -4.8230    0.4830    0.5590 ca        1 516     -0.107500
     28 C28        -5.1180    1.5930    1.3260 ca        1 516     -0.096000
     29 C29        -6.4570    1.9200    1.6380 ca        1 516     -0.131000
     30 C30        -7.4860    1.1390    1.1760 ca        1 516     -0.114000
     31 C31        -7.2190    0.0010    0.3680 ca        1 516     -0.040000
     32 C33        -8.2790   -0.8060   -0.1310 ca        1 516     -0.117000
     33 C32        -5.8770   -0.3320    0.0430 ca        1 516     -0.018000
     34 C36        -5.6410   -1.4550   -0.7980 ca        1 516     -0.120000
     35 C35        -6.6830   -2.2150   -1.2700 ca        1 516     -0.129000
     36 C34        -8.0180   -1.8910   -0.9290 ca        1 516     -0.130000
     37 H8          3.4570   -0.6130   -0.7150 h1        1 516      0.099700
     38 H9          3.0230   -0.5260    2.3640 hc        1 516      0.072700
     39 H10         4.8900   -2.2590    0.5960 hc        1 516      0.045200
     40 H10A        5.4050   -1.0430    1.8330 hc        1 516      0.045200
     41 H11         5.5250   -3.3700    2.7110 hc        1 516      0.042700
     42 H11A        4.3710   -2.3400    3.6480 hc        1 516      0.042700
     43 H12         3.6680   -4.4250    1.4730 hc        1 516      0.041200
     44 H12A        3.3720   -4.5590    3.2520 hc        1 516      0.041200
     45 H13         1.3100   -3.8880    1.9750 hc        1 516      0.042700
     46 H13A        1.8080   -2.6480    3.1940 hc        1 516      0.042700
     47 H14         1.1730   -1.5670    1.0630 hc        1 516      0.045200
     48 H14A        2.3580   -2.5900    0.1480 hc        1 516      0.045200
     49 HN7         4.4680    1.3730    1.2490 hn        1 516      0.322500
     50 H3          6.6740    2.2360    0.5260 h1        1 516      0.072700
     51 H4          4.8220    4.0440   -1.2110 hc        1 516      0.051367
     52 H4A         4.7060    3.7350    0.5750 hc        1 516      0.051367
     53 H4B         6.1310    4.6300   -0.1010 hc        1 516      0.051367
     54 HN2         6.7580    2.7200   -2.3660 hn        1 516      0.375800
     55 H1          8.7930    1.5620   -2.3470 h1        1 516      0.037700
     56 H1A         8.5890    1.2900   -0.5560 h1        1 516      0.037700
     57 H1B         7.4930    0.4350   -1.7360 h1        1 516      0.037700
     58 H18        -0.0370    2.2700   -0.2360 h1        1 516      0.101700
     59 H19        -1.4070    1.4830   -2.6930 hc        1 516      0.066200
     60 H19A       -0.2430    2.8440   -2.4640 hc        1 516      0.066200
     61 H20         0.1910    0.2390   -3.8480 hc        1 516      0.056200
     62 H20A        1.2690    1.6870   -3.8050 hc        1 516      0.056200
     63 H21         2.6530    0.6150   -2.2880 h1        1 516      0.065200
     64 H21A        1.5530   -0.8400   -2.3180 h1        1 516      0.065200
     65 H24        -3.3510   -1.9310    1.0110 h4        1 516      0.186000
     66 H28        -4.3090    2.2360    1.7070 ha        1 516      0.146000
     67 H29        -6.6570    2.8080    2.2560 ha        1 516      0.134000
     68 H30        -8.5320    1.3800    1.4180 ha        1 516      0.132000
     69 H33        -9.3130   -0.5390    0.1370 ha        1 516      0.132000
     70 H36        -4.6040   -1.7010   -1.0720 ha        1 516      0.139000
     71 H35        -6.4930   -3.0800   -1.9220 ha        1 516      0.131000
     72 H34        -8.8360   -2.5160   -1.3160 ha        1 516      0.131000
@<TRIPOS>BOND
     1    1    2 2   
     2    2    3 1   
     3    2   17 1   
     4    3    4 1   
     5    3   10 1   
     6    3   37 1   
     7    4    5 1   
     8    4    9 1   
     9    4   38 1   
    10    5    6 1   
    11    5   39 1   
    12    5   40 1   
    13    6    7 1   
    14    6   41 1   
    15    6   42 1   
    16    7    8 1   
    17    7   43 1   
    18    7   44 1   
    19    8    9 1   
    20    8   45 1   
    21    8   46 1   
    22    9   47 1   
    23    9   48 1   
    24   10   11 1   
    25   10   49 1   
    26   11   12 2   
    27   11   13 1   
    28   13   14 1   
    29   13   15 1   
    30   13   50 1   
    31   14   51 1   
    32   14   52 1   
    33   14   53 1   
    34   15   16 1   
    35   15   54 1   
    36   16   55 1   
    37   16   56 1   
    38   16   57 1   
    39   17   18 1   
    40   17   21 1   
    41   18   19 1   
    42   18   22 1   
    43   18   58 1   
    44   19   20 1   
    45   19   59 1   
    46   19   60 1   
    47   20   21 1   
    48   20   61 1   
    49   20   62 1   
    50   21   63 1   
    51   21   64 1   
    52   22   23 1   
    53   22   26 2   
    54   23   24 1   
    55   24   25 2   
    56   24   65 1   
    57   25   26 1   
    58   25   27 1   
    59   27   28 ar  
    60   27   33 ar  
    61   28   29 ar  
    62   28   66 1   
    63   29   30 ar  
    64   29   67 1   
    65   30   31 ar  
    66   30   68 1   
    67   31   32 ar  
    68   31   33 ar  
    69   32   36 ar  
    70   32   69 1   
    71   33   34 ar  
    72   34   35 ar  
    73   34   70 1   
    74   35   36 ar  
    75   35   71 1   
    76   36   72 1   
@<TRIPOS>SUBSTRUCTURE
     1 516         1 TEMP              0 ****  ****    0 ROOT
