@<TRIPOS>MOLECULE
516
   74    78     1     0     0
SMALL
bcc


@<TRIPOS>ATOM
      1 O16         1.6280    1.1460    0.4070 o         1 516     -0.718100
      2 C15         2.5230    0.2510    0.5020 c         1 516      0.693100
      3 C8          2.5380   -0.5610    1.8230 c3        1 516      0.077500
      4 C9          1.7750   -1.9030    1.7320 c3        1 516     -0.086700
      5 C10         1.9850   -2.7200    3.0070 c3        1 516     -0.086900
      6 C11         1.1910   -4.0130    2.9530 c3        1 516     -0.079400
      7 C12         1.5560   -4.8370    1.7370 c3        1 516     -0.089400
      8 C13         1.4160   -4.0260    0.4670 c3        1 516     -0.079400
      9 C14         2.2200   -2.7400    0.5380 c3        1 516     -0.086900
     10 N7          1.9520    0.2870    2.9530 ny        1 516     -0.660800
     11 C5          1.3470    1.6030    2.5580 c         1 516      0.551100
     12 O6          2.0950    2.5750    2.5680 o         1 516     -0.430100
     13 C3         -0.1750    1.7360    2.3520 c3        1 516      0.102500
     14 C4         -0.8930    0.4220    2.0920 c3        1 516     -0.157100
     15 N2         -0.4170    2.7200    1.2300 ny        1 516     -0.754000
     16 C1         -1.7330    3.3900    1.3330 c3        1 516      0.077100
     17 N17         3.4580    0.0800   -0.4500 n         1 516     -0.378800
     18 C18         3.3420    0.7300   -1.7730 c3        1 516      0.085400
     19 C19         4.7100    0.5410   -2.4670 c3        1 516     -0.094400
     20 C20         5.5710   -0.3100   -1.5410 c3        1 516     -0.087400
     21 C21         4.6950   -0.6820   -0.3350 c3        1 516      0.070000
     22 C22         2.2060    0.2040   -2.6040 cc        1 516      0.282700
     23 S23         2.2590    0.1570   -4.3110 ss        1 516      0.064700
     24 C24         0.7050   -0.4080   -4.3790 cc        1 516     -0.240400
     25 C25         0.1700   -0.5640   -3.0950 cd        1 516      0.392800
     26 N26         1.0430   -0.2120   -2.0750 nd        1 516     -0.660000
     27 C27        -1.1700   -1.0790   -2.8070 ca        1 516     -0.133500
     28 C28        -1.3030   -2.2450   -2.0800 ca        1 516     -0.108000
     29 C29        -2.5800   -2.7920   -1.8220 ca        1 516     -0.148000
     30 C30        -3.7090   -2.1630   -2.2860 ca        1 516     -0.091000
     31 C31        -3.6070   -0.9520   -3.0240 ca        1 516     -0.046000
     32 C33        -4.7700   -0.2950   -3.5140 ca        1 516     -0.109000
     33 C32        -2.3280   -0.3960   -3.2910 ca        1 516     -0.025000
     34 C36        -2.2530    0.8140   -4.0340 ca        1 516     -0.146000
     35 C35        -3.3910    1.4290   -4.4960 ca        1 516     -0.108000
     36 C34        -4.6640    0.8690   -4.2340 ca        1 516     -0.120000
     37 H8          3.6110   -0.7780    2.1210 hx        1 516      0.129700
     38 H9          0.6750   -1.6930    1.6020 hc        1 516      0.072700
     39 H10         1.6680   -2.1550    3.9220 hc        1 516      0.052950
     40 H10A        3.0760   -2.9610    3.1200 hc        1 516      0.052950
     41 H11         1.3960   -4.6050    3.8840 hc        1 516      0.063700
     42 H11A        0.0940   -3.7790    2.9360 hc        1 516      0.063700
     43 H12         2.6100   -5.2090    1.8350 hc        1 516      0.070700
     44 H12A        0.8880   -5.7370    1.6830 hc        1 516      0.070700
     45 H13         1.7790   -4.6300   -0.4070 hc        1 516      0.063700
     46 H13A        0.3360   -3.7850    0.2830 hc        1 516      0.063700
     47 H14         2.0710   -2.1720   -0.4160 hc        1 516      0.052950
     48 H14A        3.3060   -2.9990    0.6490 hc        1 516      0.052950
     49 HN7         2.7190    0.4900    3.6130 hn        1 516      0.475300
     50 H3         -0.5730    2.2090    3.3080 hx        1 516      0.142700
     51 H4         -1.9900    0.5960    1.9270 hc        1 516      0.100700
     52 H4A        -0.4840   -0.0890    1.1820 hc        1 516      0.100700
     53 H4B        -0.8090   -0.2490    2.9820 hc        1 516      0.100700
     54 HN2        -0.3430    2.2030    0.3330 hn        1 516      0.488300
     55 H1         -2.5570    2.6270    1.3090 hx        1 516      0.120700
     56 H1A        -1.8470    4.0860    0.4550 hx        1 516      0.120700
     57 H1B        -1.7910    3.9820    2.2870 hx        1 516      0.120700
     58 H18         3.1430    1.8300   -1.5870 h1        1 516      0.093700
     59 H19         5.1810    1.5410   -2.6410 hc        1 516      0.085200
     60 H19A        4.5890    0.0400   -3.4620 hc        1 516      0.085200
     61 H20         5.9240   -1.2370   -2.0580 hc        1 516      0.086700
     62 H20A        6.4740    0.2580   -1.2030 hc        1 516      0.086700
     63 H21         4.4740   -1.7850   -0.3470 h1        1 516      0.066700
     64 H21A        5.2110   -0.4230    0.6300 h1        1 516      0.066700
     65 H24         0.1660   -0.6410   -5.3010 h4        1 516      0.214000
     66 H28        -0.4110   -2.7780   -1.7140 ha        1 516      0.129000
     67 H29        -2.6540   -3.7390   -1.2650 ha        1 516      0.143000
     68 H30        -4.7080   -2.5910   -2.1070 ha        1 516      0.151000
     69 H33        -5.7550   -0.7470   -3.3130 ha        1 516      0.150000
     70 H36        -1.2620    1.2410   -4.2520 ha        1 516      0.130000
     71 H35        -3.3270    2.3570   -5.0860 ha        1 516      0.146000
     72 H34        -5.5620    1.3720   -4.6260 ha        1 516      0.153000
     73 H72         1.2400   -0.2760    3.4390 hn        1 516      0.475300
     74 H22         0.3360    3.4270    1.2380 hn        1 516      0.488300
@<TRIPOS>BOND
     1    1    2 2   
     2    2    3 1   
     3    2   17 1   
     4    3    4 1   
     5    3   10 1   
     6    3   37 1   
     7    4    5 1   
     8    4    9 1   
     9    4   38 1   
    10    5    6 1   
    11    5   39 1   
    12    5   40 1   
    13    6    7 1   
    14    6   41 1   
    15    6   42 1   
    16    7    8 1   
    17    7   43 1   
    18    7   44 1   
    19    8    9 1   
    20    8   45 1   
    21    8   46 1   
    22    9   47 1   
    23    9   48 1   
    24   10   11 1   
    25   10   49 1   
    26   10   73 1   
    27   11   12 2   
    28   11   13 1   
    29   13   14 1   
    30   13   15 1   
    31   13   50 1   
    32   14   51 1   
    33   14   52 1   
    34   14   53 1   
    35   15   16 1   
    36   15   54 1   
    37   15   74 1   
    38   16   55 1   
    39   16   56 1   
    40   16   57 1   
    41   17   18 1   
    42   17   21 1   
    43   18   19 1   
    44   18   22 1   
    45   18   58 1   
    46   19   20 1   
    47   19   59 1   
    48   19   60 1   
    49   20   21 1   
    50   20   61 1   
    51   20   62 1   
    52   21   63 1   
    53   21   64 1   
    54   22   23 1   
    55   22   26 2   
    56   23   24 1   
    57   24   25 2   
    58   24   65 1   
    59   25   26 1   
    60   25   27 1   
    61   27   28 ar  
    62   27   33 ar  
    63   28   29 ar  
    64   28   66 1   
    65   29   30 ar  
    66   29   67 1   
    67   30   31 ar  
    68   30   68 1   
    69   31   32 ar  
    70   31   33 ar  
    71   32   36 ar  
    72   32   69 1   
    73   33   34 ar  
    74   34   35 ar  
    75   34   70 1   
    76   35   36 ar  
    77   35   71 1   
    78   36   72 1   
@<TRIPOS>SUBSTRUCTURE
     1 516         1 TEMP              0 ****  ****    0 ROOT
