@<TRIPOS>MOLECULE
517
   37    39     1     0     0
SMALL
bcc


@<TRIPOS>ATOM
      1 N22        -1.3980    1.6540    1.1590 na        1 517     -0.161100
      2 C24        -0.8570    2.0830   -0.0440 cc        1 517     -0.118300
      3 C25        -0.3250    0.9740   -0.7220 cd        1 517     -0.219000
      4 C26        -0.5190   -0.1670    0.1190 cd        1 517     -0.203000
      5 C21        -1.1820    0.2760    1.2830 cc        1 517     -0.184600
      6 C19        -1.5750   -0.5090    2.4800 c3        1 517      0.016800
      7 C20        -0.4610   -1.4820    2.8770 c3        1 517     -0.086100
      8 C5         -2.8420   -1.2340    2.3200 cc        1 517      0.080600
      9 C7         -3.6700   -1.5040    1.2490 ca        1 517     -0.242000
     10 C8         -3.6030   -1.1760   -0.1180 ca        1 517      0.123000
     11 C3         -3.5380   -1.9130    3.5450 c         1 517      0.624700
     12 O4         -3.1150   -1.8940    4.6870 o         1 517     -0.334100
     13 N1         -4.7680   -2.5490    3.0650 nc        1 517     -0.213400
     14 C6         -4.8360   -2.3050    1.7800 ca        1 517      0.029000
     15 C11        -5.8790   -2.6840    0.8380 ca        1 517      0.006000
     16 C10        -5.7650   -2.3590   -0.4680 ca        1 517     -0.207000
     17 C9         -4.6110   -1.6160   -0.9610 ca        1 517     -0.237400
     18 N12        -4.6030   -1.2540   -2.3680 n4        1 517     -0.459200
     19 C14        -4.1120   -2.3640   -3.2580 c         1 517      0.469100
     20 O15        -3.4450   -2.1470   -4.2550 o         1 517     -0.282100
     21 N16        -4.4410   -3.7700   -2.8750 n4        1 517     -0.721400
     22 HN22       -1.7220    2.2440    1.8850 hn        1 517      0.315700
     23 H24        -0.8740    3.1380   -0.3320 h4        1 517      0.197000
     24 H25         0.1930    0.9940   -1.6770 ha        1 517      0.173000
     25 H26        -0.1570   -1.1740   -0.0670 ha        1 517      0.155000
     26 H19        -1.7210    0.1860    3.3730 hc        1 517      0.128700
     27 H201       -0.2690   -2.2190    2.0630 hc        1 517      0.073367
     28 H202        0.4760   -0.9010    3.0610 hc        1 517      0.073367
     29 H203       -0.7400   -2.0230    3.8150 hc        1 517      0.073367
     30 H8         -2.7310   -0.5750   -0.4660 ha        1 517      0.203000
     31 H11        -6.7630   -3.2220    1.2340 ha        1 517      0.210000
     32 H10        -6.5980   -2.5790   -1.1570 ha        1 517      0.146000
     33 HN12       -3.9770   -0.4380   -2.5320 hn        1 517      0.513300
     34 H161       -4.4990   -3.8890   -1.8460 hn        1 517      0.514467
     35 H162       -3.7040   -4.3960   -3.2520 hn        1 517      0.514467
     36 H122       -5.5640   -1.0000   -2.6660 hn        1 517      0.513300
     37 H163       -5.3450   -4.0440   -3.2960 hn        1 517      0.514467
@<TRIPOS>BOND
     1    1    2 1   
     2    1    5 1   
     3    1   22 1   
     4    2    3 2   
     5    2   23 1   
     6    3    4 1   
     7    3   24 1   
     8    4    5 2   
     9    4   25 1   
    10    5    6 1   
    11    6    7 1   
    12    6    8 1   
    13    6   26 1   
    14    7   27 1   
    15    7   28 1   
    16    7   29 1   
    17    8    9 2   
    18    8   11 1   
    19    9   10 ar  
    20    9   14 ar  
    21   10   17 ar  
    22   10   30 1   
    23   11   12 2   
    24   11   13 1   
    25   13   14 2   
    26   14   15 ar  
    27   15   16 ar  
    28   15   31 1   
    29   16   17 ar  
    30   16   32 1   
    31   17   18 1   
    32   18   19 1   
    33   18   33 1   
    34   18   36 1   
    35   19   20 2   
    36   19   21 1   
    37   21   34 1   
    38   21   35 1   
    39   21   37 1   
@<TRIPOS>SUBSTRUCTURE
     1 517         1 TEMP              0 ****  ****    0 ROOT
