@<TRIPOS>MOLECULE
517
   35    33     1     0     0
SMALL
bcc


@<TRIPOS>ATOM
      1 N22         2.9630    2.5030    1.8400 n3        1 517     -0.159000
      2 C24         3.4770    3.8430    1.3150 c2        1 517     -0.132000
      3 C25         2.8670    4.1400    0.0160 c1        1 517     -0.203000
      4 C26         2.0170    3.1230   -0.3370 c1        1 517     -0.185000
      5 C21         2.0190    2.0970    0.7100 c2        1 517     -0.107000
      6 C19         0.7500    1.3330    1.0220 c3        1 517      0.020000
      7 C20         0.3300    1.6140    2.4470 c3        1 517     -0.214000
      8 C5          0.9990   -0.1510    0.8530 c2        1 517     -0.131000
      9 C7         -0.0440   -1.0190    0.2110 c1        1 517     -0.069000
     10 C8         -1.0620   -0.8420   -0.7090 c1        1 517     -0.179000
     11 C3          1.8330   -0.8280    1.7490 c2        1 517      0.278000
     12 O4          2.9460   -0.4810    2.0890 o         1 517     -0.243000
     13 N1          1.3660   -2.1180    1.7130 n2        1 517     -0.175000
     14 C6          0.1960   -2.3320    0.7810 c1        1 517      0.069000
     15 C11        -0.5930   -3.4030    0.4040 c1        1 517     -0.124000
     16 C10        -1.6260   -3.2200   -0.5300 c1        1 517     -0.073000
     17 C9         -1.8620   -1.9320   -1.0900 c1        1 517      0.091000
     18 N12        -3.0070   -1.7580   -1.9100 n         1 517     -0.315000
     19 C14        -3.0700   -2.3830   -3.1840 c2        1 517      0.385000
     20 O15        -2.1440   -3.0670   -3.5710 o         1 517     -0.382000
     21 N16        -4.2280   -2.2330   -3.9910 n         1 517     -0.413000
     22 HN22        2.8830    2.2660    2.7170 hn        1 517      0.263000
     23 H24         4.3960    4.1190    1.4980 h4        1 517      0.165000
     24 H25         3.3820    4.6050   -0.6700 ha        1 517      0.150000
     25 H26         1.1960    3.3200   -0.8250 ha        1 517      0.145000
     26 H19         0.0420    1.6150    0.4130 hc        1 517      0.108000
     27 H201        0.9650    1.1920    3.0640 hc        1 517      0.087000
     28 H202        0.3200    2.5820    2.6000 hc        1 517      0.087000
     29 H203       -0.5660    1.2490    2.6010 hc        1 517      0.087000
     30 H8         -1.2240    0.0400   -1.0930 ha        1 517      0.142000
     31 H11        -0.4320   -4.2870    0.7870 ha        1 517      0.166000
     32 H10        -2.1830   -3.9760   -0.7960 ha        1 517      0.182000
     33 HN12       -3.6970   -1.2340   -1.6250 hn        1 517      0.225000
     34 H161       -4.3360   -2.7510   -4.7370 hn        1 517      0.226000
     35 H162       -4.8720   -1.6270   -3.7590 hn        1 517      0.226000
@<TRIPOS>BOND
     1    1    2 1   
     2    1    5 1   
     3    1   22 1   
     4    2    3 1   
     5    2   23 1   
     6    3   24 1   
     7    4    5 1   
     8    4   25 1   
     9    5    6 1   
    10    6    7 1   
    11    6    8 1   
    12    6   26 1   
    13    7   27 1   
    14    7   28 1   
    15    7   29 1   
    16    8    9 1   
    17    8   11 1   
    18    9   10 1   
    19   10   30 1   
    20   11   12 1   
    21   11   13 1   
    22   13   14 1   
    23   14   15 1   
    24   15   31 1   
    25   16   17 1   
    26   16   32 1   
    27   17   18 1   
    28   18   19 1   
    29   18   33 1   
    30   19   20 1   
    31   19   21 1   
    32   21   34 1   
    33   21   35 1   
@<TRIPOS>SUBSTRUCTURE
     1 517         1 TEMP              0 ****  ****    0 ROOT
