@<TRIPOS>MOLECULE
517
   36    38     1     0     0
SMALL
bcc


@<TRIPOS>ATOM
      1 N22        -0.2150    0.5940   -0.0630 na        1 517     -0.178100
      2 C24         1.1570    0.4330   -0.2150 cc        1 517     -0.145300
      3 C25         1.6650   -0.2030    0.9270 cd        1 517     -0.189000
      4 C26         0.5640   -0.4150    1.8180 cd        1 517     -0.152000
      5 C21        -0.5870    0.0960    1.1930 cc        1 517     -0.167600
      6 C19        -1.9850    0.1330    1.7090 c3        1 517      0.062800
      7 C20        -2.0430    0.8730    3.0370 c3        1 517     -0.096100
      8 C5         -2.5090   -1.2450    1.8400 cc        1 517     -0.041400
      9 C7         -3.4160   -1.9170    1.0730 ca        1 517     -0.163000
     10 C8         -4.1730   -1.5550   -0.0810 ca        1 517     -0.026000
     11 C3         -2.0860   -2.2430    2.9460 c         1 517      0.655700
     12 O4         -1.2920   -2.0350    3.8520 o         1 517     -0.403100
     13 N1         -2.8160   -3.4990    2.7220 nc        1 517     -0.271400
     14 C6         -3.5630   -3.3010    1.6620 ca        1 517      0.049000
     15 C11        -4.4790   -4.2160    1.0040 ca        1 517     -0.057000
     16 C10        -5.1650   -3.8200   -0.0880 ca        1 517     -0.128000
     17 C9         -5.0190   -2.4720   -0.6430 ca        1 517     -0.029400
     18 N12        -5.8420   -2.1810   -1.7710 ns        1 517     -0.393100
     19 C14        -5.5010   -1.2450   -2.7010 c         1 517      0.637100
     20 O15        -4.6230   -0.3790   -2.6910 o         1 517     -0.478100
     21 N16        -6.3840   -1.1570   -3.9680 nz        1 517     -0.759400
     22 HN22       -0.8020    1.1040   -0.6660 hn        1 517      0.286700
     23 H24         1.6710    0.7710   -1.1150 h4        1 517      0.171000
     24 H25         2.6990   -0.4820    1.1050 ha        1 517      0.165000
     25 H26         0.6030   -0.8820    2.8010 ha        1 517      0.170000
     26 H19        -2.6480    0.6850    0.9760 hc        1 517      0.049700
     27 H201       -3.0900    0.9000    3.4210 hc        1 517      0.059033
     28 H202       -1.3900    0.3700    3.7940 hc        1 517      0.059033
     29 H203       -1.6810    1.9200    2.8960 hc        1 517      0.059033
     30 H8         -4.0370   -0.5360   -0.4840 ha        1 517      0.164000
     31 H11        -4.5880   -5.2310    1.4240 ha        1 517      0.183000
     32 H10        -5.8560   -4.5230   -0.5820 ha        1 517      0.144000
     33 HN12       -6.5730   -2.8390   -1.9510 hn        1 517      0.351500
     34 H161       -6.0180   -0.3770   -4.5320 hn        1 517      0.471133
     35 H162       -7.3600   -0.9670   -3.7290 hn        1 517      0.471133
     36 H163       -6.3280   -2.0190   -4.5140 hn        1 517      0.471133
@<TRIPOS>BOND
     1    1    2 1   
     2    1    5 1   
     3    1   22 1   
     4    2    3 2   
     5    2   23 1   
     6    3    4 1   
     7    3   24 1   
     8    4    5 2   
     9    4   25 1   
    10    5    6 1   
    11    6    7 1   
    12    6    8 1   
    13    6   26 1   
    14    7   27 1   
    15    7   28 1   
    16    7   29 1   
    17    8    9 2   
    18    8   11 1   
    19    9   10 ar  
    20    9   14 ar  
    21   10   17 ar  
    22   10   30 1   
    23   11   12 2   
    24   11   13 1   
    25   13   14 2   
    26   14   15 ar  
    27   15   16 ar  
    28   15   31 1   
    29   16   17 ar  
    30   16   32 1   
    31   17   18 1   
    32   18   19 1   
    33   18   33 1   
    34   19   20 2   
    35   19   21 1   
    36   21   34 1   
    37   21   35 1   
    38   21   36 1   
@<TRIPOS>SUBSTRUCTURE
     1 517         1 TEMP              0 ****  ****    0 ROOT
