@<TRIPOS>MOLECULE
517
   35    37     1     0     0
SMALL
bcc


@<TRIPOS>ATOM
      1 N22        -0.7420    0.4540   -6.2600 na        1 517     -0.166100
      2 C24        -1.3430    1.4540   -7.0100 cc        1 517     -0.152300
      3 C25        -2.6340    1.0350   -7.3690 cd        1 517     -0.209000
      4 C26        -2.8240   -0.2700   -6.8120 cd        1 517     -0.172000
      5 C21        -1.6410   -0.6110   -6.1300 cc        1 517     -0.144600
      6 C19        -1.3200   -1.8710   -5.3970 c3        1 517      0.068800
      7 C20        -2.3350   -2.9530   -5.7120 c3        1 517     -0.090100
      8 C5         -1.2020   -1.6070   -3.9460 cc        1 517     -0.121400
      9 C7         -0.1460   -1.0650   -3.2760 ca        1 517     -0.107000
     10 C8          1.1350   -0.6060   -3.7020 ca        1 517     -0.116000
     11 C3         -2.2850   -1.8480   -2.8810 c         1 517      0.666700
     12 O4         -3.3910   -2.3490   -3.0450 o         1 517     -0.443100
     13 N1         -1.7650   -1.3700   -1.5870 nc        1 517     -0.309400
     14 C6         -0.5540   -0.9250   -1.8270 ca        1 517      0.059000
     15 C11         0.4020   -0.2990   -0.9320 ca        1 517     -0.104000
     16 C10         1.5690    0.1780   -1.4130 ca        1 517     -0.106000
     17 C9          1.9480    0.0620   -2.8260 ca        1 517      0.039600
     18 N12         3.1850    0.6090   -3.2200 n         1 517     -0.457100
     19 C14         3.3310    1.2220   -4.4890 c         1 517      0.759100
     20 O15         2.4550    1.1170   -5.3830 o         1 517     -0.644100
     21 N16         4.4820    1.9700   -4.7420 n         1 517     -0.649000
     22 HN22        0.1670    0.4970   -5.8690 hn        1 517      0.312700
     23 H24        -0.8180    2.3820   -7.2360 h4        1 517      0.165000
     24 H25        -3.3530    1.5950   -7.9570 ha        1 517      0.149000
     25 H26        -3.7130   -0.8860   -6.8970 ha        1 517      0.152000
     26 H19        -0.3060   -2.2360   -5.7530 hc        1 517      0.062700
     27 H201       -2.0610   -3.8960   -5.1800 hc        1 517      0.050700
     28 H202       -3.3580   -2.6480   -5.3840 hc        1 517      0.050700
     29 H203       -2.3520   -3.1450   -6.8110 hc        1 517      0.050700
     30 H8          1.4260   -0.7840   -4.7510 ha        1 517      0.167000
     31 H11         0.1360   -0.2210    0.1350 ha        1 517      0.162000
     32 H10         2.2810    0.6690   -0.7270 ha        1 517      0.137000
     33 HN12        3.7610    0.9400   -2.4780 hn        1 517      0.312500
     34 H161        5.2950    1.8380   -4.1930 hn        1 517      0.313000
     35 H162        4.6170    2.2220   -5.6940 hn        1 517      0.313000
@<TRIPOS>BOND
     1    1    2 1   
     2    1    5 1   
     3    1   22 1   
     4    2    3 2   
     5    2   23 1   
     6    3    4 1   
     7    3   24 1   
     8    4    5 2   
     9    4   25 1   
    10    5    6 1   
    11    6    7 1   
    12    6    8 1   
    13    6   26 1   
    14    7   27 1   
    15    7   28 1   
    16    7   29 1   
    17    8    9 2   
    18    8   11 1   
    19    9   10 ar  
    20    9   14 ar  
    21   10   17 ar  
    22   10   30 1   
    23   11   12 2   
    24   11   13 1   
    25   13   14 2   
    26   14   15 ar  
    27   15   16 ar  
    28   15   31 1   
    29   16   17 ar  
    30   16   32 1   
    31   17   18 1   
    32   18   19 1   
    33   18   33 1   
    34   19   20 2   
    35   19   21 1   
    36   21   34 1   
    37   21   35 1   
@<TRIPOS>SUBSTRUCTURE
     1 517         1 TEMP              0 ****  ****    0 ROOT
