@<TRIPOS>MOLECULE
518
   69    73     1     0     0
SMALL
bcc


@<TRIPOS>ATOM
      1 C1          0.7160    0.9180   -0.8310 ca        1 518      0.017600
      2 C2          2.1040    0.8920   -0.5950 ca        1 518     -0.091500
      3 C3          2.5780    0.7900    0.7100 ca        1 518     -0.062000
      4 C4          1.6870    0.7130    1.7920 ca        1 518     -0.155500
      5 C5          0.3020    0.7260    1.5440 ca        1 518     -0.062000
      6 C6         -0.1860    0.8270    0.2440 ca        1 518     -0.091500
      7 C7          2.1470    0.6300    3.1580 cc        1 518      0.461200
      8 C8          1.4460    0.6810    4.3710 cd        1 518     -0.263300
      9 C9          2.4000    0.5630    5.4200 cd        1 518      0.001700
     10 C10         3.6600    0.4410    4.8060 cc        1 518      0.061200
     11 O11         3.5170    0.4800    3.3970 os        1 518     -0.377800
     12 C12         4.9370    0.3000    5.4000 c         1 518      0.519600
     13 O13         5.2320    0.2600    6.5970 o         1 518     -0.526100
     14 N14         6.1390    0.1840    4.4650 n4        1 518     -0.673800
     15 C15         7.3670   -0.2990    5.1810 c3        1 518      0.066500
     16 C16         7.7950    0.7430    6.2270 c         1 518      0.518100
     17 C17         8.5520   -0.5740    4.2260 c3        1 518     -0.091700
     18 N18         8.0650    0.2330    7.6080 n4        1 518     -0.650800
     19 O19         7.9150    1.9360    6.0020 o         1 518     -0.366100
     20 N20         0.2080    1.0450   -2.1960 n4        1 518     -0.558200
     21 C21         8.8210    1.2000    8.4520 c3        1 518      0.078100
     22 C22         8.3090   -1.8510    3.4300 c3        1 518     -0.088900
     23 C23         9.5380   -2.1800    2.6010 c3        1 518     -0.080900
     24 C24         9.9280   -1.0280    1.6980 c3        1 518     -0.091400
     25 C25        10.1040    0.2600    2.4750 c3        1 518     -0.080900
     26 C26         8.8630    0.5840    3.2890 c3        1 518     -0.088900
     27 C27         0.4590   -0.2070   -3.0660 c         1 518      0.613300
     28 C28        -0.6430   -0.6200   -3.8660 cc        1 518     -0.186100
     29 O29         1.5870   -0.6780   -2.9880 o         1 518     -0.453100
     30 O30        -1.8730    0.0890   -3.7560 os        1 518     -0.235200
     31 C31        -0.7280   -1.6460   -4.8100 cd        1 518      0.099800
     32 C32        -2.0590   -1.6070   -5.3400 ca        1 518     -0.174800
     33 C33        -2.7300   -0.5280   -4.6700 ca        1 518      0.131100
     34 C34        -4.0500   -0.1750   -4.9260 ca        1 518     -0.145000
     35 C35        -4.7120   -0.9360   -5.8910 ca        1 518     -0.023000
     36 C36        -4.0790   -2.0000   -6.5620 ca        1 518     -0.139000
     37 C37        -2.7600   -2.3480   -6.3010 ca        1 518     -0.020000
     38 H2          2.8230    0.9310   -1.4340 ha        1 518      0.185000
     39 H3          3.6660    0.7730    0.8870 ha        1 518      0.167500
     40 H5         -0.4160    0.6570    2.3800 ha        1 518      0.167500
     41 H6         -1.2800    0.8330    0.0840 ha        1 518      0.185000
     42 H8          0.3660    0.7960    4.5020 ha        1 518      0.218000
     43 H9          2.1960    0.5670    6.4970 ha        1 518      0.219000
     44 HN14        5.9260   -0.4780    3.7030 hn        1 518      0.488300
     45 H15         7.0770   -1.2760    5.6830 hx        1 518      0.135700
     46 H17         9.4500   -0.7440    4.8900 hc        1 518      0.098700
     47 HN20        0.6800    1.8370   -2.6530 hn        1 518      0.476800
     48 H21         8.9410    0.7580    9.4810 hx        1 518      0.131700
     49 H21A        8.2540    2.1700    8.5180 hx        1 518      0.131700
     50 H22         7.4300   -1.7210    2.7460 hc        1 518      0.046950
     51 H22A        8.0870   -2.7050    4.1230 hc        1 518      0.046950
     52 H23        10.3930   -2.4340    3.2830 hc        1 518      0.076950
     53 H23A        9.3250   -3.0910    1.9810 hc        1 518      0.076950
     54 H24        10.8900   -1.2790    1.1750 hc        1 518      0.072700
     55 H24A        9.1470   -0.8880    0.9050 hc        1 518      0.072700
     56 H25        10.9920    0.1770    3.1560 hc        1 518      0.076950
     57 H25A       10.3060    1.1060    1.7650 hc        1 518      0.076950
     58 H26         9.0280    1.5270    3.8740 hc        1 518      0.046950
     59 H26A        8.0110    0.7560    2.5800 hc        1 518      0.046950
     60 H31         0.0680   -2.3410   -5.0930 ha        1 518      0.202000
     61 H34        -4.5430    0.6570   -4.4040 ha        1 518      0.173000
     62 H35        -5.7620   -0.6970   -6.1360 ha        1 518      0.176000
     63 H36        -4.6510   -2.5670   -7.3170 ha        1 518      0.177000
     64 H37        -2.2730   -3.1800   -6.8340 ha        1 518      0.171000
     65 H28         7.1470    0.0420    8.0490 hn        1 518      0.483800
     66 H29         9.8310    1.3910    7.9970 hx        1 518      0.131700
     67 H142        6.3270    1.1060    4.0410 hn        1 518      0.488300
     68 H182        8.5900   -0.6510    7.5520 hn        1 518      0.483800
     69 H202       -0.8040    1.2390   -2.1730 hn        1 518      0.476800
@<TRIPOS>BOND
     1    1    2 ar  
     2    1    6 ar  
     3    1   20 1   
     4    2    3 ar  
     5    2   38 1   
     6    3    4 ar  
     7    3   39 1   
     8    4    5 ar  
     9    4    7 1   
    10    5    6 ar  
    11    5   40 1   
    12    6   41 1   
    13    7    8 2   
    14    7   11 1   
    15    8    9 1   
    16    8   42 1   
    17    9   10 2   
    18    9   43 1   
    19   10   11 1   
    20   10   12 1   
    21   12   13 2   
    22   12   14 1   
    23   14   15 1   
    24   14   44 1   
    25   14   67 1   
    26   15   16 1   
    27   15   17 1   
    28   15   45 1   
    29   16   18 1   
    30   16   19 2   
    31   17   22 1   
    32   17   26 1   
    33   17   46 1   
    34   18   21 1   
    35   18   65 1   
    36   18   68 1   
    37   20   27 1   
    38   20   47 1   
    39   20   69 1   
    40   21   48 1   
    41   21   49 1   
    42   21   66 1   
    43   22   23 1   
    44   22   50 1   
    45   22   51 1   
    46   23   24 1   
    47   23   52 1   
    48   23   53 1   
    49   24   25 1   
    50   24   54 1   
    51   24   55 1   
    52   25   26 1   
    53   25   56 1   
    54   25   57 1   
    55   26   58 1   
    56   26   59 1   
    57   27   28 1   
    58   27   29 2   
    59   28   30 1   
    60   28   31 2   
    61   30   33 1   
    62   31   32 1   
    63   31   60 1   
    64   32   33 ar  
    65   32   37 ar  
    66   33   34 ar  
    67   34   35 ar  
    68   34   61 1   
    69   35   36 ar  
    70   35   62 1   
    71   36   37 ar  
    72   36   63 1   
    73   37   64 1   
@<TRIPOS>SUBSTRUCTURE
     1 518         1 TEMP              0 ****  ****    0 ROOT
