@<TRIPOS>MOLECULE
518
   68    72     1     0     0
SMALL
bcc


@<TRIPOS>ATOM
      1 C1          0.3500    0.0660   -0.2670 ca        1 518      0.213600
      2 C2          1.7580   -0.0950   -0.0730 ca        1 518     -0.211000
      3 C3          2.3240    0.1080    1.1620 ca        1 518      0.001000
      4 C4          1.5440    0.4820    2.2870 ca        1 518     -0.307500
      5 C5          0.1450    0.6440    2.1020 ca        1 518      0.001000
      6 C6         -0.4360    0.4450    0.8730 ca        1 518     -0.211000
      7 C7          2.1170    0.6930    3.5540 cc        1 518      0.560200
      8 C8          1.5400    1.0750    4.8110 cd        1 518     -0.309300
      9 C9          2.5670    1.1430    5.7460 cd        1 518     -0.008300
     10 C10         3.7830    0.8040    5.0710 cc        1 518      0.032200
     11 O11         3.4910    0.5240    3.7040 os        1 518     -0.404800
     12 C12         5.0840    0.7290    5.5380 c         1 518      0.481600
     13 O13         5.5580    0.9200    6.6740 o         1 518     -0.630100
     14 N14         6.1600    0.3490    4.5000 ny        1 518     -0.668800
     15 C15         7.4260   -0.1050    5.1490 c3        1 518      0.074500
     16 C16         8.0370    1.0600    5.9420 c         1 518      0.532100
     17 C17         8.4730   -0.6390    4.1440 c3        1 518     -0.090700
     18 N18         8.3070    0.8080    7.3960 ny        1 518     -0.654800
     19 O19         8.2990    2.1580    5.4800 o         1 518     -0.377100
     20 N20        -0.2820   -0.1190   -1.4690 ns        1 518     -0.438100
     21 C21         9.1950    1.8270    8.0130 c3        1 518      0.080100
     22 C22         8.0660   -2.0190    3.6410 c3        1 518     -0.088400
     23 C23         9.1620   -2.5890    2.7580 c3        1 518     -0.079400
     24 C24         9.4960   -1.6570    1.6110 c3        1 518     -0.090400
     25 C25         9.8380   -0.2660    2.1010 c3        1 518     -0.079400
     26 C26         8.7270    0.2970    2.9720 c3        1 518     -0.088400
     27 C27         0.3010   -0.4930   -2.7050 c         1 518      0.726300
     28 C28        -0.6050   -0.6170   -3.8440 cc        1 518     -0.110100
     29 O29         1.5190   -0.7050   -2.8120 o         1 518     -0.551100
     30 O30        -1.9860   -0.3610   -3.6450 os        1 518     -0.217200
     31 C31        -0.3310   -0.9580   -5.1540 cd        1 518     -0.005200
     32 C32        -1.5920   -0.9290   -5.8620 ca        1 518     -0.147800
     33 C33        -2.5770   -0.5570   -4.8940 ca        1 518      0.096100
     34 C34        -3.9290   -0.4210   -5.1970 ca        1 518     -0.133000
     35 C35        -4.2890   -0.6690   -6.5200 ca        1 518     -0.071000
     36 C36        -3.3400   -1.0350   -7.4900 ca        1 518     -0.144000
     37 C37        -1.9910   -1.1690   -7.1780 ca        1 518     -0.051000
     38 H2          2.4030   -0.3850   -0.9230 ha        1 518      0.184500
     39 H3          3.4110   -0.0210    1.2870 ha        1 518      0.144500
     40 H5         -0.4850    0.9340    2.9600 ha        1 518      0.144500
     41 H6         -1.5260    0.5800    0.7660 ha        1 518      0.184500
     42 H8          0.4800    1.2720    4.9790 ha        1 518      0.206000
     43 H9          2.4950    1.4050    6.8050 ha        1 518      0.202000
     44 HN14        6.3460    1.1660    3.9020 hn        1 518      0.476300
     45 H15         7.1360   -0.9520    5.8460 hx        1 518      0.129700
     46 H17         9.4340   -0.7490    4.7260 hc        1 518      0.089700
     47 HN20       -1.2760    0.0260   -1.4840 hn        1 518      0.356500
     48 H21        10.1990    1.8080    7.5080 hx        1 518      0.124700
     49 H21A        9.3090    1.5890    9.1060 hx        1 518      0.124700
     50 H22         7.1160   -1.9510    3.0490 hc        1 518      0.049700
     51 H22A        7.8870   -2.7100    4.5060 hc        1 518      0.049700
     52 H23         8.8240   -3.5790    2.3530 hc        1 518      0.070450
     53 H23A       10.0800   -2.7750    3.3750 hc        1 518      0.070450
     54 H24         8.6280   -1.6050    0.9020 hc        1 518      0.069200
     55 H24A       10.3670   -2.0730    1.0390 hc        1 518      0.069200
     56 H25         9.9940    0.4160    1.2240 hc        1 518      0.070450
     57 H25A       10.7970   -0.2910    2.6820 hc        1 518      0.070450
     58 H26         7.8040    0.4000    2.3430 hc        1 518      0.049700
     59 H26A        9.0140    1.3160    3.3420 hc        1 518      0.049700
     60 H31         0.6440   -1.2030   -5.5770 ha        1 518      0.188000
     61 H34        -4.6650   -0.1350   -4.4360 ha        1 518      0.160000
     62 H35        -5.3470   -0.5760   -6.8150 ha        1 518      0.155000
     63 H36        -3.6780   -1.2200   -8.5220 ha        1 518      0.155000
     64 H37        -1.2560   -1.4560   -7.9450 ha        1 518      0.155000
     65 H28         8.7200   -0.1250    7.5110 hn        1 518      0.484300
     66 H29         8.7390    2.8480    7.8900 hx        1 518      0.124700
     67 H142        5.8050   -0.4080    3.9010 hn        1 518      0.476300
     68 H182        7.3860    0.8200    7.8770 hn        1 518      0.484300
@<TRIPOS>BOND
     1    1    2 ar  
     2    1    6 ar  
     3    1   20 1   
     4    2    3 ar  
     5    2   38 1   
     6    3    4 ar  
     7    3   39 1   
     8    4    5 ar  
     9    4    7 1   
    10    5    6 ar  
    11    5   40 1   
    12    6   41 1   
    13    7    8 2   
    14    7   11 1   
    15    8    9 1   
    16    8   42 1   
    17    9   10 2   
    18    9   43 1   
    19   10   11 1   
    20   10   12 1   
    21   12   13 2   
    22   12   14 1   
    23   14   15 1   
    24   14   44 1   
    25   14   67 1   
    26   15   16 1   
    27   15   17 1   
    28   15   45 1   
    29   16   18 1   
    30   16   19 2   
    31   17   22 1   
    32   17   26 1   
    33   17   46 1   
    34   18   21 1   
    35   18   65 1   
    36   18   68 1   
    37   20   27 1   
    38   20   47 1   
    39   21   48 1   
    40   21   49 1   
    41   21   66 1   
    42   22   23 1   
    43   22   50 1   
    44   22   51 1   
    45   23   24 1   
    46   23   52 1   
    47   23   53 1   
    48   24   25 1   
    49   24   54 1   
    50   24   55 1   
    51   25   26 1   
    52   25   56 1   
    53   25   57 1   
    54   26   58 1   
    55   26   59 1   
    56   27   28 1   
    57   27   29 2   
    58   28   30 1   
    59   28   31 2   
    60   30   33 1   
    61   31   32 1   
    62   31   60 1   
    63   32   33 ar  
    64   32   37 ar  
    65   33   34 ar  
    66   34   35 ar  
    67   34   61 1   
    68   35   36 ar  
    69   35   62 1   
    70   36   37 ar  
    71   36   63 1   
    72   37   64 1   
@<TRIPOS>SUBSTRUCTURE
     1 518         1 TEMP              0 ****  ****    0 ROOT
