@<TRIPOS>MOLECULE
518
   66    70     1     0     0
SMALL
bcc


@<TRIPOS>ATOM
      1 C1         -2.8690   -1.0710   -0.1430 ca        1 518      0.089600
      2 C2         -1.7620   -0.2740    0.2190 ca        1 518     -0.174000
      3 C3         -0.4680   -0.7280   -0.0090 ca        1 518     -0.072500
      4 C4         -0.2320   -1.9760   -0.6010 ca        1 518     -0.172500
      5 C5         -1.3290   -2.7730   -0.9620 ca        1 518     -0.072500
      6 C6         -2.6260   -2.3350   -0.7400 ca        1 518     -0.174000
      7 C7          1.1070   -2.4520   -0.8400 cc        1 518      0.353200
      8 C8          1.6140   -3.6450   -1.3400 cd        1 518     -0.276300
      9 C9          3.0480   -3.5250   -1.3390 cd        1 518     -0.165300
     10 C10         3.3420   -2.2670   -0.8410 cc        1 518      0.177200
     11 O11         2.1590   -1.5820   -0.5250 os        1 518     -0.357800
     12 C12         4.6370   -1.6080   -0.6120 c         1 518      0.598600
     13 O13         5.7020   -2.2240   -0.8350 o         1 518     -0.608100
     14 N14         4.6300   -0.2880   -0.1980 n         1 518     -0.537900
     15 C15         5.8390    0.3880    0.1900 c3        1 518      0.040700
     16 C16         5.9090    0.5570    1.7330 c         1 518      0.632100
     17 C17         6.0050    1.7930   -0.4300 c3        1 518     -0.063700
     18 N18         7.1440    0.4040    2.3220 n         1 518     -0.567900
     19 O19         4.8960    0.8530    2.3980 o         1 518     -0.613100
     20 N20        -4.2010   -0.6830    0.0580 n         1 518     -0.457100
     21 C21         7.3440    0.4930    3.7330 c3        1 518      0.076300
     22 C22         6.3130    1.6950   -1.9170 c3        1 518     -0.078900
     23 C23         6.5720    3.0710   -2.4980 c3        1 518     -0.075900
     24 C24         5.4120    4.0120   -2.2400 c3        1 518     -0.078400
     25 C25         5.0690    4.0770   -0.7650 c3        1 518     -0.075900
     26 C26         4.8000    2.6940   -0.2060 c3        1 518     -0.078900
     27 C27        -4.6570    0.5210    0.5750 c         1 518      0.711300
     28 C28        -6.1210    0.6890    0.6850 cc        1 518     -0.059100
     29 O29        -3.9090    1.4460    0.9420 o         1 518     -0.576100
     30 O30        -6.9630   -0.3650    0.2540 os        1 518     -0.209200
     31 C31        -6.8440    1.7590    1.1630 cd        1 518     -0.068200
     32 C32        -8.2450    1.4010    1.0460 ca        1 518     -0.128800
     33 C33        -8.2630    0.0860    0.4820 ca        1 518      0.081100
     34 C34        -9.4380   -0.6090    0.2140 ca        1 518     -0.129000
     35 C35       -10.6270    0.0460    0.5260 ca        1 518     -0.096000
     36 C36       -10.6350    1.3360    1.0810 ca        1 518     -0.152000
     37 C37        -9.4540    2.0250    1.3460 ca        1 518     -0.067000
     38 H2         -1.9060    0.7140    0.6880 ha        1 518      0.157500
     39 H3          0.3860   -0.0950    0.2810 ha        1 518      0.145500
     40 H5         -1.1610   -3.7560   -1.4270 ha        1 518      0.145500
     41 H6         -3.4650   -2.9840   -1.0350 ha        1 518      0.157500
     42 H8          1.0490   -4.5130   -1.6700 ha        1 518      0.165000
     43 H9          3.7640   -4.2770   -1.6650 ha        1 518      0.178000
     44 HN14        3.7760    0.1150    0.1190 hn        1 518      0.335500
     45 H15         6.7110   -0.2450   -0.1650 h1        1 518      0.095700
     46 H17         6.8940    2.2590    0.0840 hc        1 518      0.055700
     47 HN20       -4.8940   -1.3490   -0.2130 hn        1 518      0.333500
     48 H21         7.5820   -0.5180    4.1640 h1        1 518      0.045367
     49 H21A        8.2030    1.1850    3.9480 h1        1 518      0.045367
     50 H22         7.2130    1.0450   -2.0760 hc        1 518      0.051700
     51 H22A        5.4520    1.2160   -2.4510 hc        1 518      0.051700
     52 H23         7.5050    3.4980   -2.0460 hc        1 518      0.039950
     53 H23A        6.7430    2.9810   -3.6020 hc        1 518      0.039950
     54 H24         5.6720    5.0370   -2.6110 hc        1 518      0.040200
     55 H24A        4.5140    3.6620   -2.8150 hc        1 518      0.040200
     56 H25         5.9150    4.5530   -0.2030 hc        1 518      0.039950
     57 H25A        4.1630    4.7210   -0.6180 hc        1 518      0.039950
     58 H26         3.8970    2.2680   -0.7170 hc        1 518      0.051700
     59 H26A        4.5750    2.7550    0.8910 hc        1 518      0.051700
     60 H31        -6.4460    2.6940    1.5540 ha        1 518      0.185000
     61 H34        -9.4230   -1.6170   -0.2190 ha        1 518      0.153000
     62 H35       -11.5860   -0.4610    0.3340 ha        1 518      0.140000
     63 H36       -11.6010    1.8120    1.3100 ha        1 518      0.139000
     64 H37        -9.4720    3.0340    1.7800 ha        1 518      0.145000
     65 H28         7.9030    0.0820    1.7720 hn        1 518      0.312500
     66 H29         6.4190    0.8900    4.2310 h1        1 518      0.045367
@<TRIPOS>BOND
     1    1    2 ar  
     2    1    6 ar  
     3    1   20 1   
     4    2    3 ar  
     5    2   38 1   
     6    3    4 ar  
     7    3   39 1   
     8    4    5 ar  
     9    4    7 1   
    10    5    6 ar  
    11    5   40 1   
    12    6   41 1   
    13    7    8 2   
    14    7   11 1   
    15    8    9 1   
    16    8   42 1   
    17    9   10 2   
    18    9   43 1   
    19   10   11 1   
    20   10   12 1   
    21   12   13 2   
    22   12   14 1   
    23   14   15 1   
    24   14   44 1   
    25   15   16 1   
    26   15   17 1   
    27   15   45 1   
    28   16   18 1   
    29   16   19 2   
    30   17   22 1   
    31   17   26 1   
    32   17   46 1   
    33   18   21 1   
    34   18   65 1   
    35   20   27 1   
    36   20   47 1   
    37   21   48 1   
    38   21   49 1   
    39   21   66 1   
    40   22   23 1   
    41   22   50 1   
    42   22   51 1   
    43   23   24 1   
    44   23   52 1   
    45   23   53 1   
    46   24   25 1   
    47   24   54 1   
    48   24   55 1   
    49   25   26 1   
    50   25   56 1   
    51   25   57 1   
    52   26   58 1   
    53   26   59 1   
    54   27   28 1   
    55   27   29 2   
    56   28   30 1   
    57   28   31 2   
    58   30   33 1   
    59   31   32 1   
    60   31   60 1   
    61   32   33 ar  
    62   32   37 ar  
    63   33   34 ar  
    64   34   35 ar  
    65   34   61 1   
    66   35   36 ar  
    67   35   62 1   
    68   36   37 ar  
    69   36   63 1   
    70   37   64 1   
@<TRIPOS>SUBSTRUCTURE
     1 518         1 TEMP              0 ****  ****    0 ROOT
