@<TRIPOS>MOLECULE
518
   66    59     1     0     0
SMALL
bcc


@<TRIPOS>ATOM
      1 C1         -3.7830    0.2320   -3.3500 c1        1 518      0.097000
      2 C2         -3.7760   -0.9210   -2.5810 c1        1 518     -0.132500
      3 C3         -3.0390   -0.9670   -1.4070 c1        1 518     -0.132500
      4 C4         -2.3080    0.1410   -1.0020 c1        1 518     -0.067000
      5 C5         -2.3150    1.2930   -1.7730 c1        1 518     -0.067000
      6 C6         -3.0540    1.3390   -2.9470 c2        1 518     -0.162000
      7 C7         -1.6550    0.1340    0.2420 c1        1 518     -0.028000
      8 C8         -2.1450    0.6680    1.4200 c1        1 518     -0.172000
      9 C9         -1.2110    0.4560    2.4030 c1        1 518     -0.172000
     10 C10        -0.1390   -0.2120    1.8350 c1        1 518     -0.028000
     11 O11        -0.4170   -0.4080    0.5030 os        1 518     -0.057000
     12 C12         1.1600   -0.5990    2.5490 c1        1 518      0.384000
     13 O13         2.0390   -1.1900    1.9390 o         1 518     -0.352000
     14 N14         1.3100   -0.3420    3.9580 n3        1 518     -0.373000
     15 C15         2.5350    0.1870    4.4590 c3        1 518      0.019000
     16 C16         2.7950   -0.3650    5.8510 c2        1 518      0.286000
     17 C17         2.4430    1.7070    4.5230 c3        1 518     -0.112000
     18 N18         4.1430   -0.4920    6.3330 n         1 518     -0.375000
     19 O19         1.8630   -0.7770    6.5290 o         1 518     -0.379000
     20 N20        -4.5550    0.2830   -4.5590 n         1 518     -0.311000
     21 C21         4.4470   -0.1980    7.7170 c3        1 518     -0.079000
     22 C22         2.2620    2.2520    3.1060 c3        1 518     -0.152500
     23 C23         3.5100    2.0720    2.2470 c3        1 518     -0.160500
     24 C24         4.7640    2.6130    2.9230 c3        1 518     -0.155000
     25 C25         4.9460    2.0680    4.3390 c3        1 518     -0.160500
     26 C26         3.6960    2.2490    5.1980 c3        1 518     -0.152500
     27 C27        -4.0970   -0.3940   -5.7280 c2        1 518      0.386000
     28 C28        -4.9330   -0.3680   -6.9990 c2        1 518     -0.084000
     29 O29        -3.0550   -1.0130   -5.7000 o         1 518     -0.337000
     30 O30        -5.2950   -1.6640   -6.7090 os        1 518     -0.120000
     31 C31        -3.7850   -0.4050   -7.7710 c1        1 518     -0.080000
     32 C32        -3.4380   -1.7360   -7.9570 c1        1 518     -0.117000
     33 C33        -4.3690   -2.5130   -7.3020 c1        1 518      0.036000
     34 C34        -4.1790   -3.9040   -7.2000 c1        1 518     -0.129000
     35 C35        -3.0500   -4.4960   -7.7620 c2        1 518     -0.097000
     36 C36        -2.1090   -3.7110   -8.4240 c1        1 518     -0.152000
     37 C37        -2.2970   -2.3350   -8.5250 c1        1 518     -0.067000
     38 H2         -4.2930   -1.7050   -2.8660 ha        1 518      0.136000
     39 H3         -3.0340   -1.7860   -0.8610 ha        1 518      0.136000
     40 H5         -1.8000    2.0740   -1.4880 DU        1 518      0.165600
     41 H6         -3.0590    2.1540   -3.4920 ha        1 518      0.179000
     42 H8         -3.0070    1.1190    1.5330 DU        1 518      0.165600
     43 H9         -1.2890    0.7280    3.3400 DU        1 518      0.165600
     44 HN14        0.6040   -0.4850    4.5290 hn        1 518      0.241000
     45 H15         3.2690   -0.0700    3.8630 h1        1 518      0.139000
     46 H17         1.6630    1.9560    5.0600 hc        1 518      0.108000
     47 HN20       -5.3320    0.7660   -4.5850 hn        1 518      0.247000
     48 H21         4.3320   -1.0150    8.2590 h1        1 518      0.084667
     49 H21A        3.8390    0.5000    8.0440 h1        1 518      0.084667
     50 H22         2.0480    3.2100    3.1580 hc        1 518      0.084250
     51 H22A        1.5120    1.7830    2.6790 hc        1 518      0.084250
     52 H23         3.6340    1.1150    2.0660 hc        1 518      0.083750
     53 H23A        3.3790    2.5450    1.3920 hc        1 518      0.083750
     54 H24         5.5480    2.3640    2.3850 hc        1 518      0.079000
     55 H24A        4.7060    3.5920    2.9650 hc        1 518      0.079000
     56 H25         5.6950    2.5390    4.7670 hc        1 518      0.083750
     57 H25A        5.1600    1.1100    4.2870 hc        1 518      0.083750
     58 H26         3.5710    3.2050    5.3780 hc        1 518      0.084250
     59 H26A        3.8260    1.7800    6.0500 hc        1 518      0.084250
     60 H31        -3.3410    0.3630   -8.1750 DU        1 518      0.165600
     61 H34        -4.8450   -4.4600   -6.7310 DU        1 518      0.165600
     62 H35        -2.9180   -5.4660   -7.6910 ha        1 518      0.140000
     63 H36        -1.3180   -4.1260   -8.8180 ha        1 518      0.139000
     64 H37        -1.6380   -1.7860   -8.9880 ha        1 518      0.145000
     65 H28         4.8010   -0.7990    5.7760 hn        1 518      0.230000
     66 H29         5.3790    0.1160    7.7890 h1        1 518      0.084667
@<TRIPOS>BOND
     1    1    6 1   
     2    1   20 1   
     3    2    3 1   
     4    2   38 1   
     5    3   39 1   
     6    4    5 1   
     7    5    6 1   
     8    6   41 1   
     9    7    8 1   
    10    7   11 1   
    11    8    9 1   
    12    9   10 1   
    13   10   11 1   
    14   12   13 1   
    15   12   14 1   
    16   14   15 1   
    17   14   44 1   
    18   15   16 1   
    19   15   17 1   
    20   15   45 1   
    21   16   18 1   
    22   16   19 1   
    23   17   22 1   
    24   17   26 1   
    25   17   46 1   
    26   18   21 1   
    27   18   65 1   
    28   20   27 1   
    29   20   47 1   
    30   21   48 1   
    31   21   49 1   
    32   21   66 1   
    33   22   23 1   
    34   22   50 1   
    35   22   51 1   
    36   23   24 1   
    37   23   52 1   
    38   23   53 1   
    39   24   25 1   
    40   24   54 1   
    41   24   55 1   
    42   25   26 1   
    43   25   56 1   
    44   25   57 1   
    45   26   58 1   
    46   26   59 1   
    47   27   28 1   
    48   27   29 1   
    49   28   30 1   
    50   28   31 1   
    51   30   33 1   
    52   31   32 1   
    53   32   37 1   
    54   33   34 1   
    55   34   35 1   
    56   35   36 1   
    57   35   62 1   
    58   36   63 1   
    59   37   64 1   
@<TRIPOS>SUBSTRUCTURE
     1 518         1 TEMP              0 ****  ****    0 ROOT
