@<TRIPOS>MOLECULE
519
   60    62     1     0     0
SMALL
bcc


@<TRIPOS>ATOM
      1 C01         0.3870    0.0830   -2.0000 c3        1 519     -0.156100
      2 C02         1.0610   -0.2830   -0.6950 c3        1 519      0.167500
      3 C03         0.0510   -0.6320    0.3820 c3        1 519     -0.156100
      4 N04         2.0040   -1.5040   -0.8980 ny        1 519     -0.670800
      5 C05         3.2600   -1.1420   -1.6100 c         1 519      0.493100
      6 O06         3.6810    0.0040   -1.6210 o         1 519     -0.293100
      7 N07         4.0180   -2.2120   -2.3180 ny        1 519     -0.669800
      8 C08         3.7160   -2.2370   -3.8310 c3        1 519      0.133500
      9 C09         2.2640   -2.6180   -4.1010 c3        1 519     -0.104400
     10 C10         2.0180   -2.6300   -5.6020 c3        1 519     -0.106900
     11 C11         2.9550   -3.6470   -6.2860 c3        1 519      0.219500
     12 C12         4.4080   -3.2220   -6.0010 c3        1 519     -0.106900
     13 C13         4.6810   -3.2170   -4.5080 c3        1 519     -0.104400
     14 N14         2.6210   -3.7760   -7.6830 nu        1 519     -0.819900
     15 C15         3.1430   -4.8750   -8.4260 ca        1 519      0.875900
     16 N16         3.5900   -5.9970   -7.7320 nb        1 519     -0.796000
     17 C17         3.9440   -7.0390   -8.4920 ca        1 519      0.508200
     18 C18         3.9040   -7.0370   -9.8990 ca        1 519     -0.377400
     19 C19         4.2840   -8.1750  -10.6850 cc        1 519     -0.031200
     20 C20         4.2440   -8.1040  -12.0280 cd        1 519     -0.212200
     21 C21         3.8160   -6.8790  -12.7230 c         1 519      0.695700
     22 O22         3.7930   -6.7980  -13.9610 o         1 519     -0.575500
     23 N23         3.4200   -5.7560  -11.9380 n         1 519     -0.418300
     24 C24         2.9570   -4.5370  -12.6270 c3        1 519      0.101700
     25 C25         4.0490   -3.9030  -13.4890 c3        1 519     -0.114600
     26 C26         1.7120   -4.7840  -13.4810 c3        1 519     -0.114600
     27 C27         3.4640   -5.8240  -10.5500 ca        1 519      0.627200
     28 N28         3.0980   -4.7350   -9.7870 nb        1 519     -0.783000
     29 H011        1.1280    0.3520   -2.7920 hc        1 519      0.101033
     30 H012       -0.2490    0.9920   -1.8120 hc        1 519      0.101033
     31 H013       -0.2880   -0.7280   -2.3700 hc        1 519      0.101033
     32 H021        1.7330    0.5610   -0.3430 hx        1 519      0.137700
     33 H033        0.5360   -0.9040    1.3530 hc        1 519      0.101033
     34 H032       -0.6410   -1.4500    0.0650 hc        1 519      0.101033
     35 H031       -0.5710    0.2880    0.5670 hc        1 519      0.101033
     36 H041        1.4780   -2.2230   -1.4180 hn        1 519      0.487300
     37 H071        3.8420   -3.1480   -1.9310 hn        1 519      0.492300
     38 H081        3.9210   -1.1840   -4.1970 hx        1 519      0.132700
     39 H091        2.0350   -3.6370   -3.6880 hc        1 519      0.067700
     40 H092        1.5670   -1.8700   -3.6360 hc        1 519      0.067700
     41 H102        0.9470   -2.9170   -5.7850 hc        1 519      0.092200
     42 H101        2.1740   -1.6040   -6.0250 hc        1 519      0.092200
     43 H111        2.7820   -4.6530   -5.7950 h1        1 519      0.096700
     44 H122        5.1150   -3.9560   -6.4790 hc        1 519      0.092200
     45 H121        4.6180   -2.2130   -6.4390 hc        1 519      0.092200
     46 H132        5.7460   -2.9080   -4.3330 hc        1 519      0.067700
     47 H131        4.5380   -4.2550   -4.1050 hc        1 519      0.067700
     48 H141        2.6060   -2.9120   -8.1880 hn        1 519      0.429800
     49 H171        4.2880   -7.9390   -7.9470 h4        1 519      0.038100
     50 H191        4.6030   -9.0890  -10.1590 ha        1 519      0.154000
     51 H201        4.5220   -8.9390  -12.6920 ha        1 519      0.184000
     52 H241        2.6690   -3.7740  -11.8430 h1        1 519      0.074700
     53 H251        3.6560   -2.9420  -13.9010 hc        1 519      0.056200
     54 H253        4.3250   -4.5690  -14.3430 hc        1 519      0.056200
     55 H252        4.9630   -3.6860  -12.8880 hc        1 519      0.056200
     56 H261        1.9410   -5.4610  -14.3400 hc        1 519      0.056200
     57 H262        0.8900   -5.2330  -12.8750 hc        1 519      0.056200
     58 H263        1.3650   -3.8020  -13.8840 hc        1 519      0.056200
     59 H042        2.2430   -1.8710    0.0390 hn        1 519      0.487300
     60 H072        5.0290   -2.0000   -2.2130 hn        1 519      0.492300
@<TRIPOS>BOND
     1    1    2 1   
     2    1   29 1   
     3    1   30 1   
     4    1   31 1   
     5    2    3 1   
     6    2    4 1   
     7    2   32 1   
     8    3   33 1   
     9    3   34 1   
    10    3   35 1   
    11    4    5 1   
    12    4   36 1   
    13    4   59 1   
    14    5    6 2   
    15    5    7 1   
    16    7    8 1   
    17    7   37 1   
    18    7   60 1   
    19    8    9 1   
    20    8   13 1   
    21    8   38 1   
    22    9   10 1   
    23    9   39 1   
    24    9   40 1   
    25   10   11 1   
    26   10   41 1   
    27   10   42 1   
    28   11   12 1   
    29   11   14 1   
    30   11   43 1   
    31   12   13 1   
    32   12   44 1   
    33   12   45 1   
    34   13   46 1   
    35   13   47 1   
    36   14   15 1   
    37   14   48 1   
    38   15   16 ar  
    39   15   28 ar  
    40   16   17 ar  
    41   17   18 ar  
    42   17   49 1   
    43   18   19 1   
    44   18   27 ar  
    45   19   20 2   
    46   19   50 1   
    47   20   21 1   
    48   20   51 1   
    49   21   22 2   
    50   21   23 1   
    51   23   24 1   
    52   23   27 1   
    53   24   25 1   
    54   24   26 1   
    55   24   52 1   
    56   25   53 1   
    57   25   54 1   
    58   25   55 1   
    59   26   56 1   
    60   26   57 1   
    61   26   58 1   
    62   27   28 ar  
@<TRIPOS>SUBSTRUCTURE
     1 519         1 TEMP              0 ****  ****    0 ROOT
