@<TRIPOS>MOLECULE
519
   60    62     1     0     0
SMALL
bcc


@<TRIPOS>ATOM
      1 C01         0.3610    0.0580   -1.9940 c3        1 519     -0.156100
      2 C02         1.0390   -0.3040   -0.6900 c3        1 519      0.167500
      3 C03         0.0330   -0.6620    0.3870 c3        1 519     -0.156100
      4 N04         1.9920   -1.5170   -0.8950 n4        1 519     -0.670800
      5 C05         3.2440   -1.1440   -1.6070 c         1 519      0.493100
      6 O06         3.6550    0.0050   -1.6180 o         1 519     -0.293100
      7 N07         4.0100   -2.2080   -2.3180 n4        1 519     -0.669800
      8 C08         3.7070   -2.2330   -3.8300 c3        1 519      0.133500
      9 C09         2.2580   -2.6260   -4.1000 c3        1 519     -0.104400
     10 C10         2.0120   -2.6380   -5.6000 c3        1 519     -0.106900
     11 C11         2.9560   -3.6460   -6.2870 c3        1 519      0.219500
     12 C12         4.4060   -3.2110   -6.0010 c3        1 519     -0.106900
     13 C13         4.6790   -3.2050   -4.5090 c3        1 519     -0.104400
     14 N14         2.6230   -3.7760   -7.6830 nh        1 519     -0.819900
     15 C15         3.1520   -4.8700   -8.4270 ca        1 519      0.875900
     16 N16         3.6080   -5.9900   -7.7360 nb        1 519     -0.796000
     17 C17         3.9690   -7.0280   -8.4970 ca        1 519      0.508200
     18 C18         3.9290   -7.0260   -9.9040 ca        1 519     -0.377400
     19 C19         4.3170   -8.1600  -10.6920 cc        1 519     -0.031200
     20 C20         4.2770   -8.0870  -12.0350 cd        1 519     -0.212200
     21 C21         3.8400   -6.8640  -12.7280 c         1 519      0.695700
     22 O22         3.8150   -6.7810  -13.9650 o         1 519     -0.575500
     23 N23         3.4350   -5.7450  -11.9410 n         1 519     -0.418300
     24 C24         2.9630   -4.5280  -12.6280 c3        1 519      0.101700
     25 C25         4.0500   -3.8850  -13.4900 c3        1 519     -0.114600
     26 C26         1.7200   -4.7840  -13.4820 c3        1 519     -0.114600
     27 C27         3.4800   -5.8150  -10.5530 ca        1 519      0.627200
     28 N28         3.1060   -4.7290   -9.7880 nb        1 519     -0.783000
     29 H011       -0.3080   -0.7570   -2.3650 hc        1 519      0.101033
     30 H012       -0.2820    0.9620   -1.8050 hc        1 519      0.101033
     31 H013        1.0990    0.3340   -2.7870 hc        1 519      0.101033
     32 H021        1.7040    0.5450   -0.3380 hx        1 519      0.137700
     33 H033        0.5200   -0.9310    1.3570 hc        1 519      0.101033
     34 H032       -0.5970    0.2520    0.5730 hc        1 519      0.101033
     35 H031       -0.6540   -1.4860    0.0700 hc        1 519      0.101033
     36 H041        1.4710   -2.2400   -1.4160 hn        1 519      0.487300
     37 H071        5.0200   -1.9880   -2.2130 hn        1 519      0.492300
     38 H081        3.9040   -1.1790   -4.1950 hx        1 519      0.132700
     39 H091        1.5560   -1.8830   -3.6340 hc        1 519      0.067700
     40 H092        2.0380   -3.6470   -3.6880 hc        1 519      0.067700
     41 H102        0.9430   -2.9330   -5.7830 hc        1 519      0.092200
     42 H101        2.1600   -1.6100   -6.0230 hc        1 519      0.092200
     43 H111        2.7910   -4.6550   -5.7970 h1        1 519      0.096700
     44 H122        5.1180   -3.9390   -6.4800 hc        1 519      0.092200
     45 H121        4.6080   -2.2000   -6.4390 hc        1 519      0.092200
     46 H132        4.5440   -4.2450   -4.1060 hc        1 519      0.067700
     47 H131        5.7420   -2.8880   -4.3330 hc        1 519      0.067700
     48 H141        2.6010   -2.9120   -8.1880 hn        1 519      0.429800
     49 H171        4.3210   -7.9270   -7.9530 h4        1 519      0.038100
     50 H191        4.6420   -9.0720  -10.1660 ha        1 519      0.154000
     51 H201        4.5600   -8.9190  -12.6990 ha        1 519      0.184000
     52 H241        2.6700   -3.7680  -11.8430 h1        1 519      0.074700
     53 H251        4.9630   -3.6630  -12.8890 hc        1 519      0.056200
     54 H253        4.3310   -4.5480  -14.3450 hc        1 519      0.056200
     55 H252        3.6500   -2.9260  -13.9000 hc        1 519      0.056200
     56 H261        1.9530   -5.4580  -14.3420 hc        1 519      0.056200
     57 H262        0.9010   -5.2390  -12.8770 hc        1 519      0.056200
     58 H263        1.3650   -3.8040  -13.8840 hc        1 519      0.056200
     59 H042        2.2340   -1.8830    0.0410 hn        1 519      0.487300
     60 H072        3.8410   -3.1450   -1.9310 hn        1 519      0.492300
@<TRIPOS>BOND
     1    1    2 1   
     2    1   29 1   
     3    1   30 1   
     4    1   31 1   
     5    2    3 1   
     6    2    4 1   
     7    2   32 1   
     8    3   33 1   
     9    3   34 1   
    10    3   35 1   
    11    4    5 1   
    12    4   36 1   
    13    4   59 1   
    14    5    6 2   
    15    5    7 1   
    16    7    8 1   
    17    7   37 1   
    18    7   60 1   
    19    8    9 1   
    20    8   13 1   
    21    8   38 1   
    22    9   10 1   
    23    9   39 1   
    24    9   40 1   
    25   10   11 1   
    26   10   41 1   
    27   10   42 1   
    28   11   12 1   
    29   11   14 1   
    30   11   43 1   
    31   12   13 1   
    32   12   44 1   
    33   12   45 1   
    34   13   46 1   
    35   13   47 1   
    36   14   15 1   
    37   14   48 1   
    38   15   16 ar  
    39   15   28 ar  
    40   16   17 ar  
    41   17   18 ar  
    42   17   49 1   
    43   18   19 1   
    44   18   27 ar  
    45   19   20 2   
    46   19   50 1   
    47   20   21 1   
    48   20   51 1   
    49   21   22 2   
    50   21   23 1   
    51   23   24 1   
    52   23   27 1   
    53   24   25 1   
    54   24   26 1   
    55   24   52 1   
    56   25   53 1   
    57   25   54 1   
    58   25   55 1   
    59   26   56 1   
    60   26   57 1   
    61   26   58 1   
    62   27   28 ar  
@<TRIPOS>SUBSTRUCTURE
     1 519         1 TEMP              0 ****  ****    0 ROOT
