@<TRIPOS>MOLECULE
51B
   49    52     1     0     0
SMALL
bcc


@<TRIPOS>ATOM
      1 N01        -0.1900    0.1470    0.0240 nc        1 51B     -0.681100
      2 C02         1.1220    0.1120    0.0560 cd        1 51B      0.661200
      3 N03         1.8820    0.1460    1.2390 na        1 51B     -0.730000
      4 C04         1.2210    0.2000    2.4680 cc        1 51B      0.230800
      5 C05        -0.1460    0.2450    2.5000 cd        1 51B     -0.299200
      6 C06        -0.9180    0.2130    1.2450 c         1 51B      0.690700
      7 O07        -2.1600    0.2420    1.2320 o         1 51B     -0.544100
      8 C08         1.9470    0.0230   -1.2270 c3        1 51B     -0.103000
      9 C09         1.1480    0.5010   -2.4500 c3        1 51B      0.175800
     10 N10         1.9480    0.4150   -3.6710 n3        1 51B     -0.735600
     11 C11         2.4440   -0.9360   -3.9070 c3        1 51B      0.160800
     12 C12         3.2180   -1.5040   -2.7190 c3        1 51B     -0.077400
     13 C13         2.4130   -1.4110   -1.4400 c3        1 51B     -0.080400
     14 C14         2.0190    0.2120    3.6820 cc        1 51B     -0.128900
     15 S15         3.4930    1.0140    3.8450 ss        1 51B      0.033200
     16 C16         3.6870    0.5640    5.4370 cc        1 51B     -0.151100
     17 C17         2.6320   -0.2000    5.8900 cd        1 51B     -0.158000
     18 C18         1.6570   -0.4060    4.8680 cd        1 51B     -0.110000
     19 C19         1.2230    0.9540   -4.8180 c3        1 51B      0.237100
     20 C20         2.0680    1.1370   -6.0310 ca        1 51B     -0.381900
     21 C21         3.3160    1.7980   -5.9890 ca        1 51B      0.474700
     22 N22         4.0740    2.0120   -7.0710 nb        1 51B     -0.749000
     23 C23         3.5760    1.5320   -8.2840 ca        1 51B      0.861900
     24 N24         2.3470    0.8930   -8.4260 nb        1 51B     -0.749000
     25 C25         1.6390    0.7090   -7.3020 ca        1 51B      0.474700
     26 N26         4.4100    1.6530   -9.4050 nh        1 51B     -0.831900
     27 C27         3.8770    1.5050  -10.7260 c3        1 51B      0.195100
     28 H1         -0.7030    0.3080    3.4430 ha        1 51B      0.170000
     29 H3          2.8490    0.6920   -1.1170 hc        1 51B      0.072700
     30 H4          0.2010   -0.1070   -2.5390 h1        1 51B      0.058200
     31 H5          0.8600    1.5770   -2.2950 h1        1 51B      0.058200
     32 H7          1.6020   -1.6470   -4.1560 h1        1 51B      0.039700
     33 H8          3.1280   -0.8900   -4.8010 h1        1 51B      0.039700
     34 H9          3.4630   -2.5750   -2.9360 hc        1 51B      0.050200
     35 H10         4.1850   -0.9500   -2.5980 hc        1 51B      0.050200
     36 H11         3.0390   -1.7480   -0.5740 hc        1 51B      0.050700
     37 H12         1.5210   -2.0880   -1.5000 hc        1 51B      0.050700
     38 H13         4.5540    0.8580    6.0290 h4        1 51B      0.178000
     39 H14         2.5350   -0.6060    6.8990 ha        1 51B      0.162000
     40 H15         0.7420   -0.9870    5.0150 ha        1 51B      0.167000
     41 H16         0.3340    0.3050   -5.0850 h1        1 51B      0.042700
     42 H17         0.8210    1.9660   -4.5160 h1        1 51B      0.042700
     43 H18         3.7240    2.1750   -5.0320 h4        1 51B      0.031600
     44 H19         0.6690    0.1940   -7.4350 h4        1 51B      0.031600
     45 H20         5.1530    2.3130   -9.3070 hn        1 51B      0.431800
     46 H21         4.7180    1.6360  -11.4580 h1        1 51B      0.045367
     47 H22         3.4430    0.4770  -10.8510 h1        1 51B      0.045367
     48 H23         3.0750    2.2590  -10.9540 h1        1 51B      0.045367
     49 H24         2.8690    0.0420    1.2060 hn        1 51B      0.452800
@<TRIPOS>BOND
     1    1    2 2   
     2    1    6 1   
     3    2    3 1   
     4    2    8 1   
     5    3    4 1   
     6    3   49 1   
     7    4    5 2   
     8    4   14 1   
     9    5    6 1   
    10    5   28 1   
    11    6    7 2   
    12    8    9 1   
    13    8   13 1   
    14    8   29 1   
    15    9   10 1   
    16    9   30 1   
    17    9   31 1   
    18   10   11 1   
    19   10   19 1   
    20   11   12 1   
    21   11   32 1   
    22   11   33 1   
    23   12   13 1   
    24   12   34 1   
    25   12   35 1   
    26   13   36 1   
    27   13   37 1   
    28   14   15 1   
    29   14   18 2   
    30   15   16 1   
    31   16   17 2   
    32   16   38 1   
    33   17   18 1   
    34   17   39 1   
    35   18   40 1   
    36   19   20 1   
    37   19   41 1   
    38   19   42 1   
    39   20   21 ar  
    40   20   25 ar  
    41   21   22 ar  
    42   21   43 1   
    43   22   23 ar  
    44   23   24 ar  
    45   23   26 1   
    46   24   25 ar  
    47   25   44 1   
    48   26   27 1   
    49   26   45 1   
    50   27   46 1   
    51   27   47 1   
    52   27   48 1   
@<TRIPOS>SUBSTRUCTURE
     1 51B         1 TEMP              0 ****  ****    0 ROOT
