@<TRIPOS>MOLECULE
51B
   49    52     1     0     0
SMALL
bcc


@<TRIPOS>ATOM
      1 N01         0.0110   -1.1390    0.1030 nc        1 51B     -0.680100
      2 C02         1.2500   -0.7010    0.0480 cd        1 51B      0.658200
      3 N03         1.9520   -0.1850    1.1490 na        1 51B     -0.727000
      4 C04         1.3110   -0.1100    2.3880 cc        1 51B      0.228800
      5 C05         0.0220   -0.5540    2.5110 cd        1 51B     -0.298200
      6 C06        -0.6920   -1.0910    1.3390 c         1 51B      0.689700
      7 O07        -1.8660   -1.4930    1.4070 o         1 51B     -0.544100
      8 C08         2.0200   -0.7420   -1.2710 c3        1 51B     -0.098000
      9 C09         1.3370    0.1940   -2.2830 c3        1 51B      0.169800
     10 N10         2.0250    0.1860   -3.5710 n3        1 51B     -0.734600
     11 C11         2.1520   -1.1580   -4.1230 c3        1 51B      0.161800
     12 C12         2.8000   -2.1470   -3.1560 c3        1 51B     -0.079400
     13 C13         2.0810   -2.1580   -1.8230 c3        1 51B     -0.076400
     14 C14         2.0450    0.4400    3.5150 cc        1 51B     -0.128900
     15 S15         3.6910    0.1990    3.7880 ss        1 51B      0.032200
     16 C16         3.6990    1.0880    5.1970 cc        1 51B     -0.151100
     17 C17         2.4490    1.5830    5.5020 cd        1 51B     -0.157000
     18 C18         1.4810    1.2060    4.5230 cd        1 51B     -0.110000
     19 C19         1.4030    1.1180   -4.5080 c3        1 51B      0.236100
     20 C20         2.2110    1.3660   -5.7350 ca        1 51B     -0.382900
     21 C21         3.5860    1.6830   -5.6850 ca        1 51B      0.475700
     22 N22         4.3200    1.9580   -6.7690 nb        1 51B     -0.749000
     23 C23         3.6510    1.9350   -7.9950 ca        1 51B      0.863900
     24 N24         2.3060    1.6080   -8.1450 nb        1 51B     -0.749000
     25 C25         1.6310    1.3390   -7.0180 ca        1 51B      0.475700
     26 N26         4.3810    2.3320   -9.1240 nu        1 51B     -0.833900
     27 C27         3.9020    2.0410  -10.4410 c3        1 51B      0.196100
     28 H1         -0.5100   -0.5290    3.4700 ha        1 51B      0.170000
     29 H3          3.0760   -0.3820   -1.1090 hc        1 51B      0.063700
     30 H4          0.2540   -0.1080   -2.3880 h1        1 51B      0.050700
     31 H5          1.3690    1.2450   -1.8810 h1        1 51B      0.050700
     32 H7          1.1480   -1.5710   -4.4350 h1        1 51B      0.039200
     33 H8          2.7920   -1.0780   -5.0470 h1        1 51B      0.039200
     34 H9          2.7600   -3.1680   -3.6160 hc        1 51B      0.049700
     35 H10         3.8780   -1.8810   -3.0060 hc        1 51B      0.049700
     36 H11         2.6180   -2.8250   -1.1010 hc        1 51B      0.061700
     37 H12         1.0430   -2.5640   -1.9560 hc        1 51B      0.061700
     38 H13         4.6010    1.2390    5.7910 h4        1 51B      0.178000
     39 H14         2.2070    2.1900    6.3780 ha        1 51B      0.163000
     40 H15         0.4290    1.4970    4.5700 ha        1 51B      0.167000
     41 H16         1.2780    2.1040   -3.9690 h1        1 51B      0.041700
     42 H17         0.3710    0.7690   -4.8120 h1        1 51B      0.041700
     43 H18         4.1260    1.7070   -4.7190 h4        1 51B      0.031600
     44 H19         0.5620    1.0850   -7.1580 h4        1 51B      0.031600
     45 H20         5.3720    2.3310   -9.0090 hn        1 51B      0.432800
     46 H21         3.7880    0.9380  -10.6230 h1        1 51B      0.045033
     47 H22         2.9050    2.5310  -10.6040 h1        1 51B      0.045033
     48 H23         4.6370    2.4580  -11.1800 h1        1 51B      0.045033
     49 H24         2.8660    0.1880    1.0380 hn        1 51B      0.453800
@<TRIPOS>BOND
     1    1    2 2   
     2    1    6 1   
     3    2    3 1   
     4    2    8 1   
     5    3    4 1   
     6    3   49 1   
     7    4    5 2   
     8    4   14 1   
     9    5    6 1   
    10    5   28 1   
    11    6    7 2   
    12    8    9 1   
    13    8   13 1   
    14    8   29 1   
    15    9   10 1   
    16    9   30 1   
    17    9   31 1   
    18   10   11 1   
    19   10   19 1   
    20   11   12 1   
    21   11   32 1   
    22   11   33 1   
    23   12   13 1   
    24   12   34 1   
    25   12   35 1   
    26   13   36 1   
    27   13   37 1   
    28   14   15 1   
    29   14   18 2   
    30   15   16 1   
    31   16   17 2   
    32   16   38 1   
    33   17   18 1   
    34   17   39 1   
    35   18   40 1   
    36   19   20 1   
    37   19   41 1   
    38   19   42 1   
    39   20   21 ar  
    40   20   25 ar  
    41   21   22 ar  
    42   21   43 1   
    43   22   23 ar  
    44   23   24 ar  
    45   23   26 1   
    46   24   25 ar  
    47   25   44 1   
    48   26   27 1   
    49   26   45 1   
    50   27   46 1   
    51   27   47 1   
    52   27   48 1   
@<TRIPOS>SUBSTRUCTURE
     1 51B         1 TEMP              0 ****  ****    0 ROOT
