@<TRIPOS>MOLECULE
51D
   28    30     1     0     0
SMALL
bcc


@<TRIPOS>ATOM
      1 C2         -0.0420   -0.5750    0.1400 ca        1 51D      0.199900
      2 C3          1.3690   -0.7020    0.1680 ca        1 51D     -0.039600
      3 C4          2.0980   -0.1990    1.2460 ca        1 51D     -0.055000
      4 C5          1.4350    0.4280    2.3090 ca        1 51D     -0.025000
      5 C6          0.0420    0.5580    2.2920 ca        1 51D     -0.049000
      6 C7         -0.7000    0.0640    1.2160 cp        1 51D     -0.188500
      7 C8         -2.1650    0.2300    1.2310 cp        1 51D      0.499800
      8 C9         -2.8750   -0.1730    2.3820 ca        1 51D     -0.345600
      9 C10        -4.2890    0.0090    2.3760 ca        1 51D      0.565800
     10 C12        -4.1330    0.9000    0.2510 ca        1 51D      0.660900
     11 F1         -0.7500   -1.0760   -0.8920 f         1 51D     -0.099900
     12 N11        -4.9290    0.5540    1.2920 nb        1 51D     -0.727000
     13 N13        -2.7860    0.7750    0.1510 nb        1 51D     -0.684000
     14 N14        -5.0730   -0.3700    3.4970 na        1 51D      0.019600
     15 C15        -6.4810   -0.2630    3.5860 cc        1 51D     -0.086300
     16 C16        -6.8350   -0.7400    4.8450 cd        1 51D     -0.303300
     17 C17        -5.5770   -1.1210    5.4680 cd        1 51D      0.323200
     18 N18        -4.5430   -0.8870    4.6360 nc        1 51D     -0.505800
     19 C19         2.1820    0.9370    3.4060 cg        1 51D      0.228800
     20 N20         2.7930    1.3530    4.3040 n1        1 51D     -0.342800
     21 CL          2.2060   -1.4600   -1.0970 cl        1 51D     -0.048400
     22 H1          3.1960   -0.2960    1.2620 ha        1 51D      0.167000
     23 H2         -0.4770    1.0550    3.1280 ha        1 51D      0.162000
     24 H3         -2.3470   -0.6160    3.2370 ha        1 51D      0.183000
     25 H4         -4.6530    1.3430   -0.6260 h5        1 51D      0.065100
     26 H5         -7.0840    0.1310    2.7650 h4        1 51D      0.200000
     27 H6         -7.8230   -0.8190    5.2830 ha        1 51D      0.174000
     28 H7         -5.4330   -1.5410    6.4650 h4        1 51D      0.050100
@<TRIPOS>BOND
     1    1    2 ar  
     2    1    6 ar  
     3    1   11 1   
     4    2    3 ar  
     5    2   21 1   
     6    3    4 ar  
     7    3   22 1   
     8    4    5 ar  
     9    4   19 1   
    10    5    6 ar  
    11    5   23 1   
    12    6    7 1   
    13    7    8 ar  
    14    7   13 ar  
    15    8    9 ar  
    16    8   24 1   
    17    9   12 ar  
    18    9   14 1   
    19   10   12 ar  
    20   10   13 ar  
    21   10   25 1   
    22   14   15 1   
    23   14   18 1   
    24   15   16 2   
    25   15   26 1   
    26   16   17 1   
    27   16   27 1   
    28   17   18 2   
    29   17   28 1   
    30   19   20 3   
@<TRIPOS>SUBSTRUCTURE
     1 51D         1 TEMP              0 ****  ****    0 ROOT
