@<TRIPOS>MOLECULE
51D
   28    30     1     0     0
SMALL
bcc


@<TRIPOS>ATOM
      1 C2          0.0000    0.0000    0.0000 ca        1 51D      0.180900
      2 C3          1.3860    0.0000    0.0000 ca        1 51D     -0.091600
      3 C4          2.0810    0.0000    1.1920 ca        1 51D     -0.036000
      4 C5          1.3910    0.0000    2.4070 ca        1 51D      0.042000
      5 C6         -0.0040   -0.0000    2.4130 ca        1 51D     -0.050000
      6 C7         -0.7010    0.0000    1.2090 cp        1 51D     -0.201500
      7 C8         -2.1830   -0.0000    1.2090 cp        1 51D      0.476800
      8 C9         -2.8910   -0.1090    2.4050 ca        1 51D     -0.340600
      9 C10        -4.2810   -0.1040    2.3500 ca        1 51D      0.401800
     10 C12        -4.1760    0.1030    0.0580 ca        1 51D      0.664900
     11 F1         -0.6750    0.0060   -1.1700 f         1 51D     -0.100900
     12 N11        -4.8800    0.0020    1.1680 nb        1 51D     -0.662000
     13 N13        -2.8600    0.1080    0.0660 nb        1 51D     -0.612000
     14 N14        -5.0380   -0.2100    3.5180 na        1 51D      0.471600
     15 C15        -6.3940   -0.2170    3.5970 cc        1 51D     -0.222300
     16 C16        -6.7280   -0.3350    4.9030 cd        1 51D     -0.310300
     17 C17        -5.5440   -0.4030    5.6470 cd        1 51D      0.418200
     18 N18        -4.5330   -0.3330    4.8200 nc        1 51D     -0.662800
     19 C19         2.1140   -0.0010    3.6430 cg        1 51D      0.220800
     20 N20         2.7030   -0.0110    4.6150 n1        1 51D     -0.357800
     21 Cl          2.2500    0.0000   -1.5060 cl        1 51D      0.031600
     22 H1          3.1630    0.0370    1.2150 ha        1 51D      0.129000
     23 H2         -0.7080   -0.1830    3.2160 ha        1 51D      0.140000
     24 H3         -2.2200   -0.0190    3.2510 ha        1 51D      0.159000
     25 H4         -4.7410    0.4560   -0.7960 h5        1 51D      0.007100
     26 H5         -6.9740   -0.1730    2.6830 h4        1 51D      0.162000
     27 H6         -7.6970   -0.0320    5.2780 ha        1 51D      0.138000
     28 H7         -5.4360   -0.6430    6.6980 h4        1 51D      0.008100
@<TRIPOS>BOND
     1    1    2 ar  
     2    1    6 ar  
     3    1   11 1   
     4    2    3 ar  
     5    2   21 1   
     6    3    4 ar  
     7    3   22 1   
     8    4    5 ar  
     9    4   19 1   
    10    5    6 ar  
    11    5   23 1   
    12    6    7 1   
    13    7    8 ar  
    14    7   13 ar  
    15    8    9 ar  
    16    8   24 1   
    17    9   12 ar  
    18    9   14 1   
    19   10   12 ar  
    20   10   13 ar  
    21   10   25 1   
    22   14   15 1   
    23   14   18 1   
    24   15   16 2   
    25   15   26 1   
    26   16   17 1   
    27   16   27 1   
    28   17   18 2   
    29   17   28 1   
    30   19   20 3   
@<TRIPOS>SUBSTRUCTURE
     1 51D         1 TEMP              0 ****  ****    0 ROOT
