@<TRIPOS>MOLECULE
51E
   30    32     1     0     0
SMALL
bcc


@<TRIPOS>ATOM
      1 C01         0.0440    0.4560    0.0370 ca        1 51E     -0.086000
      2 C02         1.4280    0.2620    0.0520 ca        1 51E      0.004400
      3 C03         2.0760   -0.1890    1.2050 ca        1 51E     -0.076000
      4 C04         1.3200   -0.4430    2.3570 ca        1 51E     -0.013000
      5 C6         -0.0680   -0.2490    2.3560 ca        1 51E     -0.052000
      6 C7         -0.7050    0.1930    1.1910 cp        1 51E     -0.150500
      7 C8         -2.1650    0.3880    1.1660 cp        1 51E      0.483800
      8 C9         -2.8910    0.0230    0.0070 ca        1 51E     -0.317600
      9 C10        -4.2890    0.2310    0.0130 cp        1 51E      0.392300
     10 N11        -4.9240    0.7600    1.0930 nb        1 51E     -0.687000
     11 C12        -4.1330    1.0680    2.1520 ca        1 51E      0.635900
     12 N13        -2.7880    0.9130    2.2550 nb        1 51E     -0.683000
     13 C19         1.9690   -0.9000    3.5370 cg        1 51E      0.229800
     14 N20         2.4990   -1.2740    4.5020 n1        1 51E     -0.347800
     15 Cl          2.3340    0.5800   -1.3480 cl        1 51E     -0.073400
     16 C1         -6.5760   -0.8170   -3.3990 ca        1 51E      0.024600
     17 C2         -7.1430   -1.0120   -2.1290 ca        1 51E     -0.139000
     18 C3         -6.3930   -0.6640   -1.0060 ca        1 51E     -0.172300
     19 C4         -5.0960   -0.1370   -1.1790 cp        1 51E      0.319300
     20 N1         -4.5400    0.0550   -2.4060 nb        1 51E     -0.633000
     21 C5         -5.2620   -0.2760   -3.4810 ca        1 51E      0.366200
     22 H1         -0.4550    0.8210   -0.8760 ha        1 51E      0.161000
     23 H2          3.1670   -0.3410    1.2110 ha        1 51E      0.163000
     24 H3         -0.6500   -0.4420    3.2720 ha        1 51E      0.167000
     25 H4         -2.3830   -0.4090   -0.8650 ha        1 51E      0.173000
     26 H5         -4.6450    1.5020    3.0370 h5        1 51E      0.061100
     27 H6         -8.1570   -1.4260   -2.0290 ha        1 51E      0.161000
     28 H7         -6.8140   -0.7980    0.0020 ha        1 51E      0.168000
     29 H8         -4.7880   -0.1070   -4.4650 h4        1 51E      0.042100
     30 F1         -7.2510   -1.1310   -4.5240 f         1 51E     -0.123900
@<TRIPOS>BOND
     1    1    2 ar  
     2    1    6 ar  
     3    1   22 1   
     4    2    3 ar  
     5    2   15 1   
     6    3    4 ar  
     7    3   23 1   
     8    4    5 ar  
     9    4   13 1   
    10    5    6 ar  
    11    5   24 1   
    12    6    7 1   
    13    7    8 ar  
    14    7   12 ar  
    15    8    9 ar  
    16    8   25 1   
    17    9   10 ar  
    18    9   19 1   
    19   10   11 ar  
    20   11   12 ar  
    21   11   26 1   
    22   13   14 3   
    23   16   17 ar  
    24   16   21 ar  
    25   16   30 1   
    26   17   18 ar  
    27   17   27 1   
    28   18   19 ar  
    29   18   28 1   
    30   19   20 ar  
    31   20   21 ar  
    32   21   29 1   
@<TRIPOS>SUBSTRUCTURE
     1 51E         1 TEMP              0 ****  ****    0 ROOT
