@<TRIPOS>MOLECULE
51E
   30    32     1     0     0
SMALL
bcc


@<TRIPOS>ATOM
      1 C01         0.0790    0.4550    0.0600 ca        1 51E     -0.086000
      2 C02         1.4600    0.2410    0.0900 ca        1 51E      0.004400
      3 C03         2.0890   -0.2210    1.2480 ca        1 51E     -0.076000
      4 C04         1.3180   -0.4660    2.3920 ca        1 51E     -0.013000
      5 C6         -0.0670   -0.2520    2.3770 ca        1 51E     -0.052000
      6 C7         -0.6860    0.2010    1.2060 cp        1 51E     -0.150500
      7 C8         -2.1430    0.4170    1.1660 cp        1 51E      0.483800
      8 C9         -2.8610    0.0650   -0.0020 ca        1 51E     -0.317600
      9 C10        -4.2560    0.2930   -0.0100 cp        1 51E      0.392300
     10 N11        -4.8950    0.8290    1.0640 nb        1 51E     -0.687000
     11 C12        -4.1110    1.1230    2.1320 ca        1 51E      0.635900
     12 N13        -2.7690    0.9490    2.2490 nb        1 51E     -0.683000
     13 C19         1.9470   -0.9340    3.5780 cg        1 51E      0.229800
     14 N20         2.4620   -1.3180    4.5480 n1        1 51E     -0.347800
     15 CL          2.3850    0.5490   -1.3000 cl        1 51E     -0.073400
     16 C1         -6.5210   -0.7160   -3.4480 ca        1 51E      0.024600
     17 C2         -7.1040   -0.9050   -2.1850 ca        1 51E     -0.139000
     18 C3         -6.3610   -0.5710   -1.0530 ca        1 51E     -0.172300
     19 C4         -5.0550   -0.0610   -1.2120 cp        1 51E      0.319300
     20 N1         -4.4840    0.1250   -2.4330 nb        1 51E     -0.633000
     21 C5         -5.1990   -0.1940   -3.5160 ca        1 51E      0.366200
     22 H1         -0.4050    0.8300   -0.8570 ha        1 51E      0.161000
     23 H2          3.1780   -0.3890    1.2660 ha        1 51E      0.163000
     24 H3         -0.6620   -0.4390    3.2860 ha        1 51E      0.167000
     25 H4         -2.3500   -0.3730   -0.8690 ha        1 51E      0.173000
     26 H5         -4.6270    1.5630    3.0130 h5        1 51E      0.061100
     27 H6         -8.1250   -1.3050   -2.0970 ha        1 51E      0.161000
     28 H7         -6.7950   -0.7000   -0.0500 ha        1 51E      0.168000
     29 H8         -4.7130   -0.0290   -4.4940 h4        1 51E      0.042100
     30 F1         -7.1890   -1.0190   -4.5810 f         1 51E     -0.123900
@<TRIPOS>BOND
     1    1    2 ar  
     2    1    6 ar  
     3    1   22 1   
     4    2    3 ar  
     5    2   15 1   
     6    3    4 ar  
     7    3   23 1   
     8    4    5 ar  
     9    4   13 1   
    10    5    6 ar  
    11    5   24 1   
    12    6    7 1   
    13    7    8 ar  
    14    7   12 ar  
    15    8    9 ar  
    16    8   25 1   
    17    9   10 ar  
    18    9   19 1   
    19   10   11 ar  
    20   11   12 ar  
    21   11   26 1   
    22   13   14 3   
    23   16   17 ar  
    24   16   21 ar  
    25   16   30 1   
    26   17   18 ar  
    27   17   27 1   
    28   18   19 ar  
    29   18   28 1   
    30   19   20 ar  
    31   20   21 ar  
    32   21   29 1   
@<TRIPOS>SUBSTRUCTURE
     1 51E         1 TEMP              0 ****  ****    0 ROOT
