@<TRIPOS>MOLECULE
51J
   34    34     1     0     0
SMALL
bcc


@<TRIPOS>ATOM
      1 O14         1.6670   -0.0240   -0.0740 o         1 51J     -0.590300
      2 S13         2.5370    0.2470   -1.0880 sy        1 51J      1.656800
      3 O15         3.8440   -0.1320   -1.2110 o         1 51J     -0.590300
      4 N16         2.1890   -2.4080   -1.4040 n8        1 51J     -0.973800
      5 C19         3.3990   -3.1960   -1.2630 c3        1 51J      0.240900
      6 C20         3.2830   -4.6010   -1.5670 c1        1 51J     -0.220100
      7 C21         3.2170   -5.7710   -1.8130 c1        1 51J     -0.078100
      8 C29         3.1400   -7.1650   -2.1050 c3        1 51J     -0.032000
      9 C11         2.5380    1.9930   -1.2960 ca        1 51J     -0.341500
     10 C10         1.9160    2.3840   -2.4990 ca        1 51J      0.014400
     11 C9          1.7960    3.7160   -2.8700 ca        1 51J     -0.098000
     12 C17         1.4330    1.1990   -3.2730 c         1 51J      0.749200
     13 O17         0.8580    1.1310   -4.3430 o         1 51J     -0.466500
     14 O18         1.7320    0.0550   -2.6010 os        1 51J     -0.501800
     15 C12         3.0490    2.9660   -0.4630 ca        1 51J      0.117000
     16 C7          2.9720    4.3380   -0.8120 ca        1 51J     -0.547500
     17 C8          2.3260    4.6850   -2.0190 ca        1 51J      0.047000
     18 S1          3.5210    5.4710    0.1880 sy        1 51J      1.488200
     19 O6          3.1150    6.7520   -0.1120 o         1 51J     -0.556800
     20 O5          3.7580    5.0460    1.4740 o         1 51J     -0.556800
     21 N7          5.3240    5.5400   -0.4640 nz        1 51J     -0.791500
     22 H16         1.8080   -2.5030   -2.3280 hn        1 51J      0.375800
     23 H191        4.1840   -2.7360   -1.9380 h1        1 51J      0.074200
     24 H192        3.7640   -3.0850   -0.1970 h1        1 51J      0.074200
     25 H291        3.9240   -7.4530   -2.8540 hc        1 51J      0.064367
     26 H292        3.3000   -7.7710   -1.1750 hc        1 51J      0.064367
     27 H293        2.1340   -7.4220   -2.5270 hc        1 51J      0.064367
     28 H12         3.5170    2.6840    0.5020 ha        1 51J      0.175000
     29 H9          1.2890    3.9970   -3.8110 ha        1 51J      0.202000
     30 H8          2.2220    5.7550   -2.2910 ha        1 51J      0.179000
     31 H7A         5.4970    4.8850   -1.2210 hn        1 51J      0.460467
     32 H7B         5.5430    6.4750   -0.8050 hn        1 51J      0.460467
     33 H162        1.4940   -2.6970   -0.7410 hn        1 51J      0.375800
     34 H73         5.9790    5.3250    0.2880 hn        1 51J      0.460467
@<TRIPOS>BOND
     1    1    2 2   
     2    2    3 2   
     3    2    9 1   
     4    2   14 1   
     5    4    5 1   
     6    4   22 1   
     7    4   33 1   
     8    5    6 1   
     9    5   23 1   
    10    5   24 1   
    11    6    7 3   
    12    7    8 1   
    13    8   25 1   
    14    8   26 1   
    15    8   27 1   
    16    9   10 ar  
    17    9   15 ar  
    18   10   11 ar  
    19   10   12 1   
    20   11   17 ar  
    21   11   29 1   
    22   12   13 2   
    23   12   14 1   
    24   15   16 ar  
    25   15   28 1   
    26   16   17 ar  
    27   16   18 1   
    28   17   30 1   
    29   18   19 2   
    30   18   20 2   
    31   18   21 1   
    32   21   31 1   
    33   21   32 1   
    34   21   34 1   
@<TRIPOS>SUBSTRUCTURE
     1 51J         1 TEMP              0 ****  ****    0 ROOT
