@<TRIPOS>MOLECULE
51J
   34    34     1     0     0
SMALL
bcc


@<TRIPOS>ATOM
      1 O14         1.7380    0.0120   -0.0900 o         1 51J     -0.590300
      2 S13         2.5690    0.2820   -1.1360 sy        1 51J      1.656800
      3 O15         3.8670   -0.1070   -1.3130 o         1 51J     -0.590300
      4 N16         2.1870   -2.3680   -1.4540 n3        1 51J     -0.973800
      5 C19         3.3950   -3.1670   -1.3670 c3        1 51J      0.240900
      6 C20         3.2540   -4.5690   -1.6730 c1        1 51J     -0.220100
      7 C21         3.1690   -5.7370   -1.9230 c1        1 51J     -0.078100
      8 C29         3.0680   -7.1280   -2.2190 c3        1 51J     -0.032000
      9 C11         2.5760    2.0300   -1.3340 ca        1 51J     -0.341500
     10 C10         1.9110    2.4320   -2.5100 ca        1 51J      0.014400
     11 C9          1.7880    3.7670   -2.8680 ca        1 51J     -0.098000
     12 C17         1.3870    1.2560   -3.2710 c         1 51J      0.749200
     13 O17         0.7690    1.2000   -4.3180 o         1 51J     -0.466500
     14 O18         1.7020    0.1060   -2.6180 os        1 51J     -0.501800
     15 C12         3.1300    2.9930   -0.5170 ca        1 51J      0.117000
     16 C7          3.0500    4.3670   -0.8560 ca        1 51J     -0.547500
     17 C8          2.3600    4.7270   -2.0340 ca        1 51J      0.047000
     18 S1          3.6480    5.4900    0.1280 sy        1 51J      1.488200
     19 O6          3.2430    6.7760   -0.1480 o         1 51J     -0.556800
     20 O5          3.9330    5.0550    1.4020 o         1 51J     -0.556800
     21 N7          5.4240    5.5470   -0.5940 n4        1 51J     -0.791500
     22 H16         1.7660   -2.4550   -2.3610 hn        1 51J      0.375800
     23 H191        3.8040   -3.0640   -0.3170 h1        1 51J      0.074200
     24 H192        4.1540   -2.7090   -2.0720 h1        1 51J      0.074200
     25 H291        3.6540   -7.3780   -3.1410 hc        1 51J      0.064367
     26 H292        1.9980   -7.4170   -2.3890 hc        1 51J      0.064367
     27 H293        3.4680   -7.7410   -1.3680 hc        1 51J      0.064367
     28 H12         3.6330    2.7010    0.4270 ha        1 51J      0.175000
     29 H9          1.2460    4.0590   -3.7860 ha        1 51J      0.202000
     30 H8          2.2550    5.8000   -2.2950 ha        1 51J      0.179000
     31 H7A         6.1080    5.3230    0.1300 hn        1 51J      0.460467
     32 H7B         5.5620    4.8940   -1.3610 hn        1 51J      0.460467
     33 H162        1.5170   -2.6560   -0.7640 hn        1 51J      0.375800
     34 H73         5.6380    6.4820   -0.9390 hn        1 51J      0.460467
@<TRIPOS>BOND
     1    1    2 2   
     2    2    3 2   
     3    2    9 1   
     4    2   14 1   
     5    4    5 1   
     6    4   22 1   
     7    4   33 1   
     8    5    6 1   
     9    5   23 1   
    10    5   24 1   
    11    6    7 3   
    12    7    8 1   
    13    8   25 1   
    14    8   26 1   
    15    8   27 1   
    16    9   10 ar  
    17    9   15 ar  
    18   10   11 ar  
    19   10   12 1   
    20   11   17 ar  
    21   11   29 1   
    22   12   13 2   
    23   12   14 1   
    24   15   16 ar  
    25   15   28 1   
    26   16   17 ar  
    27   16   18 1   
    28   17   30 1   
    29   18   19 2   
    30   18   20 2   
    31   18   21 1   
    32   21   31 1   
    33   21   32 1   
    34   21   34 1   
@<TRIPOS>SUBSTRUCTURE
     1 51J         1 TEMP              0 ****  ****    0 ROOT
