@<TRIPOS>MOLECULE
51K
   35    37     1     0     0
SMALL
bcc


@<TRIPOS>ATOM
      1 F26        -5.1430   -2.2740    0.3540 f         1 51K     -0.232300
      2 C23        -4.5020   -1.6920   -0.7130 c3        1 51K      0.691200
      3 F24        -4.1560   -2.7500   -1.5180 f         1 51K     -0.232300
      4 F25        -5.5050   -1.0560   -1.4030 f         1 51K     -0.232300
      5 C17        -3.3360   -0.7910   -0.3210 ca        1 51K     -0.181300
      6 C16        -3.5570    0.5730   -0.1230 ca        1 51K     -0.029000
      7 C18        -2.0660   -1.3460   -0.1520 ca        1 51K     -0.028000
      8 C13        -0.9940   -0.5230    0.2250 ca        1 51K     -0.111500
      9 C14        -1.2070    0.8470    0.4300 ca        1 51K     -0.028000
     10 C15        -2.4840    1.3830    0.2520 ca        1 51K     -0.181300
     11 C19        -2.7040    2.8780    0.4550 c3        1 51K      0.691200
     12 F22        -3.9810    3.2220    0.8220 f         1 51K     -0.232300
     13 F20        -1.9080    3.4420    1.4220 f         1 51K     -0.232300
     14 F21        -2.4590    3.6360   -0.6650 f         1 51K     -0.232300
     15 C10         0.3380   -1.0960    0.4040 cc        1 51K      0.557500
     16 N9          1.5000   -0.3640    0.4840 nd        1 51K     -0.505800
     17 N8          2.4700   -1.2740    0.6520 na        1 51K     -0.054400
     18 C12         1.9140   -2.5730    0.6680 cd        1 51K      0.417400
     19 N11         0.5800   -2.4890    0.5190 nc        1 51K     -0.671000
     20 C7          3.8790   -0.9590    0.7820 c3        1 51K      0.061300
     21 C6          4.4460   -0.2000   -0.4220 c3        1 51K     -0.120700
     22 C5          5.8910    0.0320   -0.2380 cc        1 51K      0.448700
     23 N4          6.8360   -0.5280    0.5420 nd        1 51K     -0.352000
     24 N3          8.0010    0.0580    0.2990 nd        1 51K     -0.342000
     25 C2          7.8290    1.0010   -0.6380 cc        1 51K      0.452300
     26 O1          6.4870    1.0350   -1.0260 os        1 51K     -0.388800
     27 H1         -4.5640    1.0040   -0.2600 ha        1 51K      0.171000
     28 H2         -1.9180   -2.4270   -0.3210 ha        1 51K      0.175500
     29 H3         -0.3800    1.5100    0.7370 ha        1 51K      0.175500
     30 H4          2.5070   -3.4850    0.7960 h5        1 51K      0.080100
     31 H5          4.0270   -0.3370    1.7120 h1        1 51K      0.085700
     32 H6          4.4260   -1.9360    0.9130 h1        1 51K      0.085700
     33 H7          4.2970   -0.7850   -1.3710 hc        1 51K      0.095200
     34 H8          3.9280    0.7900   -0.5460 hc        1 51K      0.095200
     35 H9          8.5080    1.7030   -1.1220 h5        1 51K      0.103100
@<TRIPOS>BOND
     1    1    2 1   
     2    2    3 1   
     3    2    4 1   
     4    2    5 1   
     5    5    6 ar  
     6    5    7 ar  
     7    6   10 ar  
     8    6   27 1   
     9    7    8 ar  
    10    7   28 1   
    11    8    9 ar  
    12    8   15 1   
    13    9   10 ar  
    14    9   29 1   
    15   10   11 1   
    16   11   12 1   
    17   11   13 1   
    18   11   14 1   
    19   15   16 2   
    20   15   19 1   
    21   16   17 1   
    22   17   18 1   
    23   17   20 1   
    24   18   19 2   
    25   18   30 1   
    26   20   21 1   
    27   20   31 1   
    28   20   32 1   
    29   21   22 1   
    30   21   33 1   
    31   21   34 1   
    32   22   23 2   
    33   22   26 1   
    34   23   24 1   
    35   24   25 2   
    36   25   26 1   
    37   25   35 1   
@<TRIPOS>SUBSTRUCTURE
     1 51K         1 TEMP              0 ****  ****    0 ROOT
