@<TRIPOS>MOLECULE
51K
   35    32     1     0     0
SMALL
bcc


@<TRIPOS>ATOM
      1 F26        -2.0950    2.5400   -4.1560 f         1 51K     -0.161000
      2 C23        -2.7000    3.0320   -3.0680 c3        1 51K      0.470000
      3 F24        -3.7940    2.3080   -2.7990 f         1 51K     -0.161000
      4 F25        -3.0510    4.3060   -3.2900 f         1 51K     -0.161000
      5 C17        -1.7500    2.9690   -1.8900 c2        1 51K     -0.174000
      6 C16        -1.0500    4.1000   -1.5030 c1        1 51K     -0.029000
      7 C18        -1.5550    1.7700   -1.2220 c2        1 51K     -0.023000
      8 C13        -0.6590    1.7030   -0.1660 c1        1 51K     -0.004000
      9 C14         0.0420    2.8350    0.2210 c1        1 51K     -0.033000
     10 C15        -0.1540    4.0330   -0.4470 c1        1 51K     -0.174000
     11 C19         0.6400    5.2580   -0.0510 c3        1 51K      0.470000
     12 F22         0.6020    6.1560   -1.0440 f         1 51K     -0.161333
     13 F20         0.1100    5.7950    1.0560 f         1 51K     -0.161333
     14 F21         1.9110    4.9090    0.1870 f         1 51K     -0.161333
     15 C10        -0.4960    0.4120    0.6060 c2        1 51K     -0.075000
     16 N9          0.4360   -0.5260    0.3830 n2        1 51K     -0.074000
     17 N8          0.3000   -1.4780    1.3220 n2        1 51K     -0.155000
     18 C12        -0.7160   -1.1260    2.1240 c1        1 51K     -0.070000
     19 N11        -1.2080    0.0420    1.6820 n2        1 51K     -0.145000
     20 C7          1.1280   -2.6250    1.4760 c2        1 51K      0.002000
     21 C6          0.6470   -3.7210    0.5520 c3        1 51K     -0.105000
     22 C5          1.4050   -4.9980    0.8470 c2        1 51K     -0.038000
     23 N4          1.1030   -5.8930    1.8020 n2        1 51K     -0.089000
     24 N3          1.9890   -6.9110    1.7170 n2        1 51K     -0.079000
     25 C2          2.8350   -6.6420    0.7100 c1        1 51K     -0.077000
     26 O1          2.4770   -5.4590    0.1690 os        1 51K     -0.130000
     27 H1         -1.1880    4.9440   -1.9730 ha        1 51K      0.172000
     28 H2         -2.0480    0.9730   -1.4950 ha        1 51K      0.180000
     29 H3          0.6730    2.7880    0.9640 ha        1 51K      0.172000
     30 H4         -1.0400   -1.6310    2.8940 DU        1 51K      0.228500
     31 H5          1.0840   -2.9380    2.4040 ha        1 51K      0.125000
     32 H6          2.0530   -2.3930    1.2540 ha        1 51K      0.125000
     33 H7          0.8030   -3.4570   -0.3770 hc        1 51K      0.134500
     34 H8         -0.3090   -3.8700    0.6920 hc        1 51K      0.134500
     35 H9          3.5790   -7.2040    0.4200 DU        1 51K      0.228500
@<TRIPOS>BOND
     1    1    2 1   
     2    2    3 1   
     3    2    4 1   
     4    2    5 1   
     5    5    6 1   
     6    5    7 1   
     7    6   27 1   
     8    7    8 1   
     9    7   28 1   
    10    8   15 1   
    11    9   10 1   
    12    9   29 1   
    13   10   11 1   
    14   11   12 1   
    15   11   13 1   
    16   11   14 1   
    17   15   16 1   
    18   15   19 1   
    19   16   17 1   
    20   17   18 1   
    21   18   19 1   
    22   20   21 1   
    23   20   31 1   
    24   20   32 1   
    25   21   22 1   
    26   21   33 1   
    27   21   34 1   
    28   22   23 1   
    29   22   26 1   
    30   23   24 1   
    31   24   25 1   
    32   25   26 1   
@<TRIPOS>SUBSTRUCTURE
     1 51K         1 TEMP              0 ****  ****    0 ROOT
