@<TRIPOS>MOLECULE
51K
   35    37     1     0     0
SMALL
bcc


@<TRIPOS>ATOM
      1 F26         0.5770   -0.3600    0.3750 f         1 51K     -0.232300
      2 C23         1.8970   -0.1240    0.0770 c3        1 51K      0.691200
      3 F24         2.5380   -0.2040    1.2890 f         1 51K     -0.232300
      4 F25         2.2980   -1.2540   -0.5940 f         1 51K     -0.232300
      5 C17         2.1400    1.1780   -0.6790 ca        1 51K     -0.181300
      6 C16         2.1600    1.1710   -2.0750 ca        1 51K     -0.029000
      7 C18         2.3250    2.3630    0.0360 ca        1 51K     -0.028000
      8 C13         2.5310    3.5660   -0.6550 ca        1 51K     -0.111500
      9 C14         2.5490    3.5680   -2.0570 ca        1 51K     -0.028000
     10 C15         2.3670    2.3720   -2.7530 ca        1 51K     -0.181300
     11 C19         2.4100    2.3790   -4.2780 c3        1 51K      0.691200
     12 F22         1.6900    1.3720   -4.8730 f         1 51K     -0.232300
     13 F20         1.9270    3.5290   -4.8540 f         1 51K     -0.232300
     14 F21         3.6730    2.2450   -4.8020 f         1 51K     -0.232300
     15 C10         2.7250    4.8100    0.0850 cc        1 51K      0.557500
     16 N9          3.2160    5.9760   -0.4570 nd        1 51K     -0.505800
     17 N8          3.2220    6.8510    0.5570 na        1 51K     -0.054400
     18 C12         2.7440    6.2310    1.7330 cd        1 51K      0.417400
     19 N11         2.4220    4.9530    1.4640 nc        1 51K     -0.671000
     20 C7          3.6700    8.2270    0.4530 c3        1 51K      0.061300
     21 C6          5.1250    8.3590   -0.0080 c3        1 51K     -0.120700
     22 C5          5.5200    9.7800   -0.0350 cc        1 51K      0.448700
     23 N4          5.0300   10.8970    0.5390 nd        1 51K     -0.352000
     24 N3          5.7870   11.9300    0.1900 nd        1 51K     -0.342000
     25 C2          6.7730   11.4980   -0.6100 cc        1 51K      0.452300
     26 O1          6.6550   10.1180   -0.7950 os        1 51K     -0.388800
     27 H1          2.0150    0.2290   -2.6320 ha        1 51K      0.171000
     28 H2          2.3100    2.3410    1.1400 ha        1 51K      0.175500
     29 H3          2.7000    4.5050   -2.6200 ha        1 51K      0.175500
     30 H4          2.6520    6.7450    2.6960 h5        1 51K      0.080100
     31 H5          3.0020    8.7710   -0.2770 h1        1 51K      0.085700
     32 H6          3.5460    8.6940    1.4710 h1        1 51K      0.085700
     33 H7          5.2570    7.9220   -1.0360 hc        1 51K      0.095200
     34 H8          5.8170    7.8090    0.6880 hc        1 51K      0.095200
     35 H9          7.6000   12.0020   -1.1110 h5        1 51K      0.103100
@<TRIPOS>BOND
     1    1    2 1   
     2    2    3 1   
     3    2    4 1   
     4    2    5 1   
     5    5    6 ar  
     6    5    7 ar  
     7    6   10 ar  
     8    6   27 1   
     9    7    8 ar  
    10    7   28 1   
    11    8    9 ar  
    12    8   15 1   
    13    9   10 ar  
    14    9   29 1   
    15   10   11 1   
    16   11   12 1   
    17   11   13 1   
    18   11   14 1   
    19   15   16 2   
    20   15   19 1   
    21   16   17 1   
    22   17   18 1   
    23   17   20 1   
    24   18   19 2   
    25   18   30 1   
    26   20   21 1   
    27   20   31 1   
    28   20   32 1   
    29   21   22 1   
    30   21   33 1   
    31   21   34 1   
    32   22   23 2   
    33   22   26 1   
    34   23   24 1   
    35   24   25 2   
    36   25   26 1   
    37   25   35 1   
@<TRIPOS>SUBSTRUCTURE
     1 51K         1 TEMP              0 ****  ****    0 ROOT
