@<TRIPOS>MOLECULE
51K
   35    37     1     0     0
SMALL
bcc


@<TRIPOS>ATOM
      1 F26         0.4890   -0.3190    0.3540 f         1 51K     -0.232133
      2 C23         1.8150   -0.1090    0.0620 c3        1 51K      0.691200
      3 F24         2.4490   -0.2070    1.2770 f         1 51K     -0.232133
      4 F25         2.1960   -1.2440   -0.6120 f         1 51K     -0.232133
      5 C17         2.0880    1.1910   -0.6870 ca        1 51K     -0.181300
      6 C16         2.1160    1.1880   -2.0830 ca        1 51K     -0.029000
      7 C18         2.2900    2.3690    0.0340 ca        1 51K     -0.028000
      8 C13         2.5270    3.5700   -0.6510 ca        1 51K     -0.111500
      9 C14         2.5550    3.5770   -2.0530 ca        1 51K     -0.028000
     10 C15         2.3510    2.3880   -2.7560 ca        1 51K     -0.181300
     11 C19         2.3680    2.4070   -4.2800 c3        1 51K      0.691200
     12 F22         2.7260    1.2150   -4.8610 f         1 51K     -0.232133
     13 F20         1.1540    2.7080   -4.8490 f         1 51K     -0.232133
     14 F21         3.2320    3.3240   -4.8260 f         1 51K     -0.232133
     15 C10         2.7420    4.8070    0.0950 cc        1 51K      0.558500
     16 N9          3.2310    5.9740   -0.4460 nd        1 51K     -0.506800
     17 N8          3.2610    6.8420    0.5740 na        1 51K     -0.054400
     18 C12         2.8000    6.2150    1.7540 cd        1 51K      0.417400
     19 N11         2.4650    4.9410    1.4800 nc        1 51K     -0.671000
     20 C7          3.7150    8.2150    0.4730 c3        1 51K      0.061300
     21 C6          5.1610    8.3420   -0.0160 c3        1 51K     -0.120700
     22 C5          5.5650    9.7610   -0.0380 cc        1 51K      0.448700
     23 N4          5.0930   10.8760    0.5520 nd        1 51K     -0.352000
     24 N3          5.8490   11.9070    0.1990 nd        1 51K     -0.342000
     25 C2          6.8190   11.4760   -0.6210 cc        1 51K      0.452300
     26 O1          6.6890   10.0980   -0.8150 os        1 51K     -0.388800
     27 H1          1.9650    0.2500   -2.6450 ha        1 51K      0.172000
     28 H2          2.2660    2.3420    1.1370 ha        1 51K      0.176000
     29 H3          2.7400    4.5100   -2.6120 ha        1 51K      0.176000
     30 H4          2.7280    6.7210    2.7220 h5        1 51K      0.080100
     31 H5          3.0360    8.7690   -0.2380 h1        1 51K      0.085700
     32 H6          3.6140    8.6740    1.4980 h1        1 51K      0.085700
     33 H7          5.2700    7.9140   -1.0500 hc        1 51K      0.095200
     34 H8          5.8640    7.7820    0.6600 hc        1 51K      0.095200
     35 H9          7.6390   11.9790   -1.1330 h5        1 51K      0.103100
@<TRIPOS>BOND
     1    1    2 1   
     2    2    3 1   
     3    2    4 1   
     4    2    5 1   
     5    5    6 ar  
     6    5    7 ar  
     7    6   10 ar  
     8    6   27 1   
     9    7    8 ar  
    10    7   28 1   
    11    8    9 ar  
    12    8   15 1   
    13    9   10 ar  
    14    9   29 1   
    15   10   11 1   
    16   11   12 1   
    17   11   13 1   
    18   11   14 1   
    19   15   16 2   
    20   15   19 1   
    21   16   17 1   
    22   17   18 1   
    23   17   20 1   
    24   18   19 2   
    25   18   30 1   
    26   20   21 1   
    27   20   31 1   
    28   20   32 1   
    29   21   22 1   
    30   21   33 1   
    31   21   34 1   
    32   22   23 2   
    33   22   26 1   
    34   23   24 1   
    35   24   25 2   
    36   25   26 1   
    37   25   35 1   
@<TRIPOS>SUBSTRUCTURE
     1 51K         1 TEMP              0 ****  ****    0 ROOT
