@<TRIPOS>MOLECULE
51M
   59    62     1     0     0
SMALL
bcc


@<TRIPOS>ATOM
      1 C1         -0.1180    0.2800    0.0820 ca        1 51M     -0.102000
      2 C2          1.2680    0.4710    0.0030 ca        1 51M     -0.198000
      3 C3          2.0770    0.5050    1.1370 ca        1 51M      0.172600
      4 C7         -0.5470   -0.1380    3.7830 ca        1 51M     -0.140000
      5 C8          0.2030   -0.0810    4.9310 ca        1 51M     -0.123000
      6 C9          1.5850    0.1960    4.8580 ca        1 51M     -0.162000
      7 C10         2.1840    0.3870    3.6370 ca        1 51M     -0.084000
      8 C12         4.0410    1.3550   -0.1220 c3        1 51M      0.173800
      9 C13         4.9330    0.3040   -0.8060 c3        1 51M     -0.206700
     10 C14         5.1330   -0.7940    0.2340 c3        1 51M     -0.087400
     11 C15         4.3260   -0.3630    1.4700 c3        1 51M      0.167800
     12 C16         6.2610    0.9310   -1.2930 c         1 51M      0.919600
     13 O17         7.3110    0.2340   -1.2190 o         1 51M     -0.837300
     14 C21        -2.6080   -2.7300    1.3090 ca        1 51M     -0.359500
     15 C24        -3.2790   -3.1370    2.4830 ca        1 51M      0.051200
     16 C27        -1.4290   -4.8710    1.2830 ca        1 51M     -0.115300
     17 C31        -0.4530   -5.8140    0.6830 c3        1 51M     -0.048800
     18 C4         -0.7470    0.0570    1.3010 ca        1 51M      0.075600
     19 C5          1.4390    0.3160    2.4250 ca        1 51M     -0.047000
     20 C6          0.0430    0.0720    2.5030 ca        1 51M     -0.017000
     21 N11         3.4650    0.7750    1.1010 nh        1 51M     -0.628000
     22 O18         6.2130    2.1040   -1.7590 o         1 51M     -0.837300
     23 N19        -2.1420   -0.1410    1.3610 nh        1 51M     -0.781500
     24 S20        -3.0120   -1.2470    0.5650 sy        1 51M      1.500200
     25 O22        -2.6870   -1.2880   -0.8070 o         1 51M     -0.663800
     26 O23        -4.3810   -0.9570    0.8100 o         1 51M     -0.663800
     27 C25        -3.0640   -4.4150    3.0210 ca        1 51M     -0.115300
     28 C26        -2.1470   -5.2710    2.4090 ca        1 51M     -0.066000
     29 C28        -1.6460   -3.5900    0.7430 ca        1 51M      0.051200
     30 C29        -4.2380   -2.2290    3.1660 c3        1 51M     -0.087300
     31 H1         -0.6990    0.2760   -0.8580 ha        1 51M      0.153000
     32 H2          1.7050    0.5860   -1.0030 ha        1 51M      0.154000
     33 H3         -1.6210   -0.3610    3.8610 ha        1 51M      0.118000
     34 H4         -0.2630   -0.2470    5.9130 ha        1 51M      0.120000
     35 H5          2.1730    0.2580    5.7850 ha        1 51M      0.126000
     36 H6          3.2620    0.6150    3.5970 ha        1 51M      0.155000
     37 H7          3.2710    1.7640   -0.8220 h1        1 51M      0.064200
     38 H8          4.6800    2.2200    0.2140 h1        1 51M      0.064200
     39 H9          4.4170   -0.1050   -1.7110 hc        1 51M      0.038700
     40 H10         6.2200   -0.8970    0.4790 hc        1 51M      0.054700
     41 H11         4.7670   -1.7790   -0.1440 hc        1 51M      0.054700
     42 H12         3.7290   -1.2140    1.8920 h1        1 51M      0.036700
     43 H13         5.0230    0.0100    2.2700 h1        1 51M      0.036700
     44 H15        -3.4660   -4.3130    5.1290 hc        1 51M      0.043033
     45 H16        -3.5860   -5.9730    4.4160 hc        1 51M      0.043033
     46 H17        -4.8920   -4.7600    4.0980 hc        1 51M      0.043033
     47 H18         0.5910   -5.4340    0.8200 hc        1 51M      0.043033
     48 H19        -0.5220   -6.8220    1.1610 hc        1 51M      0.043033
     49 H20        -0.6450   -5.9340   -0.4130 hc        1 51M      0.043033
     50 H21         0.0760   -3.7920   -0.5580 hc        1 51M      0.063700
     51 H22        -1.4620   -3.2620   -1.3690 hc        1 51M      0.063700
     52 H23        -0.5160   -2.1040   -0.3440 hc        1 51M      0.063700
     53 H24        -2.5860    0.4680    2.0130 hn        1 51M      0.451800
     54 H25        -1.9820   -6.2770    2.8280 ha        1 51M      0.128000
     55 H26        -4.4310   -2.5450    4.2200 hc        1 51M      0.063700
     56 H27        -3.8510   -1.1800    3.2040 hc        1 51M      0.063700
     57 H28        -5.2130   -2.2180    2.6120 hc        1 51M      0.063700
     58 C30        -3.7890   -4.8890    4.2250 c3        1 51M     -0.048800
     59 C32        -0.8450   -3.1720   -0.4370 c3        1 51M     -0.087300
@<TRIPOS>BOND
     1    1    2 ar  
     2    1   18 ar  
     3    1   31 1   
     4    2    3 ar  
     5    2   32 1   
     6    3   19 ar  
     7    3   21 1   
     8    4    5 ar  
     9    4   20 ar  
    10    4   33 1   
    11    5    6 ar  
    12    5   34 1   
    13    6    7 ar  
    14    6   35 1   
    15    7   19 ar  
    16    7   36 1   
    17    8    9 1   
    18    8   21 1   
    19    8   37 1   
    20    8   38 1   
    21    9   10 1   
    22    9   12 1   
    23    9   39 1   
    24   10   11 1   
    25   10   40 1   
    26   10   41 1   
    27   11   21 1   
    28   11   42 1   
    29   11   43 1   
    30   12   13 1   
    31   12   22 1   
    32   14   15 ar  
    33   14   24 1   
    34   14   29 ar  
    35   15   27 ar  
    36   15   30 1   
    37   16   17 1   
    38   16   28 ar  
    39   16   29 ar  
    40   17   47 1   
    41   17   48 1   
    42   17   49 1   
    43   18   20 ar  
    44   18   23 1   
    45   19   20 ar  
    46   23   24 1   
    47   23   53 1   
    48   24   25 2   
    49   24   26 2   
    50   27   28 ar  
    51   27   58 1   
    52   28   54 1   
    53   29   59 1   
    54   30   55 1   
    55   30   56 1   
    56   30   57 1   
    57   44   58 1   
    58   45   58 1   
    59   46   58 1   
    60   50   59 1   
    61   51   59 1   
    62   52   59 1   
@<TRIPOS>SUBSTRUCTURE
     1 51M         1 TEMP              0 ****  ****    0 ROOT
