@<TRIPOS>MOLECULE
51M
   59    62     1     0     0
SMALL
bcc


@<TRIPOS>ATOM
      1 C1         -0.1100    0.3140    0.1260 ca        1 51M     -0.102000
      2 C2          1.2770    0.5020    0.0570 ca        1 51M     -0.198000
      3 C3          2.0800    0.5180    1.1960 ca        1 51M      0.172600
      4 C7         -0.5590   -0.1530    3.8190 ca        1 51M     -0.140000
      5 C8          0.1850   -0.1150    4.9720 ca        1 51M     -0.123000
      6 C9          1.5680    0.1580    4.9100 ca        1 51M     -0.162000
      7 C10         2.1740    0.3650    3.6940 ca        1 51M     -0.084000
      8 C12         4.0530    1.3790   -0.0410 c3        1 51M      0.173800
      9 C13         4.9450    0.3350   -0.7360 c3        1 51M     -0.206700
     10 C14         5.1360   -0.7780    0.2900 c3        1 51M     -0.087400
     11 C15         4.3240   -0.3620    1.5280 c3        1 51M      0.167800
     12 C16         6.2780    0.9640   -1.2080 c         1 51M      0.919600
     13 O17         7.3250    0.2620   -1.1380 o         1 51M     -0.837300
     14 C21        -2.6150   -2.7040    1.2990 ca        1 51M     -0.359500
     15 C24        -3.2930   -3.1260    2.4640 ca        1 51M      0.051200
     16 C27        -1.4410   -4.8480    1.2500 ca        1 51M     -0.115300
     17 C31        -0.4650   -5.7850    0.6420 c3        1 51M     -0.048800
     18 C4         -0.7460    0.0770    1.3390 ca        1 51M      0.075600
     19 C5          1.4350    0.3130    2.4770 ca        1 51M     -0.047000
     20 C6          0.0380    0.0730    2.5450 ca        1 51M     -0.017000
     21 N11         3.4690    0.7840    1.1700 nh        1 51M     -0.628000
     22 O18         6.2360    2.1430   -1.6580 o         1 51M     -0.837300
     23 N19        -2.1420   -0.1180    1.3890 nu        1 51M     -0.781500
     24 S20        -3.0110   -1.2100    0.5730 sy        1 51M      1.500200
     25 O22        -2.6790   -1.2330   -0.7970 o         1 51M     -0.663800
     26 O23        -4.3810   -0.9200    0.8150 o         1 51M     -0.663800
     27 C25        -3.0840   -4.4120    2.9860 ca        1 51M     -0.115300
     28 C26        -2.1660   -5.2620    2.3660 ca        1 51M     -0.066000
     29 C28        -1.6520   -3.5600    0.7260 ca        1 51M      0.051200
     30 C29        -4.2530   -2.2250    3.1550 c3        1 51M     -0.087300
     31 H1         -0.6870    0.3250   -0.8170 ha        1 51M      0.153000
     32 H2          1.7190    0.6300   -0.9450 ha        1 51M      0.154000
     33 H3         -1.6350   -0.3740    3.8880 ha        1 51M      0.118000
     34 H4         -0.2860   -0.2940    5.9490 ha        1 51M      0.120000
     35 H5          2.1510    0.2050    5.8400 ha        1 51M      0.126000
     36 H6          3.2520    0.5900    3.6630 ha        1 51M      0.155000
     37 H7          4.6940    2.2370    0.3100 h1        1 51M      0.064200
     38 H8          3.2880    1.8000   -0.7400 h1        1 51M      0.064200
     39 H9          4.4320   -0.0600   -1.6490 hc        1 51M      0.038700
     40 H10         4.7690   -1.7570   -0.1040 hc        1 51M      0.054700
     41 H11         6.2220   -0.8880    0.5390 hc        1 51M      0.054700
     42 H12         3.7230   -1.2160    1.9350 h1        1 51M      0.036700
     43 H13         5.0190   -0.0030    2.3360 h1        1 51M      0.036700
     44 H15        -3.4970   -4.3380    5.0930 hc        1 51M      0.043033
     45 H16        -3.6170   -5.9860    4.3560 hc        1 51M      0.043033
     46 H17        -4.9190   -4.7660    4.0480 hc        1 51M      0.043033
     47 H18        -0.5380   -6.8000    1.1070 hc        1 51M      0.043033
     48 H19         0.5800   -5.4100    0.7900 hc        1 51M      0.043033
     49 H20        -0.6510   -5.8910   -0.4560 hc        1 51M      0.043033
     50 H21         0.0750   -3.7490   -0.5700 hc        1 51M      0.063700
     51 H22        -1.4570   -3.2030   -1.3800 hc        1 51M      0.063700
     52 H23        -0.5130   -2.0620   -0.3350 hc        1 51M      0.063700
     53 H24        -2.5880    0.4830    2.0460 hn        1 51M      0.451800
     54 H25        -2.0060   -6.2740    2.7730 ha        1 51M      0.128000
     55 H26        -5.2250   -2.2030    2.5950 hc        1 51M      0.063700
     56 H27        -3.8640   -1.1780    3.2080 hc        1 51M      0.063700
     57 H28        -4.4530   -2.5540    4.2030 hc        1 51M      0.063700
     58 C30        -3.8160   -4.9000    4.1790 c3        1 51M     -0.048800
     59 C32        -0.8450   -3.1280   -0.4440 c3        1 51M     -0.087300
@<TRIPOS>BOND
     1    1    2 ar  
     2    1   18 ar  
     3    1   31 1   
     4    2    3 ar  
     5    2   32 1   
     6    3   19 ar  
     7    3   21 1   
     8    4    5 ar  
     9    4   20 ar  
    10    4   33 1   
    11    5    6 ar  
    12    5   34 1   
    13    6    7 ar  
    14    6   35 1   
    15    7   19 ar  
    16    7   36 1   
    17    8    9 1   
    18    8   21 1   
    19    8   37 1   
    20    8   38 1   
    21    9   10 1   
    22    9   12 1   
    23    9   39 1   
    24   10   11 1   
    25   10   40 1   
    26   10   41 1   
    27   11   21 1   
    28   11   42 1   
    29   11   43 1   
    30   12   13 1   
    31   12   22 1   
    32   14   15 ar  
    33   14   24 1   
    34   14   29 ar  
    35   15   27 ar  
    36   15   30 1   
    37   16   17 1   
    38   16   28 ar  
    39   16   29 ar  
    40   17   47 1   
    41   17   48 1   
    42   17   49 1   
    43   18   20 ar  
    44   18   23 1   
    45   19   20 ar  
    46   23   24 1   
    47   23   53 1   
    48   24   25 2   
    49   24   26 2   
    50   27   28 ar  
    51   27   58 1   
    52   28   54 1   
    53   29   59 1   
    54   30   55 1   
    55   30   56 1   
    56   30   57 1   
    57   44   58 1   
    58   45   58 1   
    59   46   58 1   
    60   50   59 1   
    61   51   59 1   
    62   52   59 1   
@<TRIPOS>SUBSTRUCTURE
     1 51M         1 TEMP              0 ****  ****    0 ROOT
