@<TRIPOS>MOLECULE
51P
   40    42     1     0     0
SMALL
bcc


@<TRIPOS>ATOM
      1 C'1        -0.0970   -0.0050   -0.0250 ca        1 51P     -0.162800
      2 C'2         1.2670    0.2510    0.2280 ca        1 51P      0.130100
      3 C'3         1.8090    0.0440    1.5050 ca        1 51P     -0.177000
      4 C'4         0.9900   -0.4070    2.5360 ca        1 51P     -0.065000
      5 C'5        -0.3640   -0.6560    2.3010 ca        1 51P     -0.140000
      6 C'6        -0.8980   -0.4650    1.0310 ca        1 51P     -0.096000
      7 N1'        -1.7560    5.9600   -0.4710 nb        1 51P     -0.567000
      8 C10        -0.8850   -1.1850   -2.0650 c3        1 51P     -0.098900
      9 C11        -0.6790    0.1090   -1.3660 ce        1 51P      0.129600
     10 C13         3.4110    0.4270   -0.8000 c3        1 51P      0.109700
     11 O13         2.0150    0.7450   -0.8260 os        1 51P     -0.378900
     12 C2'        -3.1240    5.9340   -0.7080 ca        1 51P      0.699900
     13 N2'        -3.8350    7.2120   -0.4190 n4        1 51P     -0.807300
     14 N3'        -3.8910    4.8970   -1.1650 nb        1 51P     -0.653000
     15 C4'        -3.2370    3.7300   -1.4350 ca        1 51P      0.513200
     16 N4'        -4.0150    2.5770   -1.9190 n4        1 51P     -0.819300
     17 C5'        -1.8500    3.5940   -1.2610 ca        1 51P     -0.219400
     18 C6'        -0.8410    2.5900   -1.4250 cd        1 51P     -0.066200
     19 C7'         0.3570    3.1840   -1.0260 cc        1 51P      0.149100
     20 C8'        -1.1670    4.7920   -0.7530 ca        1 51P      0.608600
     21 O8'         0.1880    4.5100   -0.6120 os        1 51P     -0.235400
     22 C9'        -1.0490    1.2700   -1.9520 cf        1 51P     -0.282000
     23 H'3         2.8790    0.2240    1.6900 ha        1 51P      0.163000
     24 H'4         1.4160   -0.5760    3.5390 ha        1 51P      0.165000
     25 H'5        -1.0050   -1.0240    3.1180 ha        1 51P      0.159000
     26 H'6        -1.9570   -0.6980    0.8440 ha        1 51P      0.129000
     27 H10         0.1160   -1.6230   -2.3210 hc        1 51P      0.078367
     28 H10A       -1.4120   -1.9100   -1.3940 hc        1 51P      0.078367
     29 H10B       -1.4690   -1.0690   -3.0100 hc        1 51P      0.078367
     30 H13         3.7480    0.6480   -1.8450 h1        1 51P      0.063367
     31 H13A        3.5730   -0.6480   -0.5490 h1        1 51P      0.063367
     32 H13B        3.9320    1.0890   -0.0660 h1        1 51P      0.063367
     33 HN2'       -4.8460    7.1130   -0.5940 hn        1 51P      0.497467
     34 HN2A       -3.6790    7.4700    0.5680 hn        1 51P      0.497467
     35 HN4'       -3.3730    1.7630   -1.9910 hn        1 51P      0.492800
     36 HN4A       -4.4170    2.7820   -2.8450 hn        1 51P      0.492800
     37 H7'         1.3990    2.8240   -0.9640 h4        1 51P      0.280000
     38 H9'        -1.4400    1.2480   -2.9880 ha        1 51P      0.139000
     39 H2'3       -3.4520    7.9540   -1.0260 hn        1 51P      0.497467
     40 H4'3       -4.7790    2.3560   -1.2640 hn        1 51P      0.492800
@<TRIPOS>BOND
     1    1    2 ar  
     2    1    6 ar  
     3    1    9 1   
     4    2    3 ar  
     5    2   11 1   
     6    3    4 ar  
     7    3   23 1   
     8    4    5 ar  
     9    4   24 1   
    10    5    6 ar  
    11    5   25 1   
    12    6   26 1   
    13    7   12 ar  
    14    7   20 ar  
    15    8    9 1   
    16    8   27 1   
    17    8   28 1   
    18    8   29 1   
    19    9   22 2   
    20   10   11 1   
    21   10   30 1   
    22   10   31 1   
    23   10   32 1   
    24   12   13 1   
    25   12   14 ar  
    26   13   33 1   
    27   13   34 1   
    28   13   39 1   
    29   14   15 ar  
    30   15   16 1   
    31   15   17 ar  
    32   16   35 1   
    33   16   36 1   
    34   16   40 1   
    35   17   18 1   
    36   17   20 ar  
    37   18   19 2   
    38   18   22 1   
    39   19   21 1   
    40   19   37 1   
    41   20   21 1   
    42   22   38 1   
@<TRIPOS>SUBSTRUCTURE
     1 51P         1 TEMP              0 ****  ****    0 ROOT
