@<TRIPOS>MOLECULE
51P
   38    40     1     0     0
SMALL
bcc


@<TRIPOS>ATOM
      1 C'1         0.0980    0.1110   -0.0490 ca        1 51P     -0.087800
      2 C'2         1.4690   -0.2140    0.0820 ca        1 51P      0.132100
      3 C'3         2.0420   -0.4070    1.3450 ca        1 51P     -0.206000
      4 C'4         1.2510   -0.2830    2.4860 ca        1 51P     -0.092000
      5 C'5        -0.1000    0.0330    2.3740 ca        1 51P     -0.162000
      6 C'6        -0.6680    0.2280    1.1160 ca        1 51P     -0.084000
      7 N1'        -2.2380    5.9710   -0.1330 nb        1 51P     -0.764000
      8 C10        -0.5960   -0.9440   -2.1950 c3        1 51P     -0.063900
      9 C11        -0.5280    0.2870   -1.3620 ce        1 51P     -0.023400
     10 C13         3.5720   -0.5680   -0.9830 c3        1 51P      0.112700
     11 O13         2.1760   -0.3250   -1.1020 os        1 51P     -0.326900
     12 C2'        -3.5470    5.9450   -0.6200 ca        1 51P      0.917900
     13 N2'        -4.2860    7.1210   -0.4850 nv        1 51P     -0.931500
     14 N3'        -4.1790    4.8840   -1.2570 nb        1 51P     -0.836000
     15 C4'        -3.4400    3.7600   -1.5190 ca        1 51P      0.761200
     16 N4'        -4.0130    2.7170   -2.2260 nv        1 51P     -0.946500
     17 C5'        -2.0810    3.6860   -1.1010 ca        1 51P     -0.435400
     18 C6'        -0.9950    2.7250   -1.1470 cd        1 51P     -0.042200
     19 C7'         0.0680    3.3150   -0.4970 cc        1 51P     -0.026900
     20 C8'        -1.5710    4.8350   -0.4070 ca        1 51P      0.645600
     21 O8'        -0.2430    4.6070   -0.0290 os        1 51P     -0.306400
     22 C9'        -1.0300    1.4520   -1.8130 cf        1 51P     -0.121000
     23 H'3         3.1070   -0.6560    1.4490 ha        1 51P      0.138000
     24 H'4         1.7020   -0.4350    3.4780 ha        1 51P      0.134000
     25 H'5        -0.7220    0.1320    3.2760 ha        1 51P      0.136000
     26 H'6        -1.7360    0.4830    1.0300 ha        1 51P      0.139000
     27 H10        -1.0980   -0.7520   -3.1740 hc        1 51P      0.049367
     28 H10A        0.4420   -1.3170   -2.3920 hc        1 51P      0.049367
     29 H10B       -1.1610   -1.7430   -1.6540 hc        1 51P      0.049367
     30 H13         4.0710    0.2480   -0.4070 h1        1 51P      0.045033
     31 H13A        3.7600   -1.5590   -0.5020 h1        1 51P      0.045033
     32 H13B        3.9250   -0.5730   -2.0460 h1        1 51P      0.045033
     33 HN2'       -3.9520    7.7940    0.1640 hn        1 51P      0.432300
     34 HN2A       -5.2700    7.0570   -0.6020 hn        1 51P      0.432300
     35 HN4'       -3.5680    1.8350   -2.1370 hn        1 51P      0.428800
     36 HN4A       -4.9950    2.7200   -2.3660 hn        1 51P      0.428800
     37 H7'         1.0870    3.0130   -0.2720 h4        1 51P      0.199000
     38 H9'        -1.5010    1.4800   -2.8150 ha        1 51P      0.133000
@<TRIPOS>BOND
     1    1    2 ar  
     2    1    6 ar  
     3    1    9 1   
     4    2    3 ar  
     5    2   11 1   
     6    3    4 ar  
     7    3   23 1   
     8    4    5 ar  
     9    4   24 1   
    10    5    6 ar  
    11    5   25 1   
    12    6   26 1   
    13    7   12 ar  
    14    7   20 ar  
    15    8    9 1   
    16    8   27 1   
    17    8   28 1   
    18    8   29 1   
    19    9   22 2   
    20   10   11 1   
    21   10   30 1   
    22   10   31 1   
    23   10   32 1   
    24   12   13 1   
    25   12   14 ar  
    26   13   33 1   
    27   13   34 1   
    28   14   15 ar  
    29   15   16 1   
    30   15   17 ar  
    31   16   35 1   
    32   16   36 1   
    33   17   18 1   
    34   17   20 ar  
    35   18   19 2   
    36   18   22 1   
    37   19   21 1   
    38   19   37 1   
    39   20   21 1   
    40   22   38 1   
@<TRIPOS>SUBSTRUCTURE
     1 51P         1 TEMP              0 ****  ****    0 ROOT
