@<TRIPOS>MOLECULE
51P
   38    40     1     0     0
SMALL
bcc


@<TRIPOS>ATOM
      1 C'1        -2.2350    0.3110    0.4990 ca        1 51P     -0.087800
      2 C'2        -3.3760   -0.1640   -0.1900 ca        1 51P      0.132100
      3 C'3        -4.0620   -1.3000    0.2580 ca        1 51P     -0.206000
      4 C'4        -3.6180   -1.9670    1.3980 ca        1 51P     -0.092000
      5 C'5        -2.4990   -1.5100    2.0890 ca        1 51P     -0.162000
      6 C'6        -1.8160   -0.3810    1.6400 ca        1 51P     -0.083000
      7 N1'         3.7020   -1.4800   -0.6040 nb        1 51P     -0.762000
      8 C10        -2.2960    2.7800    0.1780 c3        1 51P     -0.063900
      9 C11        -1.5210    1.5150    0.0660 ce        1 51P     -0.022400
     10 C13        -4.8470    0.0520   -2.0540 c3        1 51P      0.112700
     11 O13        -3.7500    0.5620   -1.3060 os        1 51P     -0.326900
     12 C2'         4.5690   -0.6010    0.0500 ca        1 51P      0.914900
     13 N2'         5.8610   -1.0690    0.3000 nh        1 51P     -0.929500
     14 N3'         4.2640    0.6660    0.5320 nb        1 51P     -0.833000
     15 C4'         2.9810    1.1220    0.3800 ca        1 51P      0.758200
     16 N4'         2.6590    2.4030    0.7950 nh        1 51P     -0.943500
     17 C5'         2.0040    0.3030   -0.2540 ca        1 51P     -0.433400
     18 C6'         0.5960    0.3820   -0.5980 cd        1 51P     -0.042200
     19 C7'         0.2830   -0.8110   -1.2130 cc        1 51P     -0.025900
     20 C8'         2.4560   -0.9820   -0.7090 ca        1 51P      0.644600
     21 O8'         1.3940   -1.6730   -1.3020 os        1 51P     -0.305400
     22 C9'        -0.2550    1.5220   -0.3910 cf        1 51P     -0.122000
     23 H'3        -4.9460   -1.6720   -0.2770 ha        1 51P      0.138000
     24 H'4        -4.1580   -2.8590    1.7490 ha        1 51P      0.134000
     25 H'5        -2.1490   -2.0400    2.9870 ha        1 51P      0.137000
     26 H'6        -0.9270   -0.0260    2.1840 ha        1 51P      0.140000
     27 H10        -2.6180    2.9400    1.2370 hc        1 51P      0.049367
     28 H10A       -1.6940    3.6620   -0.1490 hc        1 51P      0.049367
     29 H10B       -3.2120    2.7140   -0.4620 hc        1 51P      0.049367
     30 H13        -5.7810    0.0610   -1.4400 h1        1 51P      0.045367
     31 H13A       -4.9320    0.7680   -2.9110 h1        1 51P      0.045367
     32 H13B       -4.6310   -0.9800   -2.4240 h1        1 51P      0.045367
     33 HN2'        6.1630   -1.8550   -0.2270 hn        1 51P      0.430300
     34 HN2A        6.5500   -0.3910    0.5260 hn        1 51P      0.430300
     35 HN4'        3.2980    2.8830    1.3840 hn        1 51P      0.427300
     36 HN4A        1.6920    2.5780    0.9430 hn        1 51P      0.427300
     37 H7'        -0.6210   -1.2330   -1.6450 h4        1 51P      0.199000
     38 H9'         0.2060    2.4870   -0.6780 ha        1 51P      0.133000
@<TRIPOS>BOND
     1    1    2 ar  
     2    1    6 ar  
     3    1    9 1   
     4    2    3 ar  
     5    2   11 1   
     6    3    4 ar  
     7    3   23 1   
     8    4    5 ar  
     9    4   24 1   
    10    5    6 ar  
    11    5   25 1   
    12    6   26 1   
    13    7   12 ar  
    14    7   20 ar  
    15    8    9 1   
    16    8   27 1   
    17    8   28 1   
    18    8   29 1   
    19    9   22 2   
    20   10   11 1   
    21   10   30 1   
    22   10   31 1   
    23   10   32 1   
    24   12   13 1   
    25   12   14 ar  
    26   13   33 1   
    27   13   34 1   
    28   14   15 ar  
    29   15   16 1   
    30   15   17 ar  
    31   16   35 1   
    32   16   36 1   
    33   17   18 1   
    34   17   20 ar  
    35   18   19 2   
    36   18   22 1   
    37   19   21 1   
    38   19   37 1   
    39   20   21 1   
    40   22   38 1   
@<TRIPOS>SUBSTRUCTURE
     1 51P         1 TEMP              0 ****  ****    0 ROOT
