@<TRIPOS>MOLECULE
51P
   38    30     1     0     0
SMALL
bcc


@<TRIPOS>ATOM
      1 C'1         0.6950   -1.5930    0.6020 c1        1 51P     -0.076000
      2 C'2         2.0610   -1.3570    0.5930 c1        1 51P      0.087000
      3 C'3         2.7630   -1.3040    1.7870 c1        1 51P     -0.206000
      4 C'4         2.0990   -1.4850    2.9900 c1        1 51P     -0.127000
      5 C'5         0.7340   -1.7200    3.0000 c1        1 51P     -0.127000
      6 C'6         0.0310   -1.7740    1.8060 c1        1 51P     -0.084000
      7 N1'        -1.5500    3.9310   -1.4180 n1        1 51P     -0.238000
      8 C10        -0.1140   -3.1490   -1.3450 c3        1 51P     -0.186000
      9 C11        -0.0470   -1.7810   -0.7040 c2        1 51P     -0.031000
     10 C13         4.0260   -1.7370   -0.6560 c3        1 51P     -0.077000
     11 O13         2.7330   -1.1730   -0.6250 os        1 51P     -0.210000
     12 C2'        -2.7110    4.1370   -0.7280 c1        1 51P      0.199000
     13 N2'        -3.3580    5.3980   -0.7920 n3        1 51P     -0.329000
     14 N3'        -3.2340    3.1380    0.0470 n1        1 51P     -0.310000
     15 C4'        -2.6070    1.9510    0.1310 c1        1 51P      0.240000
     16 N4'        -3.1700    0.9040    0.9050 n2        1 51P     -0.344000
     17 C5'        -1.4310    1.7410   -0.5670 c1        1 51P     -0.293000
     18 C6'        -0.5830    0.6420   -0.6550 c1        1 51P     -0.054000
     19 C7'         0.4600    0.9770   -1.4870 c1        1 51P     -0.071000
     20 C8'        -0.9130    2.7330   -1.3350 c1        1 51P      0.147000
     21 O8'         0.2670    2.2610   -1.9110 o         1 51P     -0.092000
     22 C9'        -0.6500   -0.7270   -1.2960 c1        1 51P     -0.121000
     23 H'3         3.7240   -1.1380    1.7800 ha        1 51P      0.138000
     24 H'4         2.5930   -1.4470    3.8300 ha        1 51P      0.135000
     25 H'5         0.2670   -1.8470    3.8470 ha        1 51P      0.135000
     26 H'6        -0.9300   -1.9390    1.8130 ha        1 51P      0.139000
     27 H10        -1.0230   -3.3140   -1.6690 hc        1 51P      0.088667
     28 H10A        0.5140   -3.1880   -2.0980 hc        1 51P      0.088667
     29 H10B        0.1260   -3.8320   -0.6840 hc        1 51P      0.088667
     30 H13         4.3680   -1.7230   -1.5760 h1        1 51P      0.084333
     31 H13A        4.6240   -1.2160   -0.0770 h1        1 51P      0.084333
     32 H13B        3.9860   -2.6640   -0.3360 h1        1 51P      0.084333
     33 HN2'       -3.0180    6.0600   -1.3210 hn        1 51P      0.227500
     34 HN2A       -4.1050    5.5540   -0.2880 hn        1 51P      0.227500
     35 HN4'       -2.8840    0.0440    0.7870 hn        1 51P      0.224000
     36 HN4A       -3.8180    1.0900    1.5220 hn        1 51P      0.224000
     37 H7'         1.2040    0.3960   -1.7370 DU        1 51P      0.199000
     38 H9'        -1.1280   -0.8490   -2.1390 ha        1 51P      0.133000
@<TRIPOS>BOND
     1    1    6 1   
     2    1    9 1   
     3    2    3 1   
     4    2   11 1   
     5    3   23 1   
     6    4    5 1   
     7    4   24 1   
     8    5   25 1   
     9    6   26 1   
    10    7   12 1   
    11    8    9 1   
    12    8   27 1   
    13    8   28 1   
    14    8   29 1   
    15    9   22 1   
    16   10   11 1   
    17   10   30 1   
    18   10   31 1   
    19   10   32 1   
    20   12   13 1   
    21   13   33 1   
    22   13   34 1   
    23   14   15 1   
    24   15   17 1   
    25   16   35 1   
    26   16   36 1   
    27   17   20 1   
    28   18   19 1   
    29   19   21 1   
    30   22   38 1   
@<TRIPOS>SUBSTRUCTURE
     1 51P         1 TEMP              0 ****  ****    0 ROOT
