@<TRIPOS>MOLECULE
51U
   54    56     1     0     0
SMALL
bcc


@<TRIPOS>ATOM
      1 N1          2.4870    1.6950    0.7190 n3        1 51U     -0.898800
      2 C2          2.4720    0.3340    0.2260 c3        1 51U      0.118500
      3 C3          1.0320   -0.0920   -0.1360 c         1 51U      0.667100
      4 O1          0.3010    0.6680   -0.8080 o         1 51U     -0.632100
      5 C1          3.3240    0.0610   -1.0330 c3        1 51U     -0.078100
      6 C17         4.7600    0.3560   -0.7900 ca        1 51U     -0.088300
      7 C18         5.5970   -0.6200   -0.2370 ca        1 51U     -0.128500
      8 C23         5.2910    1.6100   -1.1160 ca        1 51U     -0.128500
      9 C19         6.9450   -0.3460   -0.0130 ca        1 51U     -0.124000
     10 C22         6.6400    1.8820   -0.8910 ca        1 51U     -0.124000
     11 C20         7.4680    0.9050   -0.3390 ca        1 51U     -0.126000
     12 N2          0.5590   -1.3100    0.3040 n         1 51U     -0.455800
     13 C7         -0.7310   -1.8380   -0.1290 c3        1 51U      0.032700
     14 C8         -1.9140   -1.3460    0.7400 c         1 51U      0.650100
     15 O2         -2.7000   -2.1570    1.2720 o         1 51U     -0.625100
     16 C6         -0.6190   -3.3780   -0.0810 c3        1 51U     -0.088400
     17 C5          0.6720   -3.6940    0.6650 c3        1 51U     -0.091400
     18 C4          1.4010   -2.3550    0.8580 c3        1 51U      0.089000
     19 N3         -2.0580    0.0130    0.8920 n         1 51U     -0.547900
     20 C9         -3.1790    0.5880    1.5870 c3        1 51U      0.132300
     21 C10        -4.3580    0.9210    0.7150 ca        1 51U     -0.117300
     22 C11        -5.1750   -0.1100    0.2390 ca        1 51U     -0.113000
     23 C12        -6.2920    0.1810   -0.5500 ca        1 51U     -0.080300
     24 C13        -7.1680   -0.9080   -1.0420 c3        1 51U     -0.053800
     25 C14        -6.5850    1.5150   -0.8610 ca        1 51U     -0.127000
     26 C15        -5.7700    2.5410   -0.3880 ca        1 51U     -0.131000
     27 C16        -4.6560    2.2480    0.3980 ca        1 51U     -0.123000
     28 HN1         3.4230    2.0540    0.6900 hn        1 51U      0.364800
     29 HN1A        1.8880    2.2820    0.1700 hn        1 51U      0.364800
     30 H2          2.8770   -0.3020    1.0690 h1        1 51U      0.078700
     31 H1          3.2010   -1.0170   -1.3200 hc        1 51U      0.063200
     32 H1A         2.9350    0.6820   -1.8840 hc        1 51U      0.063200
     33 H18         5.1870   -1.6090    0.0190 ha        1 51U      0.131000
     34 H23         4.6420    2.3810   -1.5590 ha        1 51U      0.131000
     35 H19         7.5970   -1.1190    0.4210 ha        1 51U      0.134500
     36 H22         7.0500    2.8690   -1.1510 ha        1 51U      0.134500
     37 H20         8.5320    1.1210   -0.1620 ha        1 51U      0.135000
     38 H7         -0.9450   -1.4890   -1.1830 h1        1 51U      0.085700
     39 H6         -0.5840   -3.7780   -1.1240 hc        1 51U      0.075200
     40 H6A        -1.5050   -3.8260    0.4350 hc        1 51U      0.075200
     41 H5          1.3090   -4.4050    0.0850 hc        1 51U      0.057700
     42 H5A         0.4530   -4.1580    1.6580 hc        1 51U      0.057700
     43 H4          2.4000   -2.3720    0.3400 h1        1 51U      0.048700
     44 H4A         1.5750   -2.1490    1.9510 h1        1 51U      0.048700
     45 HN3        -1.5260    0.6220    0.3090 hn        1 51U      0.336500
     46 H9         -3.5170   -0.1390    2.3830 h1        1 51U      0.066700
     47 H9A        -2.8140    1.5270    2.0950 h1        1 51U      0.066700
     48 H11        -4.9260   -1.1540    0.4930 ha        1 51U      0.153000
     49 H13        -8.0640   -1.0060   -0.3790 hc        1 51U      0.044033
     50 H13A       -7.5230   -0.6930   -2.0800 hc        1 51U      0.044033
     51 H13B       -6.6290   -1.8870   -1.0480 hc        1 51U      0.044033
     52 H14        -7.4620    1.7500   -1.4820 ha        1 51U      0.129000
     53 H15        -6.0050    3.5860   -0.6360 ha        1 51U      0.129000
     54 H16        -4.0150    3.0620    0.7680 ha        1 51U      0.130000
@<TRIPOS>BOND
     1    1    2 1   
     2    1   28 1   
     3    1   29 1   
     4    2    3 1   
     5    2    5 1   
     6    2   30 1   
     7    3    4 2   
     8    3   12 1   
     9    5    6 1   
    10    5   31 1   
    11    5   32 1   
    12    6    7 ar  
    13    6    8 ar  
    14    7    9 ar  
    15    7   33 1   
    16    8   10 ar  
    17    8   34 1   
    18    9   11 ar  
    19    9   35 1   
    20   10   11 ar  
    21   10   36 1   
    22   11   37 1   
    23   12   13 1   
    24   12   18 1   
    25   13   14 1   
    26   13   16 1   
    27   13   38 1   
    28   14   15 2   
    29   14   19 1   
    30   16   17 1   
    31   16   39 1   
    32   16   40 1   
    33   17   18 1   
    34   17   41 1   
    35   17   42 1   
    36   18   43 1   
    37   18   44 1   
    38   19   20 1   
    39   19   45 1   
    40   20   21 1   
    41   20   46 1   
    42   20   47 1   
    43   21   22 ar  
    44   21   27 ar  
    45   22   23 ar  
    46   22   48 1   
    47   23   24 1   
    48   23   25 ar  
    49   24   49 1   
    50   24   50 1   
    51   24   51 1   
    52   25   26 ar  
    53   25   52 1   
    54   26   27 ar  
    55   26   53 1   
    56   27   54 1   
@<TRIPOS>SUBSTRUCTURE
     1 51U         1 TEMP              0 ****  ****    0 ROOT
