@<TRIPOS>MOLECULE
51U
   54    52     1     0     0
SMALL
bcc


@<TRIPOS>ATOM
      1 N1         -1.4540    1.5020    1.5030 n3        1 51U     -0.337000
      2 C2         -0.0310    1.4800    1.4970 c3        1 51U     -0.049000
      3 C3          0.4950    2.7400    0.8230 c2        1 51U      0.317000
      4 O1          0.5670    3.7790    1.4530 o         1 51U     -0.377000
      5 C1          0.4800    1.4230    2.9270 c3        1 51U     -0.153000
      6 C17        -0.6920    1.7990    3.9100 c2        1 51U     -0.088000
      7 C18        -0.7120    3.0390    4.5390 c1        1 51U     -0.113000
      8 C23        -1.6760    0.8670    4.1840 c2        1 51U     -0.140000
      9 C19        -1.7290    3.3400    5.4460 c1        1 51U     -0.130000
     10 C22        -2.6850    1.1650    5.0840 c1        1 51U     -0.134000
     11 C20        -2.7120    2.4030    5.7160 c1        1 51U     -0.130000
     12 N2          0.7470    2.7410   -0.5900 n         1 51U     -0.312000
     13 C7          0.7020    1.6870   -1.4200 c3        1 51U      0.031000
     14 C8          1.0490    0.3750   -0.7710 c2        1 51U      0.289000
     15 O2          1.9090    0.3300    0.0780 o         1 51U     -0.374000
     16 C6          1.7540    2.1320   -2.6610 c3        1 51U     -0.163000
     17 C5          1.5930    3.3890   -2.8500 c3        1 51U     -0.167000
     18 C4          1.1150    3.9640   -1.4700 c3        1 51U     -0.023000
     19 N3          0.4350   -0.8670   -1.2610 n         1 51U     -0.370000
     20 C9          1.0140   -2.1640   -0.8960 c3        1 51U      0.010000
     21 C10         0.2980   -3.2760   -1.6580 c2        1 51U     -0.100000
     22 C11         0.9990   -4.0350   -2.6060 c2        1 51U     -0.113000
     23 C12         0.3650   -5.0950   -3.2580 c1        1 51U     -0.068000
     24 C13         1.0980   -5.8750   -4.3410 c2        1 51U     -0.181000
     25 C14        -0.9620   -5.3980   -2.9690 c2        1 51U     -0.126000
     26 C15        -1.6660   -4.6450   -2.0240 c1        1 51U     -0.127000
     27 C16        -1.0360   -3.5820   -1.3670 c1        1 51U     -0.131000
     28 HN1        -1.7650    1.8020    0.6810 hn        1 51U      0.151000
     29 HN1A       -1.7820    0.6360    1.6650 hn        1 51U      0.151000
     30 H2          0.2850    0.6840    1.0020 h1        1 51U      0.127000
     31 H1          0.7970    0.5060    3.1260 hc        1 51U      0.109000
     32 H1A         1.2030    2.0400    3.0350 hc        1 51U      0.109000
     33 H18        -0.0290    3.6880    4.3470 ha        1 51U      0.163000
     34 H23        -1.6600    0.0070    3.7480 ha        1 51U      0.125000
     35 H19        -1.7480    4.2320    5.9020 ha        1 51U      0.132500
     36 H22        -3.3980    0.4850    5.2800 ha        1 51U      0.130000
     37 H20        -3.4380    2.6130    6.3620 ha        1 51U      0.132500
     38 H7         -0.1680    1.5210   -1.7350 h1        1 51U      0.114000
     39 H6          2.6960    1.9460   -2.3940 hc        1 51U      0.101000
     40 H6A         1.5320    1.6410   -3.4800 hc        1 51U      0.101000
     41 H5          2.4180    3.7930   -3.1080 hc        1 51U      0.094500
     42 H5A         0.9070    3.5430   -3.5380 hc        1 51U      0.094500
     43 H4          0.2980    4.5600   -1.6020 h1        1 51U      0.098500
     44 H4A         1.8560    4.4870   -1.0400 h1        1 51U      0.098500
     45 HN3        -0.3220   -0.8280   -1.8560 hn        1 51U      0.233000
     46 H9          0.9090   -2.3080    0.0630 h1        1 51U      0.104500
     47 H9A         2.0060   -2.1740   -1.1340 h1        1 51U      0.104500
     48 H11         2.0170   -3.8900   -2.7280 ha        1 51U      0.139000
     49 H13         1.7740   -6.4530   -3.9240 ha        1 51U      0.085333
     50 H13A        0.4550   -6.4290   -4.8380 ha        1 51U      0.085333
     51 H13B        1.5250   -5.2660   -4.9430 ha        1 51U      0.085333
     52 H14        -1.4150   -6.1630   -3.4420 ha        1 51U      0.133000
     53 H15        -2.6540   -4.8740   -1.8100 ha        1 51U      0.132000
     54 H16        -1.5640   -3.0160   -0.6570 ha        1 51U      0.128000
@<TRIPOS>BOND
     1    1    2 1   
     2    1   28 1   
     3    1   29 1   
     4    2    3 1   
     5    2    5 1   
     6    2   30 1   
     7    3    4 1   
     8    3   12 1   
     9    5    6 1   
    10    5   31 1   
    11    5   32 1   
    12    6    7 1   
    13    6    8 1   
    14    7   33 1   
    15    8   10 1   
    16    8   34 1   
    17    9   11 1   
    18    9   35 1   
    19   10   36 1   
    20   11   37 1   
    21   12   13 1   
    22   12   18 1   
    23   13   14 1   
    24   13   16 1   
    25   13   38 1   
    26   14   15 1   
    27   14   19 1   
    28   16   17 1   
    29   16   39 1   
    30   16   40 1   
    31   17   18 1   
    32   17   41 1   
    33   17   42 1   
    34   18   43 1   
    35   18   44 1   
    36   19   20 1   
    37   19   45 1   
    38   20   21 1   
    39   20   46 1   
    40   20   47 1   
    41   21   22 1   
    42   21   27 1   
    43   22   23 1   
    44   22   48 1   
    45   23   25 1   
    46   24   49 1   
    47   24   50 1   
    48   24   51 1   
    49   25   26 1   
    50   25   52 1   
    51   26   53 1   
    52   27   54 1   
@<TRIPOS>SUBSTRUCTURE
     1 51U         1 TEMP              0 ****  ****    0 ROOT
