@<TRIPOS>MOLECULE
51W
   52    52     1     0     0
SMALL
bcc


@<TRIPOS>ATOM
      1 N12        -0.7220    0.1260   -0.1130 n7        1 51W     -0.115000
      2 C13         0.5520   -0.4550   -0.1550 c2        1 51W      0.043000
      3 C15         2.6530   -0.3530   -1.3560 c2        1 51W      0.101000
      4 C20         6.0800    0.5110   -6.9250 c3        1 51W     -0.184000
      5 C21         6.4120    0.2710   -5.4670 c3        1 51W     -0.200000
      6 C22         5.3190    0.1430   -4.4890 c1        1 51W     -0.125000
      7 C24         3.4030   -0.3570   -0.0090 c3        1 51W     -0.128000
      8 C26         1.3070   -0.9190    0.8530 c1        1 51W     -0.098000
      9 N01        -5.8960   -0.8100    1.9230 n9        1 51W     -0.439000
     10 C02        -7.2860    2.4770   -0.6850 c3        1 51W     -0.225000
     11 C03        -6.9380    2.0520    0.7220 c3        1 51W     -0.201000
     12 C04        -5.5170    1.6050    0.7950 c2        1 51W      0.214000
     13 C06        -3.2990    1.5470    1.8720 c2        1 51W      0.123000
     14 C07        -2.6490    1.7510    3.2190 c3        1 51W     -0.360000
     15 I08        -2.3220    3.7530    3.6420 i         1 51W      0.199000
     16 C09        -1.2990    1.1010    3.2900 c1        1 51W     -0.054000
     17 N10        -0.7100    0.5440    2.2760 n2        1 51W     -0.207000
     18 C11        -1.3330    0.5590    1.0200 c2        1 51W      0.231000
     19 C14         1.2870   -0.4930   -1.4330 c2        1 51W     -0.244000
     20 N16         3.4780   -0.1840   -2.4610 ns        1 51W     -0.293000
     21 N18         4.0340    0.2230   -4.7910 ns        1 51W     -0.221000
     22 C19         5.6720    1.9340   -7.2080 c3        1 51W     -0.216000
     23 O23         1.8390    0.1850   -4.0910 o         1 51W     -0.359000
     24 C25         2.6010   -1.1300    0.9990 c2        1 51W     -0.087000
     25 N27        -2.7040    1.0190    0.8360 n2        1 51W     -0.252000
     26 H121       -1.1790    0.2260   -1.0020 hn        1 51W      0.270000
     27 H201        6.4850    2.6430   -6.9140 hc        1 51W      0.076667
     28 H202        4.7490    2.2130   -6.6460 hc        1 51W      0.076667
     29 H211        5.2740   -0.1920   -7.2620 hc        1 51W      0.086500
     30 H212        6.9900    0.2700   -7.5400 hc        1 51W      0.086500
     31 H222        7.0060   -0.6830   -5.3710 hc        1 51W      0.134000
     32 H221        7.0720    1.1010   -5.0850 hc        1 51W      0.134000
     33 H241        4.4020   -0.8620   -0.1070 hc        1 51W      0.133500
     34 H261        3.0890   -1.8380    1.6740 ha        1 51W      0.178000
     35 H012       -8.3690    2.7570   -0.7260 hc        1 51W      0.108333
     36 H011       -5.5220   -0.9270    2.8440 hn        1 51W      0.151667
     37 H022       -6.8720   -1.0300    1.9520 hn        1 51W      0.151667
     38 H021       -5.4450   -1.4650    1.3150 hn        1 51W      0.151667
     39 H031       -6.6840    3.3650   -0.9970 hc        1 51W      0.108333
     40 H032       -7.1100    1.6490   -1.4140 hc        1 51W      0.108333
     41 H042       -7.5760    1.1690    1.0210 hc        1 51W      0.147500
     42 H041       -7.1670    2.8840    1.4430 hc        1 51W      0.147500
     43 H051       -5.0170    2.4910    2.5440 hn        1 51W      0.279000
     44 H091       -3.2760    1.3350    4.0500 h1        1 51W      0.186000
     45 H141        0.7360   -0.5640   -2.3800 ha        1 51W      0.182000
     46 H161        4.4740   -0.2230   -2.3180 hn        1 51W      0.286000
     47 H191        5.4700    2.0670   -8.2990 hc        1 51W      0.076667
     48 H192        3.6410    0.3900   -5.7020 hn        1 51W      0.212000
     49 H251        3.5820    0.7090    0.2940 hc        1 51W      0.133500
     50 H013       -5.1440    0.9780   -0.0510 h4        1 51W      0.214000
     51 N05        -4.6930    1.9350    1.7660 n7        1 51W     -0.134000
     52 C17         3.0380    0.0740   -3.7640 c2        1 51W      0.413000
@<TRIPOS>BOND
     1    1    2 1   
     2    1   18 1   
     3    1   26 1   
     4    2    8 1   
     5    2   19 1   
     6    3    7 1   
     7    3   19 1   
     8    3   20 1   
     9    4    5 1   
    10    4   22 1   
    11    4   29 1   
    12    4   30 1   
    13    5    6 1   
    14    5   31 1   
    15    5   32 1   
    16    6   21 1   
    17    7   24 1   
    18    7   33 1   
    19    7   49 1   
    20    8   24 1   
    21    9   36 1   
    22    9   37 1   
    23    9   38 1   
    24   10   11 1   
    25   10   35 1   
    26   10   39 1   
    27   10   40 1   
    28   11   12 1   
    29   11   41 1   
    30   11   42 1   
    31   12   50 1   
    32   12   51 1   
    33   13   14 1   
    34   13   25 1   
    35   13   51 1   
    36   14   15 1   
    37   14   16 1   
    38   14   44 1   
    39   16   17 1   
    40   17   18 1   
    41   18   25 1   
    42   19   45 1   
    43   20   46 1   
    44   20   52 1   
    45   21   48 1   
    46   21   52 1   
    47   22   27 1   
    48   22   28 1   
    49   22   47 1   
    50   23   52 1   
    51   24   34 1   
    52   43   51 1   
@<TRIPOS>SUBSTRUCTURE
     1 51W         1 TEMP              0 ****  ****    0 ROOT
