@<TRIPOS>MOLECULE
51W
   52    54     1     0     0
SMALL
bcc


@<TRIPOS>ATOM
      1 N12         0.0650   -0.2090    0.4710 nh        1 51W     -0.696300
      2 C13         1.4810   -0.1950    0.3530 ca        1 51W      0.133600
      3 C15         3.4400   -0.0870   -1.1040 ca        1 51W      0.090600
      4 C20         4.6430    0.9350   -6.9810 c3        1 51W     -0.091400
      5 C21         5.8650    0.2880   -6.3380 c3        1 51W     -0.091400
      6 C22         5.5780    0.2200   -4.8290 c3        1 51W      0.073000
      7 C24         4.2630   -0.2860    0.0350 ca        1 51W     -0.181000
      8 C26         2.3090   -0.4080    1.4670 ca        1 51W     -0.126000
      9 N01        -8.2610    0.0570   -0.3790 n4        1 51W     -0.839600
     10 C02        -6.7980    0.3330   -0.5080 c3        1 51W      0.101800
     11 C03        -6.2360    1.0550    0.7080 c3        1 51W     -0.130400
     12 C04        -4.7220    1.2300    0.4940 c3        1 51W      0.212800
     13 C06        -2.6950    1.6620    1.8370 ca        1 51W      0.729200
     14 C07        -2.0760    2.3710    2.9110 ca        1 51W     -0.327700
     15 I08        -3.0570    3.5920    4.1620 i         1 51W     -0.108900
     16 C09        -0.6900    2.1710    3.0700 ca        1 51W      0.525200
     17 N10         0.0510    1.3750    2.2970 nb        1 51W     -0.736000
     18 C11        -0.6230    0.7130    1.2700 ca        1 51W      0.925900
     19 C14         2.0460   -0.0420   -0.9320 ca        1 51W     -0.185000
     20 N16         4.0620    0.0040   -2.3620 n         1 51W     -0.460100
     21 N18         4.3390    0.9410   -4.5760 n         1 51W     -0.444800
     22 C19         3.7170    1.3560   -5.8300 c3        1 51W      0.073000
     23 O23         2.2660    0.8800   -3.5700 o         1 51W     -0.636100
     24 C25         3.6910   -0.4460    1.2880 ca        1 51W     -0.094000
     25 N27        -1.9780    0.8570    1.0010 nb        1 51W     -0.830000
     26 H121       -0.4110   -0.4880   -0.3650 hn        1 51W      0.441800
     27 H201        4.1180    0.2160   -7.6560 hc        1 51W      0.057450
     28 H202        4.9340    1.8260   -7.5890 hc        1 51W      0.057450
     29 H211        6.0400   -0.7380   -6.7460 hc        1 51W      0.057450
     30 H212        6.7840    0.8950   -6.5290 hc        1 51W      0.057450
     31 H222        6.4020    0.7160   -4.2450 h1        1 51W      0.054700
     32 H221        5.5150   -0.8560   -4.5030 h1        1 51W      0.054700
     33 H241        5.3590   -0.3190   -0.0640 ha        1 51W      0.137000
     34 H261        1.8880   -0.5410    2.4740 ha        1 51W      0.155000
     35 H012       -8.6010   -0.4320   -1.2120 hn        1 51W      0.462800
     36 H011       -8.7770    0.9360   -0.2710 hn        1 51W      0.462800
     37 H022       -6.2750   -0.6590   -0.6470 hx        1 51W      0.116700
     38 H021       -6.6460    0.9560   -1.4370 hx        1 51W      0.116700
     39 H031       -6.7240    2.0570    0.8330 hc        1 51W      0.077200
     40 H032       -6.4180    0.4590    1.6420 hc        1 51W      0.077200
     41 H042       -4.5640    1.8940   -0.4060 h1        1 51W      0.064700
     42 H041       -4.2770    0.2200    0.2600 h1        1 51W      0.064700
     43 H051       -4.4660    2.6380    1.9840 hn        1 51W      0.426800
     44 H091       -0.1320    2.6890    3.8770 h4        1 51W      0.049100
     45 H141        1.3890    0.1190   -1.8040 ha        1 51W      0.175000
     46 H161        5.0580   -0.0570   -2.3320 hn        1 51W      0.316500
     47 H191        2.6930    0.9040   -5.9450 h1        1 51W      0.054700
     48 H192        3.5980    2.4740   -5.7950 h1        1 51W      0.054700
     49 H251        4.3410   -0.6050    2.1620 ha        1 51W      0.142000
     50 H013       -8.4360   -0.5260    0.4470 hn        1 51W      0.462800
     51 N05        -4.0900    1.7660    1.6690 nh        1 51W     -0.851900
     52 C17         3.4880    0.6040   -3.5020 c         1 51W      0.764100
@<TRIPOS>BOND
     1    1    2 1   
     2    1   18 1   
     3    1   26 1   
     4    2    8 ar  
     5    2   19 ar  
     6    3    7 ar  
     7    3   19 ar  
     8    3   20 1   
     9    4    5 1   
    10    4   22 1   
    11    4   27 1   
    12    4   28 1   
    13    5    6 1   
    14    5   29 1   
    15    5   30 1   
    16    6   21 1   
    17    6   31 1   
    18    6   32 1   
    19    7   24 ar  
    20    7   33 1   
    21    8   24 ar  
    22    8   34 1   
    23    9   10 1   
    24    9   35 1   
    25    9   36 1   
    26    9   50 1   
    27   10   11 1   
    28   10   37 1   
    29   10   38 1   
    30   11   12 1   
    31   11   39 1   
    32   11   40 1   
    33   12   41 1   
    34   12   42 1   
    35   12   51 1   
    36   13   14 ar  
    37   13   25 ar  
    38   13   51 1   
    39   14   15 1   
    40   14   16 ar  
    41   16   17 ar  
    42   16   44 1   
    43   17   18 ar  
    44   18   25 ar  
    45   19   45 1   
    46   20   46 1   
    47   20   52 1   
    48   21   22 1   
    49   21   52 1   
    50   22   47 1   
    51   22   48 1   
    52   23   52 2   
    53   24   49 1   
    54   43   51 1   
@<TRIPOS>SUBSTRUCTURE
     1 51W         1 TEMP              0 ****  ****    0 ROOT
