@<TRIPOS>MOLECULE
51X
   21    22     1     0     0
SMALL
bcc


@<TRIPOS>ATOM
      1 C3         -0.0910    0.0060    0.2420 c         1 51X      0.907600
      2 C4          1.4530    0.0070    0.0120 c3        1 51X     -0.057000
      3 C5          2.4480    1.1690    1.9940 c         1 51X      0.725100
      4 C6          2.8080    0.7100    3.3830 ca        1 51X     -0.126600
      5 C7          3.0920    1.4190    4.5310 ca        1 51X     -0.079000
      6 C8          3.3810    0.6900    5.6990 ca        1 51X     -0.135000
      7 C9          3.3810   -0.7000    5.6970 ca        1 51X     -0.135000
      8 C10         3.0910   -1.4230    4.5260 ca        1 51X     -0.079000
      9 C11         2.8070   -0.7110    3.3810 ca        1 51X     -0.126600
     10 C12         2.4470   -1.1640    1.9900 c         1 51X      0.725100
     11 O          -0.5410    0.0040    1.4180 o         1 51X     -0.828300
     12 N1          2.2910    0.0040    1.1880 n         1 51X     -0.448400
     13 H4          1.7120    0.9260   -0.5800 h1        1 51X      0.058700
     14 H5          1.7120   -0.9110   -0.5840 h1        1 51X      0.058700
     15 H6          3.0840    2.5180    4.5360 ha        1 51X      0.147000
     16 H7          3.6030    1.2360    6.6280 ha        1 51X      0.123000
     17 H8          3.6030   -1.2490    6.6230 ha        1 51X      0.123000
     18 H9          3.0830   -2.5230    4.5270 ha        1 51X      0.147000
     19 OXT        -0.7840    0.0090   -0.8110 o         1 51X     -0.828300
     20 O1          2.4000   -2.3320    1.5940 o         1 51X     -0.586500
     21 O2          2.4010    2.3390    1.6030 o         1 51X     -0.586500
@<TRIPOS>BOND
     1    1    2 1   
     2    1   11 1   
     3    1   19 1   
     4    2   12 1   
     5    2   13 1   
     6    2   14 1   
     7    3    4 1   
     8    3   12 1   
     9    3   21 2   
    10    4    5 ar  
    11    4    9 ar  
    12    5    6 ar  
    13    5   15 1   
    14    6    7 ar  
    15    6   16 1   
    16    7    8 ar  
    17    7   17 1   
    18    8    9 ar  
    19    8   18 1   
    20    9   10 1   
    21   10   12 1   
    22   10   20 2   
@<TRIPOS>SUBSTRUCTURE
     1 51X         1 TEMP              0 ****  ****    0 ROOT
