@<TRIPOS>MOLECULE
51X
   21    21     1     0     0
SMALL
bcc


@<TRIPOS>ATOM
      1 C3         -0.8240    1.6240    0.4670 c1        1 51X      0.473000
      2 C4          2.0940   -0.7500   -0.2550 c2        1 51X     -0.026000
      3 C5          1.9390    0.5950    1.8400 c2        1 51X      0.197000
      4 C6          2.3850    0.3190    3.1120 c2        1 51X     -0.288000
      5 C7          2.2510    1.1450    4.3190 c3        1 51X     -0.105000
      6 C8          2.8260    0.6030    5.5450 c1        1 51X     -0.127000
      7 C9          3.4980   -0.6950    5.5660 c3        1 51X     -0.202000
      8 C10         3.6190   -1.5050    4.3340 c1        1 51X     -0.257000
      9 C11         3.0770   -0.9830    3.2030 c2        1 51X     -0.270000
     10 C12         3.0740   -1.5830    1.8990 c2        1 51X      0.375000
     11 O          -1.2180    2.3770    1.3010 o         1 51X     -0.255000
     12 N1          2.3380   -0.5930    0.9950 n         1 51X     -0.129000
     13 H4          1.5310    0.0280   -0.8100 h4        1 51X      0.155000
     14 H5          2.4290   -1.6620   -0.7850 h4        1 51X      0.155000
     15 H6          1.1610    1.3540    4.5360 hc        1 51X      0.110500
     16 H7          2.7260    2.1590    4.1580 hc        1 51X      0.110500
     17 H8          4.5380   -0.5150    5.9690 hc        1 51X      0.121000
     18 H9          2.9700   -1.3210    6.3440 hc        1 51X      0.121000
     19 OXT        -0.5890    0.8820   -0.4400 o         1 51X     -0.255000
     20 O1          3.4820   -2.6160    1.3610 o         1 51X     -0.358000
     21 O2          1.3390    1.5400    1.2390 o         1 51X     -0.548000
@<TRIPOS>BOND
     1    1   11 1   
     2    1   19 1   
     3    2   12 1   
     4    2   13 1   
     5    2   14 1   
     6    3    4 1   
     7    3   12 1   
     8    3   21 1   
     9    4    5 1   
    10    4    9 1   
    11    5    6 1   
    12    5   15 1   
    13    5   16 1   
    14    6    7 1   
    15    7    8 1   
    16    7   17 1   
    17    7   18 1   
    18    8    9 1   
    19    9   10 1   
    20   10   12 1   
    21   10   20 1   
@<TRIPOS>SUBSTRUCTURE
     1 51X         1 TEMP              0 ****  ****    0 ROOT
