@<TRIPOS>MOLECULE
520
   42    44     1     0     0
SMALL
bcc


@<TRIPOS>ATOM
      1 C3          0.0350    0.0860   -0.0050 ca        1 520     -0.030000
      2 C2          1.4120    0.2240    0.0120 ca        1 520     -0.223500
      3 C1          2.1250    0.1650    1.2390 ca        1 520      0.217600
      4 N1          3.5030    0.2270    1.2610 nv        1 520     -0.845200
      5 C6          1.3850   -0.0230    2.4370 ca        1 520     -0.223500
      6 C5          0.0080   -0.1690    2.3960 ca        1 520     -0.030000
      7 C4         -0.6880   -0.1250    1.1810 ca        1 520     -0.246600
      8 C7         -2.1470   -0.2530    1.1060 c         1 520      0.588300
      9 O1         -2.8050    0.1570    0.1410 o         1 520     -0.519100
     10 C16        -2.8500   -0.9160    2.2420 ca        1 520     -0.102600
     11 C17        -4.0540   -0.3720    2.7070 ca        1 520     -0.096000
     12 C18        -4.7590   -1.0010    3.7280 ca        1 520     -0.096000
     13 C15        -2.3590   -2.0970    2.8080 ca        1 520     -0.096000
     14 C14        -3.0610   -2.7280    3.8320 ca        1 520     -0.096000
     15 C19        -4.2710   -2.1880    4.3010 cp        1 520     -0.109000
     16 C10        -5.0160   -2.8570    5.3540 cp        1 520      0.143000
     17 C9         -4.3490   -3.5530    6.3840 ca        1 520     -0.159500
     18 C8         -5.0620   -4.1950    7.3760 ca        1 520      0.019500
     19 C13        -6.4790   -4.1800    7.4020 ca        1 520     -0.593500
     20 O3         -8.6310   -5.1890    8.2210 o         1 520     -0.571800
     21 O2         -6.5670   -5.8920    9.2400 o         1 520     -0.571800
     22 C12        -7.1350   -3.4810    6.3580 ca        1 520      0.019500
     23 C11        -6.4270   -2.8340    5.3650 ca        1 520     -0.159500
     24 S2         -7.2940   -4.9910    8.4910 sy        1 520      1.503200
     25 N2         -7.4590   -3.5680    9.8050 nz        1 520     -0.783500
     26 H1         -0.5140    0.1450   -0.9610 ha        1 520      0.142000
     27 H2          1.9530    0.3790   -0.9330 ha        1 520      0.141500
     28 H3          3.9610    0.5660    0.4500 hn        1 520      0.421300
     29 H4          3.9420    0.4140    2.1300 hn        1 520      0.421300
     30 H5          1.9050   -0.0550    3.4060 ha        1 520      0.141500
     31 H6         -0.5450   -0.3090    3.3390 ha        1 520      0.142000
     32 H7         -4.4460    0.5490    2.2430 ha        1 520      0.167000
     33 H8         -5.7000   -0.5570    4.0890 ha        1 520      0.140500
     34 H9         -1.4160   -2.5310    2.4370 ha        1 520      0.167000
     35 H10        -2.6730   -3.6670    4.2550 ha        1 520      0.140500
     36 H11        -3.2450   -3.5820    6.3950 ha        1 520      0.176500
     37 H12        -4.5190   -4.7520    8.1650 ha        1 520      0.165500
     38 H13        -8.2410   -3.4770    6.3300 ha        1 520      0.165500
     39 H14        -6.9690   -2.3130    4.5550 ha        1 520      0.176500
     40 H15        -8.4400   -3.3700    9.9850 hn        1 520      0.451467
     41 H16        -7.0300   -3.8500   10.6830 hn        1 520      0.451467
     42 H23        -7.0150   -2.7090    9.4980 hn        1 520      0.451467
@<TRIPOS>BOND
     1    1    2 ar  
     2    1    7 ar  
     3    1   26 1   
     4    2    3 ar  
     5    2   27 1   
     6    3    4 1   
     7    3    5 ar  
     8    4   28 1   
     9    4   29 1   
    10    5    6 ar  
    11    5   30 1   
    12    6    7 ar  
    13    6   31 1   
    14    7    8 1   
    15    8    9 2   
    16    8   10 1   
    17   10   11 ar  
    18   10   13 ar  
    19   11   12 ar  
    20   11   32 1   
    21   12   15 ar  
    22   12   33 1   
    23   13   14 ar  
    24   13   34 1   
    25   14   15 ar  
    26   14   35 1   
    27   15   16 1   
    28   16   17 ar  
    29   16   23 ar  
    30   17   18 ar  
    31   17   36 1   
    32   18   19 ar  
    33   18   37 1   
    34   19   22 ar  
    35   19   24 1   
    36   20   24 2   
    37   21   24 2   
    38   22   23 ar  
    39   22   38 1   
    40   23   39 1   
    41   24   25 1   
    42   25   40 1   
    43   25   41 1   
    44   25   42 1   
@<TRIPOS>SUBSTRUCTURE
     1 520         1 TEMP              0 ****  ****    0 ROOT
