@<TRIPOS>MOLECULE
520
   42    44     1     0     0
SMALL
bcc


@<TRIPOS>ATOM
      1 C3          0.0320    0.0860   -0.0060 ca        1 520     -0.030000
      2 C2          1.4100    0.2200    0.0090 ca        1 520     -0.223500
      3 C1          2.1250    0.1550    1.2340 ca        1 520      0.217600
      4 N1          3.5030    0.2130    1.2540 nh        1 520     -0.845200
      5 C6          1.3860   -0.0340    2.4330 ca        1 520     -0.223500
      6 C5          0.0090   -0.1760    2.3950 ca        1 520     -0.030000
      7 C4         -0.6890   -0.1260    1.1810 ca        1 520     -0.246600
      8 C7         -2.1480   -0.2500    1.1090 c         1 520      0.588300
      9 O1         -2.8070    0.1650    0.1450 o         1 520     -0.519100
     10 C16        -2.8510   -0.9130    2.2440 ca        1 520     -0.102600
     11 C17        -4.0520   -0.3670    2.7130 ca        1 520     -0.096000
     12 C18        -4.7580   -0.9960    3.7340 ca        1 520     -0.096000
     13 C15        -2.3630   -2.0980    2.8060 ca        1 520     -0.096000
     14 C14        -3.0650   -2.7280    3.8290 ca        1 520     -0.096000
     15 C19        -4.2720   -2.1860    4.3030 cp        1 520     -0.109000
     16 C10        -5.0170   -2.8550    5.3550 cp        1 520      0.143000
     17 C9         -4.3500   -3.5570    6.3820 ca        1 520     -0.159500
     18 C8         -5.0630   -4.1990    7.3740 ca        1 520      0.019500
     19 C13        -6.4800   -4.1780    7.4040 ca        1 520     -0.593500
     20 O3         -8.6330   -5.1820    8.2250 o         1 520     -0.571800
     21 O2         -6.5690   -5.8950    9.2370 o         1 520     -0.571800
     22 C12        -7.1350   -3.4740    6.3630 ca        1 520      0.019500
     23 C11        -6.4280   -2.8260    5.3700 ca        1 520     -0.159500
     24 S2         -7.2950   -4.9900    8.4930 sy        1 520      1.503200
     25 N2         -7.4510   -3.5700    9.8100 n4        1 520     -0.783500
     26 H1         -0.5180    0.1500   -0.9610 ha        1 520      0.142000
     27 H2          1.9500    0.3770   -0.9370 ha        1 520      0.141500
     28 H3          3.9440    0.3970    2.1230 hn        1 520      0.421300
     29 H4          3.9600    0.5540    0.4430 hn        1 520      0.421300
     30 H5          1.9090   -0.0700    3.4010 ha        1 520      0.141500
     31 H6         -0.5430   -0.3170    3.3380 ha        1 520      0.142000
     32 H7         -4.4420    0.5570    2.2530 ha        1 520      0.167000
     33 H8         -5.6960   -0.5500    4.0980 ha        1 520      0.140500
     34 H9         -1.4220   -2.5340    2.4310 ha        1 520      0.167000
     35 H10        -2.6790   -3.6710    4.2490 ha        1 520      0.140500
     36 H11        -3.2470   -3.5900    6.3900 ha        1 520      0.176500
     37 H12        -4.5200   -4.7610    8.1590 ha        1 520      0.165500
     38 H13        -8.2420   -3.4660    6.3380 ha        1 520      0.165500
     39 H14        -6.9690   -2.3020    4.5640 ha        1 520      0.176500
     40 H15        -7.0050   -2.7120    9.5050 hn        1 520      0.451467
     41 H16        -7.0220   -3.8560   10.6870 hn        1 520      0.451467
     42 H23        -8.4310   -3.3680    9.9940 hn        1 520      0.451467
@<TRIPOS>BOND
     1    1    2 ar  
     2    1    7 ar  
     3    1   26 1   
     4    2    3 ar  
     5    2   27 1   
     6    3    4 1   
     7    3    5 ar  
     8    4   28 1   
     9    4   29 1   
    10    5    6 ar  
    11    5   30 1   
    12    6    7 ar  
    13    6   31 1   
    14    7    8 1   
    15    8    9 2   
    16    8   10 1   
    17   10   11 ar  
    18   10   13 ar  
    19   11   12 ar  
    20   11   32 1   
    21   12   15 ar  
    22   12   33 1   
    23   13   14 ar  
    24   13   34 1   
    25   14   15 ar  
    26   14   35 1   
    27   15   16 1   
    28   16   17 ar  
    29   16   23 ar  
    30   17   18 ar  
    31   17   36 1   
    32   18   19 ar  
    33   18   37 1   
    34   19   22 ar  
    35   19   24 1   
    36   20   24 2   
    37   21   24 2   
    38   22   23 ar  
    39   22   38 1   
    40   23   39 1   
    41   24   25 1   
    42   25   40 1   
    43   25   41 1   
    44   25   42 1   
@<TRIPOS>SUBSTRUCTURE
     1 520         1 TEMP              0 ****  ****    0 ROOT
