@<TRIPOS>MOLECULE
521
   29    31     1     0     0
SMALL
bcc


@<TRIPOS>ATOM
      1 C1          2.4480   -1.0030   -0.0180 ca        1 521     -0.118000
      2 C2          1.0970   -0.9460    0.3250 ca        1 521     -0.129500
      3 C3          0.7110   -0.9900    1.6630 ca        1 521     -0.108000
      4 C4          1.6790   -1.0910    2.6740 ca        1 521     -0.024000
      5 C5          3.0360   -1.1500    2.3220 ca        1 521     -0.108000
      6 C6          3.4140   -1.1050    0.9820 ca        1 521     -0.129500
      7 C7          1.2770   -1.1220    4.0630 cc        1 521     -0.071100
      8 N1          1.2220   -2.5120    7.4600 nh        1 521     -0.662900
      9 N2          1.0000   -3.6920    9.6090 n         1 521     -0.680300
     10 C9          1.0500   -1.7480    6.3110 cd        1 521      0.113600
     11 C8          1.6440   -2.0510    5.0250 cd        1 521     -0.006600
     12 C10         0.2630   -0.6000    6.2260 cc        1 521     -0.206100
     13 S1          0.2490    0.0380    4.7060 ss        1 521      0.133200
     14 C11         2.5310   -2.6260    8.0690 c3        1 521      0.133800
     15 C12         2.3450   -3.3630    9.4160 c         1 521      0.690500
     16 O1          3.2610   -3.6190   10.1990 o         1 521     -0.561500
     17 S2          0.0070   -3.2060    8.3600 s6        1 521      1.596500
     18 O2         -0.9080   -2.2460    8.8080 o         1 521     -0.631800
     19 O3         -0.5630   -4.3170    7.7360 o         1 521     -0.631800
     20 CL1         2.6260   -3.3840    4.7650 cl        1 521     -0.039400
     21 H1          2.7500   -0.9700   -1.0750 ha        1 521      0.135000
     22 H2          0.3320   -0.8700   -0.4620 ha        1 521      0.136000
     23 H3         -0.3560   -0.9540    1.9280 ha        1 521      0.138000
     24 H5          3.8000   -1.2340    3.1090 ha        1 521      0.138000
     25 H6          4.4810   -1.1530    0.7150 ha        1 521      0.136000
     26 HN2         0.7380   -4.1760   10.4310 hn        1 521      0.362500
     27 H10        -0.2990   -0.1740    7.0610 h4        1 521      0.200000
     28 H111        2.9870   -1.6170    8.2670 h1        1 521      0.096700
     29 H112        3.2360   -3.2220    7.4250 h1        1 521      0.096700
@<TRIPOS>BOND
     1    1    2 ar  
     2    1    6 ar  
     3    1   21 1   
     4    2    3 ar  
     5    2   22 1   
     6    3    4 ar  
     7    3   23 1   
     8    4    5 ar  
     9    4    7 1   
    10    5    6 ar  
    11    5   24 1   
    12    6   25 1   
    13    7   11 2   
    14    7   13 1   
    15    8   10 1   
    16    8   14 1   
    17    8   17 1   
    18    9   15 1   
    19    9   17 1   
    20    9   26 1   
    21   10   11 1   
    22   10   12 2   
    23   11   20 1   
    24   12   13 1   
    25   12   27 1   
    26   14   15 1   
    27   14   28 1   
    28   14   29 1   
    29   15   16 2   
    30   17   18 2   
    31   17   19 2   
@<TRIPOS>SUBSTRUCTURE
     1 521         1 TEMP              0 ****  ****    0 ROOT
