@<TRIPOS>MOLECULE
521
   29    25     1     0     0
SMALL
bcc


@<TRIPOS>ATOM
      1 C1         -2.6820   -0.6770   -4.4400 c1        1 521     -0.123000
      2 C2         -1.2960   -0.7020   -4.4460 c1        1 521     -0.123000
      3 C3         -0.5990   -0.7300   -3.2490 c1        1 521     -0.123000
      4 C4         -1.2870   -0.7330   -2.0460 c1        1 521     -0.024000
      5 C5         -2.6730   -0.7070   -2.0400 c1        1 521     -0.101000
      6 C6         -3.3700   -0.6790   -3.2370 c1        1 521     -0.123000
      7 C7         -0.5900   -0.7970   -0.8490 c1        1 521     -0.341000
      8 N1          1.3940    0.5670    2.1320 n3        1 521     -0.759000
      9 N2          3.0560    1.3110    3.5790 n         1 521     -0.859000
     10 C9          0.7330   -0.2210    1.1540 c2        1 521      0.032000
     11 C8         -0.0820    0.3350   -0.0950 c1        1 521     -0.085000
     12 C10         0.6930   -1.6700    1.1160 c1        1 521     -0.476000
     13 S1         -0.1300   -2.0930   -0.1290 ss        1 521      0.673000
     14 C11         0.7450    1.0750    3.5900 c3        1 521     -0.053000
     15 C12         1.8100    1.0530    4.4380 c2        1 521      0.298000
     16 O1          1.8040    0.6430    5.5820 o         1 521     -0.286000
     17 S2          2.6060    1.1250    2.0080 s6        1 521      2.823000
     18 O2          3.5030    0.2290    1.3320 o         1 521     -0.911000
     19 O3          2.5510    2.3800    1.3120 o         1 521     -0.911000
     20 CL1        -0.3220    2.0150   -0.4920 cl        1 521      0.039000
     21 H1         -3.1730   -0.6570   -5.2840 ha        1 521      0.135750
     22 H2         -0.8120   -0.7000   -5.2940 ha        1 521      0.135750
     23 H3          0.3770   -0.7480   -3.2530 ha        1 521      0.135750
     24 H5         -3.1570   -0.7090   -1.1920 ha        1 521      0.140000
     25 H6         -4.3460   -0.6610   -3.2330 ha        1 521      0.135750
     26 HN2         3.8480    1.6550    3.8720 hn        1 521      0.276000
     27 H10         1.1100   -2.2730    1.7600 DU        1 521      0.200000
     28 H111        0.2260    1.8920    3.4430 h1        1 521      0.136000
     29 H112        0.0630    0.4770    3.9610 h1        1 521      0.136000
@<TRIPOS>BOND
     1    1    6 1   
     2    1   21 1   
     3    2    3 1   
     4    2   22 1   
     5    3   23 1   
     6    4    5 1   
     7    5   24 1   
     8    6   25 1   
     9    7   11 1   
    10    7   13 1   
    11    8   10 1   
    12    8   14 1   
    13    8   17 1   
    14    9   15 1   
    15    9   17 1   
    16    9   26 1   
    17   10   11 1   
    18   10   12 1   
    19   12   13 1   
    20   14   15 1   
    21   14   28 1   
    22   14   29 1   
    23   15   16 1   
    24   17   18 1   
    25   17   19 1   
@<TRIPOS>SUBSTRUCTURE
     1 521         1 TEMP              0 ****  ****    0 ROOT
