@<TRIPOS>MOLECULE
521
   29    31     1     0     0
SMALL
bcc


@<TRIPOS>ATOM
      1 C1         -0.4620   -0.0160    0.3560 ca        1 521     -0.118000
      2 C2          0.8880   -0.1130    0.0190 ca        1 521     -0.129500
      3 C3          1.8610   -0.0990    1.0150 ca        1 521     -0.108000
      4 C4          1.4900    0.0130    2.3640 ca        1 521     -0.024000
      5 C5          0.1310    0.1130    2.6960 ca        1 521     -0.108000
      6 C6         -0.8380    0.0970    1.6940 ca        1 521     -0.129500
      7 C7          2.5020    0.0140    3.3980 cc        1 521     -0.071100
      8 N1          4.1970    1.3530    6.3660 nh        1 521     -0.662900
      9 N2          5.4440    2.4950    8.1550 ns        1 521     -0.680300
     10 C9          3.7830    0.6020    5.2710 cd        1 521      0.113600
     11 C8          2.6610    0.9380    4.4200 cd        1 521     -0.006600
     12 C10         4.4020   -0.5650    4.8240 cc        1 521     -0.206100
     13 S1          3.6760   -1.1810    3.4780 ss        1 521      0.133200
     14 C11         3.3360    1.4930    7.5210 c3        1 521      0.133800
     15 C12         4.1580    2.2050    8.6210 c         1 521      0.690500
     16 O1          3.7290    2.4730    9.7440 o         1 521     -0.561500
     17 S2          5.7130    2.0020    6.5840 s6        1 521      1.596500
     18 O2          6.7020    1.0120    6.5450 o         1 521     -0.631800
     19 O3          5.9540    3.1070    5.7660 o         1 521     -0.631800
     20 Cl1         1.7130    2.3000    4.6550 cl        1 521     -0.039400
     21 H1         -1.2290   -0.0260   -0.4330 ha        1 521      0.135000
     22 H2          1.1880   -0.1980   -1.0360 ha        1 521      0.136000
     23 H3          2.9260   -0.1660    0.7440 ha        1 521      0.138000
     24 H5         -0.1680    0.2060    3.7510 ha        1 521      0.138000
     25 H6         -1.9020    0.1760    1.9630 ha        1 521      0.136000
     26 HN2         6.0780    2.9590    8.7550 hn        1 521      0.362500
     27 H10         5.2790   -1.0180    5.2940 h4        1 521      0.200000
     28 H111        2.4280    2.1160    7.2870 h1        1 521      0.096700
     29 H112        2.9970    0.4930    7.9100 h1        1 521      0.096700
@<TRIPOS>BOND
     1    1    2 ar  
     2    1    6 ar  
     3    1   21 1   
     4    2    3 ar  
     5    2   22 1   
     6    3    4 ar  
     7    3   23 1   
     8    4    5 ar  
     9    4    7 1   
    10    5    6 ar  
    11    5   24 1   
    12    6   25 1   
    13    7   11 2   
    14    7   13 1   
    15    8   10 1   
    16    8   14 1   
    17    8   17 1   
    18    9   15 1   
    19    9   17 1   
    20    9   26 1   
    21   10   11 1   
    22   10   12 2   
    23   11   20 1   
    24   12   13 1   
    25   12   27 1   
    26   14   15 1   
    27   14   28 1   
    28   14   29 1   
    29   15   16 2   
    30   17   18 2   
    31   17   19 2   
@<TRIPOS>SUBSTRUCTURE
     1 521         1 TEMP              0 ****  ****    0 ROOT
