@<TRIPOS>MOLECULE
521
   29    31     1     0     0
SMALL
bcc


@<TRIPOS>ATOM
      1 C1         -0.4340   -0.0260    0.3350 ca        1 521     -0.118000
      2 C2          0.9180   -0.1320    0.0110 ca        1 521     -0.129500
      3 C3          1.8830   -0.1170    1.0160 ca        1 521     -0.108000
      4 C4          1.5000    0.0050    2.3600 ca        1 521     -0.024000
      5 C5          0.1380    0.1140    2.6790 ca        1 521     -0.108000
      6 C6         -0.8210    0.0970    1.6690 ca        1 521     -0.129500
      7 C7          2.5020    0.0070    3.4030 cc        1 521     -0.071100
      8 N1          4.1780    1.3570    6.3780 nh        1 521     -0.662900
      9 N2          5.4140    2.5040    8.1700 n         1 521     -0.680300
     10 C9          3.7700    0.6010    5.2840 cd        1 521      0.113600
     11 C8          2.6570    0.9370    4.4210 cd        1 521     -0.006600
     12 C10         4.3860   -0.5730    4.8500 cc        1 521     -0.206100
     13 S1          3.6700   -1.1940    3.5020 ss        1 521      0.133200
     14 C11         3.3070    1.5080    7.5250 c3        1 521      0.133800
     15 C12         4.1230    2.2230    8.6270 c         1 521      0.690500
     16 O1          3.6850    2.5010    9.7440 o         1 521     -0.561500
     17 S2          5.6960    1.9990    6.6060 s6        1 521      1.596500
     18 O2          6.6800    1.0040    6.5820 o         1 521     -0.631800
     19 O3          5.9490    3.0960    5.7820 o         1 521     -0.631800
     20 CL1         1.7140    2.3050    4.6390 cl        1 521     -0.039400
     21 H1         -1.1940   -0.0370   -0.4610 ha        1 521      0.135000
     22 H2          1.2270   -0.2250   -1.0410 ha        1 521      0.136000
     23 H3          2.9500   -0.1910    0.7540 ha        1 521      0.138000
     24 H5         -0.1690    0.2150    3.7310 ha        1 521      0.138000
     25 H6         -1.8870    0.1830    1.9270 ha        1 521      0.136000
     26 HN2         6.0450    2.9690    8.7730 hn        1 521      0.362500
     27 H10         5.2570   -1.0270    5.3310 h4        1 521      0.200000
     28 H111        2.9600    0.5130    7.9180 h1        1 521      0.096700
     29 H112        2.4050    2.1350    7.2780 h1        1 521      0.096700
@<TRIPOS>BOND
     1    1    2 ar  
     2    1    6 ar  
     3    1   21 1   
     4    2    3 ar  
     5    2   22 1   
     6    3    4 ar  
     7    3   23 1   
     8    4    5 ar  
     9    4    7 1   
    10    5    6 ar  
    11    5   24 1   
    12    6   25 1   
    13    7   11 2   
    14    7   13 1   
    15    8   10 1   
    16    8   14 1   
    17    8   17 1   
    18    9   15 1   
    19    9   17 1   
    20    9   26 1   
    21   10   11 1   
    22   10   12 2   
    23   11   20 1   
    24   12   13 1   
    25   12   27 1   
    26   14   15 1   
    27   14   28 1   
    28   14   29 1   
    29   15   16 2   
    30   17   18 2   
    31   17   19 2   
@<TRIPOS>SUBSTRUCTURE
     1 521         1 TEMP              0 ****  ****    0 ROOT
