@<TRIPOS>MOLECULE
523
   44    45     1     0     0
SMALL
bcc


@<TRIPOS>ATOM
      1 N1          0.0000    0.0000    0.0000 n         1 523      0.080600
      2 C2          1.5820    0.0000    0.0000 c         1 523      0.628500
      3 N3          2.2110    0.0000    1.2220 ns        1 523      0.068900
      4 C4          1.5470   -0.0000    2.4390 cc        1 523     -0.175400
      5 C5          0.1920   -0.0010    2.4510 cd        1 523     -0.224800
      6 C5A        -0.6930   -0.0020    3.6630 c3        1 523      0.094100
      7 C6         -0.5530   -0.0010    1.1610 cd        1 523      0.003800
      8 O2          2.1180   -0.0000   -1.0990 o         1 523     -0.731500
      9 N4          2.3100   -0.0010    3.5780 nv        1 523     -0.428600
     10 C1'        -0.6920    0.0000   -1.2980 c3        1 523      0.232500
     11 C2'        -0.9130   -1.4400   -1.7360 c3        1 523     -0.120400
     12 C3'        -2.3370   -1.6960   -1.2940 c3        1 523      0.142100
     13 C4'        -2.9870   -0.3540   -1.5850 c3        1 523      0.124100
     14 O4'        -1.9810    0.6400   -1.3250 os        1 523     -0.286600
     15 O3'        -2.9240   -2.7480   -2.0320 oh        1 523     -0.585800
     16 C5'        -4.2070   -0.0770   -0.7250 c3        1 523      0.279400
     17 O5'        -4.7310    1.1970   -1.0640 os        1 523     -0.449200
     18 PA         -4.8280    2.3550    0.0620 p5        1 523      0.885800
     19 O1A        -5.3110    3.6670   -0.7530 o         1 523     -0.670500
     20 O2A        -5.6820    2.0120    1.2480 o         1 523     -0.670500
     21 O3A        -3.2910    2.6930    0.4280 os        1 523     -0.481800
     22 PB         -2.6460    3.8360    1.3700 p5        1 523      0.958800
     23 O1B        -2.9730    5.2180    0.5990 o         1 523     -0.678500
     24 O2B        -3.0650    3.8030    2.8100 o         1 523     -0.678500
     25 O3B        -1.0660    3.6140    1.1140 os        1 523     -0.468800
     26 PG          0.2320    4.4420    1.6040 p5        1 523      0.835900
     27 O1G         0.2670    5.8740    1.1560 o         1 523     -0.586167
     28 O2G         1.4720    3.5330    1.1090 o         1 523     -0.586167
     29 O3G         0.2210    4.2240    3.2060 o         1 523     -0.586167
     30 HN3         3.2120    0.0000    1.2350 hn        1 523      0.135500
     31 H5A1       -1.6870    0.3270    3.3850 hc        1 523      0.001033
     32 H5A2       -0.7460   -1.0040    4.0710 hc        1 523      0.001033
     33 H5A3       -0.2860    0.6710    4.4080 hc        1 523      0.001033
     34 H6         -1.6350   -0.0010    1.2040 h4        1 523      0.023800
     35 HN41        3.3040    0.0950    3.5130 hn        1 523      0.245800
     36 HN42        1.8780   -0.1530    4.4680 hn        1 523      0.245800
     37 H1'        -0.0560    0.4850   -2.0290 h2        1 523      0.052700
     38 H2'1       -0.8230   -1.5310   -2.8120 hc        1 523      0.019200
     39 H2'2       -0.2280   -2.1050   -1.2260 hc        1 523      0.019200
     40 H3'        -2.3680   -1.9060   -0.2320 h1        1 523      0.014700
     41 H4'        -3.2650   -0.3130   -2.6310 h1        1 523      0.017700
     42 HO3'       -2.9160   -3.5370   -1.5160 ho        1 523      0.366000
     43 H5'1       -4.9580   -0.8370   -0.9040 h1        1 523     -0.034800
     44 H5'2       -3.9240   -0.0870    0.3200 h1        1 523     -0.034800
@<TRIPOS>BOND
     1    1    2 1   
     2    1    7 2   
     3    1   10 1   
     4    2    3 1   
     5    2    8 2   
     6    3    4 1   
     7    3   30 1   
     8    4    5 2   
     9    4    9 1   
    10    5    6 1   
    11    5    7 1   
    12    6   31 1   
    13    6   32 1   
    14    6   33 1   
    15    7   34 1   
    16    9   35 1   
    17    9   36 1   
    18   10   11 1   
    19   10   14 1   
    20   10   37 1   
    21   11   12 1   
    22   11   38 1   
    23   11   39 1   
    24   12   13 1   
    25   12   15 1   
    26   12   40 1   
    27   13   14 1   
    28   13   16 1   
    29   13   41 1   
    30   15   42 1   
    31   16   17 1   
    32   16   43 1   
    33   16   44 1   
    34   17   18 1   
    35   18   19 1   
    36   18   20 1   
    37   18   21 1   
    38   21   22 1   
    39   22   23 1   
    40   22   24 1   
    41   22   25 1   
    42   25   26 1   
    43   26   27 1   
    44   26   28 1   
    45   26   29 1   
@<TRIPOS>SUBSTRUCTURE
     1 523         1 TEMP              0 ****  ****    0 ROOT
