@<TRIPOS>MOLECULE
523
   44    46     1     0     0
SMALL
bcc


@<TRIPOS>ATOM
      1 N1          0.6940   -2.9610   -0.1670 n         1 523     -0.380000
      2 C2         -0.3520   -3.8640    0.1790 c         1 523      0.802500
      3 N3         -0.2840   -5.2050   -0.2050 n         1 523     -0.516900
      4 C4          0.5570   -5.6250   -1.3850 c3        1 523      0.655600
      5 C5          1.7730   -4.6920   -1.5000 c2        1 523     -0.158400
      6 C5A         2.9910   -5.1580   -2.1950 c3        1 523     -0.060900
      7 C6          1.7100   -3.4290   -1.0220 c2        1 523     -0.066400
      8 O2         -1.2580   -3.4940    0.9810 o         1 523     -0.758500
      9 N4          0.9910   -7.0350   -1.1530 n3        1 523     -0.927800
     10 C1'         0.3750   -1.5420   -0.1080 c3        1 523      0.300500
     11 C2'         1.6110   -0.6110   -0.0900 c3        1 523     -0.098400
     12 C3'         1.7300   -0.1020   -1.5280 c3        1 523      0.074100
     13 C4'         0.3750   -0.4300   -2.1920 c3        1 523      0.083100
     14 O4'        -0.4370   -1.0920   -1.2100 os        1 523     -0.434600
     15 O3'         1.9580    1.3040   -1.4920 oh        1 523     -0.641800
     16 C5'         0.5210   -1.3280   -3.4330 c3        1 523      0.182400
     17 O5'         1.4220   -0.7590   -4.3230 os        1 523     -0.596200
     18 PA          2.7670   -1.6810   -4.6890 p5        1 523      1.607800
     19 O1A         3.5050   -0.8870   -5.6920 o         1 523     -0.896000
     20 O2A         3.3590   -1.9500   -3.3490 o         1 523     -0.896000
     21 O3A         2.0830   -3.0060   -5.2790 os        1 523     -0.827800
     22 PB          1.6110   -4.4140   -6.0160 p5        1 523      1.731800
     23 O1B         0.8140   -4.0720   -7.2060 o         1 523     -0.903000
     24 O2B         2.8190   -5.2560   -6.0890 o         1 523     -0.903000
     25 O3B         0.5860   -5.1240   -4.9180 os        1 523     -0.828800
     26 PG         -0.4400   -6.0030   -4.0540 p5        1 523      1.645800
     27 O1G        -1.8500   -5.7430   -4.3890 o         1 523     -0.892500
     28 O2G        -0.2880   -5.4170   -2.4740 os        1 523     -0.657200
     29 O3G         0.0770   -7.3780   -3.8490 o         1 523     -0.892500
     30 HN3        -1.1810   -5.6430   -0.1990 hn        1 523      0.290500
     31 H5A1        3.5960   -4.2820   -2.5520 hc        1 523      0.056033
     32 H5A2        2.7540   -5.7890   -3.0870 hc        1 523      0.056033
     33 H5A3        3.6140   -5.7660   -1.4900 hc        1 523      0.056033
     34 H6          2.4940   -2.6870   -1.2910 h4        1 523      0.199000
     35 HN41        0.2080   -7.6480   -1.2890 hn        1 523      0.358800
     36 HN42        1.6670   -7.2660   -1.8590 hn        1 523      0.358800
     37 H1'        -0.2820   -1.3910    0.7990 h2        1 523      0.080700
     38 H2'1        2.5430   -1.1270    0.2350 hc        1 523      0.047200
     39 H2'2        1.4120    0.2370    0.6100 hc        1 523      0.047200
     40 H3'         2.5670   -0.6200   -2.0990 h1        1 523      0.159700
     41 H4'        -0.1780    0.5120   -2.4530 h1        1 523      0.039700
     42 HO3'        2.1460    1.5460   -2.4070 ho        1 523      0.410000
     43 H5'1       -0.4900   -1.4050   -3.9220 h1        1 523      0.047700
     44 H5'2        0.8580   -2.3550   -3.1170 h1        1 523      0.047700
@<TRIPOS>BOND
     1    1    2 1   
     2    1    7 1   
     3    1   10 1   
     4    2    3 1   
     5    2    8 2   
     6    3    4 1   
     7    3   30 1   
     8    4    5 1   
     9    4    9 1   
    10    4   28 1   
    11    5    6 1   
    12    5    7 2   
    13    6   31 1   
    14    6   32 1   
    15    6   33 1   
    16    7   34 1   
    17    9   35 1   
    18    9   36 1   
    19   10   11 1   
    20   10   14 1   
    21   10   37 1   
    22   11   12 1   
    23   11   38 1   
    24   11   39 1   
    25   12   13 1   
    26   12   15 1   
    27   12   40 1   
    28   13   14 1   
    29   13   16 1   
    30   13   41 1   
    31   15   42 1   
    32   16   17 1   
    33   16   43 1   
    34   16   44 1   
    35   17   18 1   
    36   18   19 1   
    37   18   20 1   
    38   18   21 1   
    39   21   22 1   
    40   22   23 1   
    41   22   24 1   
    42   22   25 1   
    43   25   26 1   
    44   26   27 1   
    45   26   28 1   
    46   26   29 1   
@<TRIPOS>SUBSTRUCTURE
     1 523         1 TEMP              0 ****  ****    0 ROOT
