@<TRIPOS>MOLECULE
524
   62    65     1     0     0
SMALL
bcc


@<TRIPOS>ATOM
      1 C2          7.1860    0.0700    1.3020 cc        1 524     -0.115000
      2 C4          4.9650    0.8950    1.8250 cd        1 524     -0.187000
      3 C5          4.3840    0.2630    0.7380 cc        1 524      0.026400
      4 C1          6.6280   -0.5980    0.1700 cc        1 524     -0.020300
      5 C3          6.3540    0.8000    2.1060 cd        1 524     -0.096000
      6 N6          5.2070   -0.4870   -0.1000 na        1 524      0.176000
      7 N7          4.9080   -1.1910   -1.2050 nc        1 524     -0.589100
      8 C8          6.1060   -1.7210   -1.6090 cd        1 524      0.515200
      9 N9          7.1880   -1.3850   -0.7980 nd        1 524     -0.388300
     10 C14        -1.1740    0.2510   -0.9930 c3        1 524     -0.116700
     11 C15        -2.0340   -1.0300   -0.8700 c3        1 524      0.125500
     12 C16        -3.4910   -0.6190   -1.2210 c         1 524      0.603100
     13 N17        -4.5160   -0.9010   -0.3430 n         1 524     -0.455800
     14 C18        -1.6840    1.2450    0.0540 c         1 524      0.659100
     15 N19        -1.5740   -2.1020   -1.7210 n3        1 524     -0.895800
     16 O20        -3.7380   -0.1350   -2.3470 o         1 524     -0.624100
     17 O21        -1.7440    0.9170    1.2600 o         1 524     -0.631100
     18 N22        -2.0830    2.5140   -0.3340 n         1 524     -0.470800
     19 C23        -2.5580    3.4560    0.6430 c3        1 524      0.072800
     20 C27        -2.1750    2.8980   -1.7140 c3        1 524      0.072800
     21 C31        -4.3280   -1.1470    1.0710 c3        1 524      0.043000
     22 C32        -5.7000   -0.9150    1.7770 c3        1 524      0.164600
     23 C33        -6.6740   -0.4710    0.6650 c3        1 524     -0.124400
     24 C34        -5.8820   -0.4990   -0.6470 c3        1 524      0.085000
     25 F41        -5.5940    0.0290    2.7800 f         1 524     -0.231300
     26 C43         2.9060    0.4000    0.4950 c3        1 524     -0.015400
     27 C44         2.5880    1.0730   -0.8330 c3        1 524     -0.074400
     28 C45         1.0940    1.3010   -0.9480 c3        1 524     -0.081400
     29 C46         0.3240   -0.0090   -0.8220 c3        1 524     -0.045700
     30 C47         0.6750   -0.7140    0.4790 c3        1 524     -0.081400
     31 C48         2.1720   -0.9300    0.5980 c3        1 524     -0.074400
     32 H191       -2.1720   -2.9000   -1.6320 hn        1 524      0.364300
     33 H192       -1.5430   -1.8120   -2.6790 hn        1 524      0.364300
     34 H15        -1.9700   -1.3900    0.2000 h1        1 524      0.096700
     35 H341       -5.8890    0.5080   -1.1490 h1        1 524      0.060200
     36 H342       -6.3220   -1.2430   -1.3670 h1        1 524      0.060200
     37 H331       -7.5440   -1.1680    0.6130 hc        1 524      0.068200
     38 H332       -7.0580    0.5570    0.8730 hc        1 524      0.068200
     39 H32        -6.0480   -1.8790    2.2430 h1        1 524      0.062700
     40 H311       -4.0030   -2.2120    1.2220 h1        1 524      0.076200
     41 H312       -3.5480   -0.4620    1.5130 h1        1 524      0.076200
     42 H14        -1.3200    0.6520   -2.0370 hc        1 524      0.081700
     43 H231       -1.9950    4.4220    0.5350 h1        1 524      0.047367
     44 H232       -3.6520    3.6580    0.4880 h1        1 524      0.047367
     45 H233       -2.4050    3.0570    1.6810 h1        1 524      0.047367
     46 H271       -2.8410    2.1910   -2.2820 h1        1 524      0.047367
     47 H272       -2.6040    3.9320   -1.7920 h1        1 524      0.047367
     48 H273       -1.1550    2.9010   -2.1860 h1        1 524      0.047367
     49 H46         0.6460   -0.6790   -1.6720 hc        1 524      0.072700
     50 H451        0.7590    2.0120   -0.1470 hc        1 524      0.051700
     51 H452        0.8690    1.7760   -1.9390 hc        1 524      0.051700
     52 H441        3.1250    2.0540   -0.8980 hc        1 524      0.056450
     53 H442        2.9310    0.4370   -1.6890 hc        1 524      0.056450
     54 H43         2.5090    1.0690    1.3170 hc        1 524      0.064700
     55 H8          6.2070   -2.3580   -2.4950 h5        1 524      0.077800
     56 H2          8.2650   -0.0300    1.4840 ha        1 524      0.167000
     57 H3          6.7480    1.3280    2.9880 ha        1 524      0.145000
     58 H4          4.3300    1.4920    2.4980 ha        1 524      0.154000
     59 H481        2.5100   -1.6280   -0.2110 hc        1 524      0.056450
     60 H482        2.4020   -1.4110    1.5840 hc        1 524      0.056450
     61 H471        0.3020   -0.1110    1.3490 hc        1 524      0.051700
     62 H472        0.1660   -1.7120    0.5130 hc        1 524      0.051700
@<TRIPOS>BOND
     1    1    4 1   
     2    1    5 2   
     3    1   56 1   
     4    2    3 2   
     5    2    5 1   
     6    2   58 1   
     7    3    6 1   
     8    3   26 1   
     9    4    6 1   
    10    4    9 2   
    11    5   57 1   
    12    6    7 1   
    13    7    8 2   
    14    8    9 1   
    15    8   55 1   
    16   10   11 1   
    17   10   14 1   
    18   10   29 1   
    19   10   42 1   
    20   11   12 1   
    21   11   15 1   
    22   11   34 1   
    23   12   13 1   
    24   12   16 2   
    25   13   21 1   
    26   13   24 1   
    27   14   17 2   
    28   14   18 1   
    29   15   32 1   
    30   15   33 1   
    31   18   19 1   
    32   18   20 1   
    33   19   43 1   
    34   19   44 1   
    35   19   45 1   
    36   20   46 1   
    37   20   47 1   
    38   20   48 1   
    39   21   22 1   
    40   21   40 1   
    41   21   41 1   
    42   22   23 1   
    43   22   25 1   
    44   22   39 1   
    45   23   24 1   
    46   23   37 1   
    47   23   38 1   
    48   24   35 1   
    49   24   36 1   
    50   26   27 1   
    51   26   31 1   
    52   26   54 1   
    53   27   28 1   
    54   27   52 1   
    55   27   53 1   
    56   28   29 1   
    57   28   50 1   
    58   28   51 1   
    59   29   30 1   
    60   29   49 1   
    61   30   31 1   
    62   30   61 1   
    63   30   62 1   
    64   31   59 1   
    65   31   60 1   
@<TRIPOS>SUBSTRUCTURE
     1 524         1 TEMP              0 ****  ****    0 ROOT
