@<TRIPOS>MOLECULE
524
   64    67     1     0     0
SMALL
bcc


@<TRIPOS>ATOM
      1 C2          0.1010   -0.1930   -0.5620 cc        1 524     -0.074000
      2 C4         -0.0130   -0.0090    1.8570 cd        1 524     -0.143000
      3 C5          1.3630   -0.0170    1.9990 cc        1 524     -0.031600
      4 C1          1.5260   -0.2030   -0.4550 cc        1 524     -0.010300
      5 C3         -0.6410   -0.0970    0.5840 cd        1 524     -0.104000
      6 N6          2.1470   -0.1100    0.8510 na        1 524      0.172000
      7 N7          3.4850   -0.1360    0.7150 nc        1 524     -0.656100
      8 C8          3.6870   -0.2430   -0.6410 cd        1 524      0.538200
      9 N9          2.5190   -0.2860   -1.3930 nd        1 524     -0.350300
     10 C14         5.1730    0.1910    6.3870 c3        1 524     -0.150700
     11 C15         6.0770    1.4440    6.4940 c3        1 524      0.039500
     12 C16         7.0540    1.2260    7.6940 c         1 524      0.598100
     13 N17         7.2870    2.2420    8.5650 n         1 524     -0.406800
     14 C18         4.2720    0.1780    7.6110 c         1 524      0.545100
     15 N19         6.9190    1.6410    5.2720 n4        1 524     -0.829600
     16 O20         7.6580    0.1310    7.6980 o         1 524     -0.593100
     17 O21         3.7490    1.1590    8.1190 o         1 524     -0.396100
     18 N22         4.0140   -1.1720    8.2410 n4        1 524     -0.578200
     19 C23         2.6720   -1.2240    8.8880 c3        1 524      0.076100
     20 C27         5.0890   -1.4870    9.2250 c3        1 524      0.076100
     21 C31         6.3430    3.3110    8.8650 c3        1 524      0.015000
     22 C32         6.4240    3.5740   10.4050 c3        1 524      0.169600
     23 C33         7.7560    2.9310   10.8450 c3        1 524     -0.131400
     24 C34         8.2260    2.0510    9.6820 c3        1 524      0.068000
     25 F41         5.3400    3.0020   11.0410 f         1 524     -0.224300
     26 C43         1.9810    0.0710    3.3680 c3        1 524      0.001600
     27 C44         2.7740   -1.1860    3.7020 c3        1 524     -0.085400
     28 C45         3.4270   -1.0750    5.0680 c3        1 524     -0.081900
     29 C46         4.3350    0.1510    5.1050 c3        1 524     -0.095700
     30 C47         3.4930    1.4000    4.8790 c3        1 524     -0.081900
     31 C48         2.8180    1.3350    3.5220 c3        1 524     -0.085400
     32 H191        7.4910    2.4890    5.3830 hn        1 524      0.482133
     33 H192        7.5480    0.8330    5.1500 hn        1 524      0.482133
     34 H15         5.4320    2.3670    6.6200 hx        1 524      0.147700
     35 H341        8.2670    0.9650    9.9750 h1        1 524      0.090700
     36 H342        9.2490    2.3580    9.3270 h1        1 524      0.090700
     37 H331        8.5100    3.7270   11.0630 hc        1 524      0.102700
     38 H332        7.6140    2.3230   11.7740 hc        1 524      0.102700
     39 H32         6.4150    4.6810   10.6040 h1        1 524      0.110700
     40 H311        6.6580    4.2380    8.3130 h1        1 524      0.080700
     41 H312        5.2900    3.0390    8.5840 h1        1 524      0.080700
     42 H14         5.8480   -0.7200    6.3960 hc        1 524      0.124700
     43 H231        2.5370   -2.2330    9.3650 hx        1 524      0.121200
     44 H232        1.8800   -1.0590    8.1090 hx        1 524      0.121200
     45 H233        2.5980   -0.4220    9.6720 hx        1 524      0.121200
     46 H271        5.0030   -0.7930   10.1050 hx        1 524      0.121200
     47 H272        6.0970   -1.3680    8.7370 hx        1 524      0.121200
     48 H273        4.9620   -2.5480    9.5770 hx        1 524      0.121200
     49 H46         5.0500    0.0340    4.2370 hc        1 524      0.080700
     50 H451        4.0230   -2.0040    5.2660 hc        1 524      0.039200
     51 H452        2.6290   -0.9830    5.8520 hc        1 524      0.039200
     52 H441        3.5670   -1.3800    2.9340 hc        1 524      0.084200
     53 H442        2.0820   -2.0710    3.6960 hc        1 524      0.084200
     54 H43         1.1290    0.1410    4.1090 hc        1 524      0.063700
     55 H8          4.6830   -0.2940   -1.0990 h5        1 524      0.087800
     56 H2         -0.3450   -0.2640   -1.5670 ha        1 524      0.191000
     57 H3         -1.7420   -0.0850    0.5390 ha        1 524      0.168000
     58 H4         -0.6500    0.0660    2.7510 ha        1 524      0.154000
     59 H481        3.6020    1.3940    2.7230 hc        1 524      0.084200
     60 H482        2.1510    2.2310    3.4010 hc        1 524      0.084200
     61 H471        2.7240    1.4920    5.6910 hc        1 524      0.039200
     62 H472        4.1310    2.3210    4.9190 hc        1 524      0.039200
     63 H193        6.3220    1.7400    4.4400 hn        1 524      0.482133
     64 H221        4.0390   -1.8780    7.4880 hn        1 524      0.465800
@<TRIPOS>BOND
     1    1    4 1   
     2    1    5 2   
     3    1   56 1   
     4    2    3 2   
     5    2    5 1   
     6    2   58 1   
     7    3    6 1   
     8    3   26 1   
     9    4    6 1   
    10    4    9 2   
    11    5   57 1   
    12    6    7 1   
    13    7    8 2   
    14    8    9 1   
    15    8   55 1   
    16   10   11 1   
    17   10   14 1   
    18   10   29 1   
    19   10   42 1   
    20   11   12 1   
    21   11   15 1   
    22   11   34 1   
    23   12   13 1   
    24   12   16 2   
    25   13   21 1   
    26   13   24 1   
    27   14   17 2   
    28   14   18 1   
    29   15   32 1   
    30   15   33 1   
    31   15   63 1   
    32   18   19 1   
    33   18   20 1   
    34   18   64 1   
    35   19   43 1   
    36   19   44 1   
    37   19   45 1   
    38   20   46 1   
    39   20   47 1   
    40   20   48 1   
    41   21   22 1   
    42   21   40 1   
    43   21   41 1   
    44   22   23 1   
    45   22   25 1   
    46   22   39 1   
    47   23   24 1   
    48   23   37 1   
    49   23   38 1   
    50   24   35 1   
    51   24   36 1   
    52   26   27 1   
    53   26   31 1   
    54   26   54 1   
    55   27   28 1   
    56   27   52 1   
    57   27   53 1   
    58   28   29 1   
    59   28   50 1   
    60   28   51 1   
    61   29   30 1   
    62   29   49 1   
    63   30   31 1   
    64   30   61 1   
    65   30   62 1   
    66   31   59 1   
    67   31   60 1   
@<TRIPOS>SUBSTRUCTURE
     1 524         1 TEMP              0 ****  ****    0 ROOT
