@<TRIPOS>MOLECULE
524
   64    67     1     0     0
SMALL
bcc


@<TRIPOS>ATOM
      1 C2          0.0890   -0.2170   -0.5510 cc        1 524     -0.074000
      2 C4         -0.0190   -0.0420    1.8680 cd        1 524     -0.143000
      3 C5          1.3580   -0.0360    2.0060 cc        1 524     -0.031600
      4 C1          1.5150   -0.2140   -0.4490 cc        1 524     -0.010300
      5 C3         -0.6500   -0.1310    0.5970 cd        1 524     -0.104000
      6 N6          2.1390   -0.1190    0.8560 na        1 524      0.172000
      7 N7          3.4770   -0.1320    0.7150 nc        1 524     -0.656100
      8 C8          3.6750   -0.2330   -0.6420 cd        1 524      0.538200
      9 N9          2.5050   -0.2850   -1.3900 nd        1 524     -0.350300
     10 C14         5.1790    0.1970    6.3830 c3        1 524     -0.150700
     11 C15         6.0710    1.4590    6.4910 c3        1 524      0.039500
     12 C16         7.0540    1.2470    7.6870 c         1 524      0.598100
     13 N17         7.2790    2.2640    8.5610 n         1 524     -0.406800
     14 C18         4.2820    0.1720    7.6100 c         1 524      0.545100
     15 N19         6.9070    1.6670    5.2670 n4        1 524     -0.829600
     16 O20         7.6690    0.1580    7.6860 o         1 524     -0.593100
     17 O21         3.7500    1.1460    8.1220 o         1 524     -0.396100
     18 N22         4.0390   -1.1820    8.2360 n4        1 524     -0.578200
     19 C23         2.7000   -1.2500    8.8880 c3        1 524      0.076100
     20 C27         5.1200   -1.4890    9.2160 c3        1 524      0.076100
     21 C31         6.3250    3.3210    8.8670 c3        1 524      0.015000
     22 C32         6.4070    3.5790   10.4080 c3        1 524      0.169600
     23 C33         7.7470    2.9490   10.8420 c3        1 524     -0.131400
     24 C34         8.2230    2.0780    9.6740 c3        1 524      0.068000
     25 F41         5.3310    2.9930   11.0450 f         1 524     -0.224300
     26 C43         1.9790    0.0540    3.3740 c3        1 524      0.001600
     27 C44         2.7850   -1.1960    3.7020 c3        1 524     -0.085400
     28 C45         3.4410   -1.0820    5.0660 c3        1 524     -0.081900
     29 C46         4.3370    0.1530    5.1030 c3        1 524     -0.095700
     30 C47         3.4830    1.3930    4.8830 c3        1 524     -0.081900
     31 C48         2.8040    1.3260    3.5280 c3        1 524     -0.085400
     32 H191        6.3060    1.7630    4.4370 hn        1 524      0.482133
     33 H192        7.4710    2.5210    5.3790 hn        1 524      0.482133
     34 H15         5.4170    2.3750    6.6210 hx        1 524      0.147700
     35 H341        8.2770    0.9920    9.9620 h1        1 524      0.090700
     36 H342        9.2410    2.3980    9.3170 h1        1 524      0.090700
     37 H331        8.4940    3.7530   11.0600 hc        1 524      0.102200
     38 H332        7.6140    2.3360   11.7690 hc        1 524      0.102200
     39 H32         6.3870    4.6860   10.6110 h1        1 524      0.110700
     40 H311        5.2730    3.0390    8.5880 h1        1 524      0.080700
     41 H312        6.6290    4.2540    8.3180 h1        1 524      0.080700
     42 H14         5.8630   -0.7070    6.3870 hc        1 524      0.124700
     43 H231        2.6210   -0.4500    9.6750 hx        1 524      0.121200
     44 H232        1.9040   -1.0910    8.1120 hx        1 524      0.121200
     45 H233        2.5770   -2.2610    9.3630 hx        1 524      0.121200
     46 H271        6.1260   -1.3590    8.7260 hx        1 524      0.121200
     47 H272        5.0310   -0.7990   10.0980 hx        1 524      0.121200
     48 H273        5.0060   -2.5530    9.5660 hx        1 524      0.121200
     49 H46         5.0510    0.0450    4.2340 hc        1 524      0.080700
     50 H451        2.6450   -1.0000    5.8530 hc        1 524      0.039200
     51 H452        4.0470   -2.0060    5.2590 hc        1 524      0.039200
     52 H441        3.5780   -1.3810    2.9310 hc        1 524      0.084200
     53 H442        2.1020   -2.0870    3.6950 hc        1 524      0.084200
     54 H43         1.1290    0.1140    4.1170 hc        1 524      0.063700
     55 H8          4.6700   -0.2720   -1.1030 h5        1 524      0.087800
     56 H2         -0.3600   -0.2900   -1.5550 ha        1 524      0.191000
     57 H3         -1.7520   -0.1310    0.5560 ha        1 524      0.168000
     58 H4         -0.6540    0.0250    2.7650 ha        1 524      0.154000
     59 H481        2.1290    2.2160    3.4120 hc        1 524      0.084200
     60 H482        3.5850    1.3940    2.7270 hc        1 524      0.084200
     61 H471        2.7150    1.4760    5.6970 hc        1 524      0.039200
     62 H472        4.1120    2.3210    4.9230 hc        1 524      0.039200
     63 H193        7.5430    0.8660    5.1410 hn        1 524      0.482133
     64 H221        4.0690   -1.8860    7.4820 hn        1 524      0.465800
@<TRIPOS>BOND
     1    1    4 1   
     2    1    5 2   
     3    1   56 1   
     4    2    3 2   
     5    2    5 1   
     6    2   58 1   
     7    3    6 1   
     8    3   26 1   
     9    4    6 1   
    10    4    9 2   
    11    5   57 1   
    12    6    7 1   
    13    7    8 2   
    14    8    9 1   
    15    8   55 1   
    16   10   11 1   
    17   10   14 1   
    18   10   29 1   
    19   10   42 1   
    20   11   12 1   
    21   11   15 1   
    22   11   34 1   
    23   12   13 1   
    24   12   16 2   
    25   13   21 1   
    26   13   24 1   
    27   14   17 2   
    28   14   18 1   
    29   15   32 1   
    30   15   33 1   
    31   15   63 1   
    32   18   19 1   
    33   18   20 1   
    34   18   64 1   
    35   19   43 1   
    36   19   44 1   
    37   19   45 1   
    38   20   46 1   
    39   20   47 1   
    40   20   48 1   
    41   21   22 1   
    42   21   40 1   
    43   21   41 1   
    44   22   23 1   
    45   22   25 1   
    46   22   39 1   
    47   23   24 1   
    48   23   37 1   
    49   23   38 1   
    50   24   35 1   
    51   24   36 1   
    52   26   27 1   
    53   26   31 1   
    54   26   54 1   
    55   27   28 1   
    56   27   52 1   
    57   27   53 1   
    58   28   29 1   
    59   28   50 1   
    60   28   51 1   
    61   29   30 1   
    62   29   49 1   
    63   30   31 1   
    64   30   61 1   
    65   30   62 1   
    66   31   59 1   
    67   31   60 1   
@<TRIPOS>SUBSTRUCTURE
     1 524         1 TEMP              0 ****  ****    0 ROOT
