@<TRIPOS>MOLECULE
524
   62    59     1     0     0
SMALL
bcc


@<TRIPOS>ATOM
      1 C2         -0.3580    3.4460   -4.9440 c1        1 524     -0.105500
      2 C4          1.0910    2.1020   -3.6220 c1        1 524     -0.188000
      3 C5          0.9880    3.0130   -2.5790 c1        1 524      0.064000
      4 C1         -0.4620    4.3700   -3.8840 c1        1 524      0.006000
      5 C3          0.4150    2.3260   -4.8010 c1        1 524     -0.105500
      6 N6          0.2020    4.1500   -2.7250 n2        1 524     -0.062000
      7 N7         -0.0700    5.1850   -1.8820 n1        1 524     -0.146500
      8 C8         -0.9020    6.0420   -2.5240 c1        1 524     -0.119000
      9 N9         -1.1470    5.5410   -3.7610 n1        1 524     -0.146500
     10 C14         0.2300   -0.7170    0.1640 c3        1 524     -0.109000
     11 C15         0.8150   -1.6800    1.1590 c3        1 524     -0.031000
     12 C16        -0.2470   -2.7470    1.5360 c2        1 524      0.312000
     13 N17        -0.3090   -3.2650    2.9020 n         1 524     -0.324000
     14 C18        -1.1770   -0.3860    0.5620 c2        1 524      0.307000
     15 N19         1.9370   -2.3150    0.5940 n3        1 524     -0.343000
     16 O20        -1.0740   -3.0970    0.7160 o         1 524     -0.364000
     17 O21        -1.4110    0.0110    1.6940 o         1 524     -0.394000
     18 N22        -2.2700   -0.7010   -0.3320 n         1 524     -0.320000
     19 C23        -2.1360   -1.7630   -1.2790 c3        1 524     -0.083000
     20 C27        -3.4840   -0.0040   -0.2280 c3        1 524     -0.083000
     21 C31         0.4970   -2.9840    3.8780 c3        1 524     -0.062000
     22 C32         0.4540   -4.2420    4.8200 c3        1 524      0.053000
     23 C33        -0.7270   -5.0820    4.3270 c3        1 524     -0.202000
     24 C34        -1.3860   -4.2900    3.4880 c3        1 524     -0.030000
     25 F41         0.2660   -3.8830    6.0300 f         1 524     -0.160000
     26 C43         1.8390    3.0620   -1.3000 c2        1 524     -0.064000
     27 C44         0.9140    3.1040   -0.0930 c3        1 524     -0.150000
     28 C45         0.1610    1.7850    0.1130 c3        1 524     -0.165500
     29 C46         1.0870    0.5860    0.1360 c3        1 524     -0.089000
     30 C47         2.0150    0.5430   -1.0740 c3        1 524     -0.165500
     31 C48         2.7680    1.8570   -1.2790 c3        1 524     -0.150000
     32 H191        1.9700   -3.1830    0.8790 hn        1 524      0.157000
     33 H192        2.6880   -1.8850    0.8500 hn        1 524      0.157000
     34 H15         1.0880   -1.1910    1.9650 h1        1 524      0.098000
     35 H341       -1.7740   -4.8160    2.7670 h1        1 524      0.101000
     36 H342       -2.0890   -3.8020    3.9670 h1        1 524      0.101000
     37 H331       -0.4060   -5.8790    3.8620 hc        1 524      0.108500
     38 H332       -1.3040   -5.3360    5.0810 hc        1 524      0.108500
     39 H32         1.2900   -4.7530    4.7420 h1        1 524      0.102000
     40 H311        0.1850   -2.1900    4.3570 h1        1 524      0.100000
     41 H312        1.4080   -2.8420    3.5390 h1        1 524      0.100000
     42 H14         0.2300   -1.1240   -0.7180 hc        1 524      0.140000
     43 H231       -2.0230   -2.6150   -0.8010 h1        1 524      0.086667
     44 H232       -1.3510   -1.5980   -1.8470 h1        1 524      0.086667
     45 H233       -2.9450   -1.8050   -1.8400 h1        1 524      0.086667
     46 H271       -3.3070    0.9260    0.0460 h1        1 524      0.086667
     47 H272       -3.9400   -0.0080   -1.0960 h1        1 524      0.086667
     48 H273       -4.0600   -0.4430    0.4490 h1        1 524      0.086667
     49 H46         1.6330    0.6240    0.9510 hc        1 524      0.090000
     50 H451       -0.3240    1.8280    0.9670 hc        1 524      0.094500
     51 H452       -0.4810    1.6740   -0.6090 hc        1 524      0.094500
     52 H441        0.2650    3.8210   -0.2190 hc        1 524      0.091750
     53 H442        1.4490    3.2950    0.7110 hc        1 524      0.091750
     54 H43         2.3850    3.8860   -1.3120 ha        1 524      0.117000
     55 H8         -1.2280    6.8960   -2.1750 DU        1 524      0.208000
     56 H2         -0.8340    3.6040   -5.7720 ha        1 524      0.156000
     57 H3          0.4870    1.6840   -5.5370 ha        1 524      0.156000
     58 H4          1.6450    1.3010   -3.5190 ha        1 524      0.158000
     59 H481        3.2530    1.8140   -2.1340 hc        1 524      0.091750
     60 H482        3.4170    1.9680   -0.5500 hc        1 524      0.091750
     61 H471        1.4870    0.3560   -1.8700 hc        1 524      0.094500
     62 H472        2.6650   -0.1770   -0.9480 hc        1 524      0.094500
@<TRIPOS>BOND
     1    1    5 1   
     2    1   56 1   
     3    2    3 1   
     4    2   58 1   
     5    3    6 1   
     6    4    6 1   
     7    5   57 1   
     8    7    8 1   
     9    8    9 1   
    10   10   11 1   
    11   10   14 1   
    12   10   29 1   
    13   10   42 1   
    14   11   12 1   
    15   11   15 1   
    16   11   34 1   
    17   12   13 1   
    18   12   16 1   
    19   13   21 1   
    20   13   24 1   
    21   14   17 1   
    22   14   18 1   
    23   15   32 1   
    24   15   33 1   
    25   18   19 1   
    26   18   20 1   
    27   19   43 1   
    28   19   44 1   
    29   19   45 1   
    30   20   46 1   
    31   20   47 1   
    32   20   48 1   
    33   21   22 1   
    34   21   40 1   
    35   21   41 1   
    36   22   23 1   
    37   22   25 1   
    38   22   39 1   
    39   23   24 1   
    40   23   37 1   
    41   23   38 1   
    42   24   35 1   
    43   24   36 1   
    44   26   27 1   
    45   26   31 1   
    46   26   54 1   
    47   27   28 1   
    48   27   52 1   
    49   27   53 1   
    50   28   29 1   
    51   28   50 1   
    52   28   51 1   
    53   29   30 1   
    54   29   49 1   
    55   30   31 1   
    56   30   61 1   
    57   30   62 1   
    58   31   59 1   
    59   31   60 1   
@<TRIPOS>SUBSTRUCTURE
     1 524         1 TEMP              0 ****  ****    0 ROOT
