@<TRIPOS>MOLECULE
524
   64    67     1     0     0
SMALL
bcc


@<TRIPOS>ATOM
      1 C2          0.0920   -0.2690   -0.5470 cc        1 524     -0.074000
      2 C4         -0.0180   -0.0770    1.8720 cd        1 524     -0.143000
      3 C5          1.3590   -0.0690    2.0100 cc        1 524     -0.031600
      4 C1          1.5170   -0.2640   -0.4440 cc        1 524     -0.010300
      5 C3         -0.6480   -0.1760    0.6010 cd        1 524     -0.104000
      6 N6          2.1410   -0.1590    0.8600 na        1 524      0.172000
      7 N7          3.4790   -0.1710    0.7200 nc        1 524     -0.656100
      8 C8          3.6770   -0.2820   -0.6360 cd        1 524      0.538200
      9 N9          2.5070   -0.3410   -1.3840 nd        1 524     -0.350300
     10 C14         5.1790    0.1990    6.3860 c3        1 524     -0.150700
     11 C15         6.0700    1.4620    6.4850 c3        1 524      0.039500
     12 C16         7.0530    1.2590    7.6830 c         1 524      0.598100
     13 N17         7.2770    2.2820    8.5500 n         1 524     -0.406800
     14 C18         4.2820    0.1810    7.6120 c         1 524      0.545100
     15 N19         6.9070    1.6620    5.2600 nz        1 524     -0.829600
     16 O20         7.6690    0.1710    7.6910 o         1 524     -0.593100
     17 O21         3.7490    1.1590    8.1170 o         1 524     -0.396100
     18 N22         4.0400   -1.1690    8.2490 nx        1 524     -0.578200
     19 C23         2.7000   -1.2320    8.9000 c3        1 524      0.076100
     20 C27         5.1200   -1.4680    9.2310 c3        1 524      0.076100
     21 C31         6.3220    3.3410    8.8480 c3        1 524      0.015000
     22 C32         6.4040    3.6110   10.3870 c3        1 524      0.169600
     23 C33         7.7440    2.9850   10.8260 c3        1 524     -0.131400
     24 C34         8.2200    2.1060    9.6650 c3        1 524      0.068000
     25 F41         5.3270    3.0290   11.0280 f         1 524     -0.224300
     26 C43         1.9810    0.0320    3.3770 c3        1 524      0.001600
     27 C44         2.7880   -1.2160    3.7140 c3        1 524     -0.085400
     28 C45         3.4430   -1.0910    5.0770 c3        1 524     -0.081900
     29 C46         4.3380    0.1440    5.1060 c3        1 524     -0.095700
     30 C47         3.4830    1.3830    4.8770 c3        1 524     -0.081900
     31 C48         2.8040    1.3050    3.5220 c3        1 524     -0.085400
     32 H191        6.3060    1.7510    4.4290 hn        1 524      0.482133
     33 H192        7.5430    0.8610    5.1400 hn        1 524      0.482133
     34 H15         5.4150    2.3780    6.6090 hx        1 524      0.147700
     35 H341        9.2390    2.4230    9.3050 h1        1 524      0.090700
     36 H342        8.2750    1.0220    9.9610 h1        1 524      0.090700
     37 H331        7.6110    2.3790   11.7570 hc        1 524      0.102700
     38 H332        8.4900    3.7910   11.0380 hc        1 524      0.102700
     39 H32         6.3830    4.7190   10.5820 h1        1 524      0.110700
     40 H311        5.2710    3.0570    8.5710 h1        1 524      0.080700
     41 H312        6.6250    4.2700    8.2920 h1        1 524      0.080700
     42 H14         5.8640   -0.7050    6.3970 hc        1 524      0.124700
     43 H231        1.9040   -1.0790    8.1230 hx        1 524      0.121200
     44 H232        2.6200   -0.4270    9.6810 hx        1 524      0.121200
     45 H233        2.5780   -2.2400    9.3830 hx        1 524      0.121200
     46 H271        6.1260   -1.3400    8.7410 hx        1 524      0.121200
     47 H272        5.0070   -2.5280    9.5890 hx        1 524      0.121200
     48 H273        5.0300   -0.7710   10.1080 hx        1 524      0.121200
     49 H46         5.0530    0.0310    4.2380 hc        1 524      0.080700
     50 H451        4.0500   -2.0130    5.2770 hc        1 524      0.039200
     51 H452        2.6470   -1.0050    5.8640 hc        1 524      0.039200
     52 H441        3.5800   -1.4050    2.9440 hc        1 524      0.084200
     53 H442        2.1050   -2.1070    3.7130 hc        1 524      0.084200
     54 H43         1.1300    0.0950    4.1200 hc        1 524      0.063700
     55 H8          4.6720   -0.3240   -1.0970 h5        1 524      0.087800
     56 H2         -0.3570   -0.3490   -1.5500 ha        1 524      0.191000
     57 H3         -1.7500   -0.1760    0.5600 ha        1 524      0.168000
     58 H4         -0.6530   -0.0040    2.7680 ha        1 524      0.154000
     59 H481        3.5860    1.3680    2.7210 hc        1 524      0.084200
     60 H482        2.1280    2.1930    3.4000 hc        1 524      0.084200
     61 H471        2.7150    1.4710    5.6910 hc        1 524      0.039200
     62 H472        4.1110    2.3110    4.9110 hc        1 524      0.039200
     63 H193        7.4690    2.5170    5.3660 hn        1 524      0.482133
     64 H221        4.0700   -1.8780    7.4990 hn        1 524      0.465800
@<TRIPOS>BOND
     1    1    4 1   
     2    1    5 2   
     3    1   56 1   
     4    2    3 2   
     5    2    5 1   
     6    2   58 1   
     7    3    6 1   
     8    3   26 1   
     9    4    6 1   
    10    4    9 2   
    11    5   57 1   
    12    6    7 1   
    13    7    8 2   
    14    8    9 1   
    15    8   55 1   
    16   10   11 1   
    17   10   14 1   
    18   10   29 1   
    19   10   42 1   
    20   11   12 1   
    21   11   15 1   
    22   11   34 1   
    23   12   13 1   
    24   12   16 2   
    25   13   21 1   
    26   13   24 1   
    27   14   17 2   
    28   14   18 1   
    29   15   32 1   
    30   15   33 1   
    31   15   63 1   
    32   18   19 1   
    33   18   20 1   
    34   18   64 1   
    35   19   43 1   
    36   19   44 1   
    37   19   45 1   
    38   20   46 1   
    39   20   47 1   
    40   20   48 1   
    41   21   22 1   
    42   21   40 1   
    43   21   41 1   
    44   22   23 1   
    45   22   25 1   
    46   22   39 1   
    47   23   24 1   
    48   23   37 1   
    49   23   38 1   
    50   24   35 1   
    51   24   36 1   
    52   26   27 1   
    53   26   31 1   
    54   26   54 1   
    55   27   28 1   
    56   27   52 1   
    57   27   53 1   
    58   28   29 1   
    59   28   50 1   
    60   28   51 1   
    61   29   30 1   
    62   29   49 1   
    63   30   31 1   
    64   30   61 1   
    65   30   62 1   
    66   31   59 1   
    67   31   60 1   
@<TRIPOS>SUBSTRUCTURE
     1 524         1 TEMP              0 ****  ****    0 ROOT
