@<TRIPOS>MOLECULE
525
   76    79     1     0     0
SMALL
bcc


@<TRIPOS>ATOM
      1 C1         -0.6840    1.3940    0.7210 ca        1 525     -0.187000
      2 C2          0.7140    1.2960    0.5520 ca        1 525      0.212900
      3 C3          1.5120    0.8070    1.5980 ca        1 525     -0.206000
      4 C4          0.9370    0.4200    2.8160 ca        1 525      0.085700
      5 C5         -0.4510    0.5280    2.9990 ca        1 525     -0.414500
      6 C6         -1.2340    1.0100    1.9290 ca        1 525     -0.006000
      7 C7          1.8880   -0.1440    3.8230 c3        1 525     -0.063100
      8 C8          1.6050    0.1860    5.2820 c3        1 525     -0.089700
      9 C9          0.6370   -0.8490    5.8910 c3        1 525      0.210800
     10 N10        -0.5430   -1.0660    5.0880 n3        1 525     -0.803500
     11 S11        -1.3170    0.2100    4.3960 sy        1 525      1.518200
     12 C12        -1.0310   -2.4000    4.9480 c3        1 525      0.220800
     13 C13        -1.9810   -2.8440    6.0850 c3        1 525      0.100100
     14 C14        -2.2850   -4.3660    5.9610 c3        1 525      0.109500
     15 O15        -3.2040   -2.1450    6.1360 oh        1 525     -0.630800
     16 C16        -2.8150   -4.7370    4.5700 c3        1 525     -0.058100
     17 N17        -3.2940   -4.7560    7.0200 n4        1 525     -0.635800
     18 C18        -2.6850   -4.9630    8.3620 c         1 525      0.621100
     19 O19        -3.6370   -5.3100    9.2500 os        1 525     -0.406900
     20 O20        -1.4890   -4.8510    8.5990 o         1 525     -0.438000
     21 C21        -3.3040   -6.1410    4.5000 ca        1 525     -0.161300
     22 C22        -4.6780   -6.4100    4.5360 ca        1 525     -0.132500
     23 C23        -5.1380   -7.7220    4.4350 ca        1 525     -0.115500
     24 C24        -4.2300   -8.7730    4.2970 ca        1 525     -0.100000
     25 C25        -2.8600   -8.5090    4.2560 ca        1 525     -0.115500
     26 C26        -2.3970   -7.1980    4.3560 ca        1 525     -0.132500
     27 O27        -1.2940    1.3180    5.2550 o         1 525     -0.655800
     28 O28        -2.6130   -0.2670    4.0430 o         1 525     -0.655800
     29 C29         2.8980    0.2700    6.1170 c3        1 525     -0.043000
     30 C30         3.8050   -0.9300    5.8900 c3        1 525     -0.093433
     31 C31         3.6510    1.5440    5.7420 c3        1 525     -0.093433
     32 C32         2.5610    0.3560    7.6030 c3        1 525     -0.093433
     33 F33         1.2810    1.6670   -0.6130 f         1 525     -0.114900
     34 C34        -3.2200   -5.4670   10.6460 c3        1 525      0.130100
     35 C35        -4.3050   -6.3560   11.2750 c3        1 525      0.121400
     36 C36        -3.3150   -4.1280   11.3760 c3        1 525     -0.138400
     37 O37        -5.1640   -5.5090   12.0330 os        1 525     -0.398600
     38 C38        -4.4880   -4.2820   12.3430 c3        1 525      0.121400
     39 H1         -1.3110    1.7750   -0.0990 ha        1 525      0.170000
     40 H2          2.6010    0.7340    1.4460 ha        1 525      0.162000
     41 H3         -2.3320    1.0810    2.0600 ha        1 525      0.166000
     42 H4          2.9220    0.2230    3.5660 hc        1 525      0.072200
     43 H5          1.9100   -1.2620    3.6880 hc        1 525      0.072200
     44 H6          1.1190    1.2050    5.3430 hc        1 525      0.088700
     45 H7          1.1880   -1.8210    6.0350 h1        1 525      0.058200
     46 H8          0.3080   -0.4810    6.9070 h1        1 525      0.058200
     47 H9         -1.6000   -2.4720    3.9720 h1        1 525      0.070200
     48 H10        -0.1740   -3.1320    4.9150 h1        1 525      0.070200
     49 H11        -1.4890   -2.6640    7.0880 h1        1 525      0.094700
     50 H12        -1.3380   -4.9450    6.1740 hx        1 525      0.118700
     51 H13        -3.3910   -1.7310    5.2750 ho        1 525      0.472000
     52 H14        -3.6260   -4.0180    4.2730 hc        1 525      0.092700
     53 H15        -1.9620   -4.6020    3.8480 hc        1 525      0.092700
     54 H16        -3.9930   -3.9950    7.0940 hn        1 525      0.488800
     55 H17        -5.4020   -5.5830    4.6020 ha        1 525      0.138500
     56 H18        -6.2200   -7.9270    4.4500 ha        1 525      0.155000
     57 H19        -4.5950   -9.8090    4.2090 ha        1 525      0.157000
     58 H20        -2.1430   -9.3360    4.1330 ha        1 525      0.155000
     59 H21        -1.3170   -6.9930    4.3020 ha        1 525      0.138500
     60 H22         4.6900   -0.8650    6.5700 hc        1 525      0.041478
     61 H23         4.1770   -0.9600    4.8380 hc        1 525      0.041478
     62 H24         3.2680   -1.8840    6.1050 hc        1 525      0.041478
     63 H25         4.5820    1.6270    6.3550 hc        1 525      0.041478
     64 H26         3.0160    2.4420    5.9380 hc        1 525      0.041478
     65 H27         3.9450    1.5430    4.6660 hc        1 525      0.041478
     66 H28         3.4730    0.6410    8.1810 hc        1 525      0.041478
     67 H29         1.7740    1.1290    7.7820 hc        1 525      0.041478
     68 H30         2.2030   -0.6280    7.9880 hc        1 525      0.041478
     69 H31        -2.1970   -5.9220   10.6640 h1        1 525      0.102700
     70 H32        -3.8300   -7.1060   11.9590 h1        1 525      0.082200
     71 H33        -4.9510   -6.8640   10.5150 h1        1 525      0.082200
     72 H34        -3.4950   -3.2910   10.6570 hc        1 525      0.080700
     73 H35        -2.3660   -3.9140   11.9270 hc        1 525      0.080700
     74 H36        -5.2560   -3.4750   12.2280 h1        1 525      0.073200
     75 H37        -4.1420   -4.3350   13.4070 h1        1 525      0.073200
     76 H172       -3.7790   -5.6230    6.7340 hn        1 525      0.488800
@<TRIPOS>BOND
     1    1    2 ar  
     2    1    6 ar  
     3    1   39 1   
     4    2    3 ar  
     5    2   33 1   
     6    3    4 ar  
     7    3   40 1   
     8    4    5 ar  
     9    4    7 1   
    10    5    6 ar  
    11    5   11 1   
    12    6   41 1   
    13    7    8 1   
    14    7   42 1   
    15    7   43 1   
    16    8    9 1   
    17    8   29 1   
    18    8   44 1   
    19    9   10 1   
    20    9   45 1   
    21    9   46 1   
    22   10   11 1   
    23   10   12 1   
    24   11   27 2   
    25   11   28 2   
    26   12   13 1   
    27   12   47 1   
    28   12   48 1   
    29   13   14 1   
    30   13   15 1   
    31   13   49 1   
    32   14   16 1   
    33   14   17 1   
    34   14   50 1   
    35   15   51 1   
    36   16   21 1   
    37   16   52 1   
    38   16   53 1   
    39   17   18 1   
    40   17   54 1   
    41   17   76 1   
    42   18   19 1   
    43   18   20 2   
    44   19   34 1   
    45   21   22 ar  
    46   21   26 ar  
    47   22   23 ar  
    48   22   55 1   
    49   23   24 ar  
    50   23   56 1   
    51   24   25 ar  
    52   24   57 1   
    53   25   26 ar  
    54   25   58 1   
    55   26   59 1   
    56   29   30 1   
    57   29   31 1   
    58   29   32 1   
    59   30   60 1   
    60   30   61 1   
    61   30   62 1   
    62   31   63 1   
    63   31   64 1   
    64   31   65 1   
    65   32   66 1   
    66   32   67 1   
    67   32   68 1   
    68   34   35 1   
    69   34   36 1   
    70   34   69 1   
    71   35   37 1   
    72   35   70 1   
    73   35   71 1   
    74   36   38 1   
    75   36   72 1   
    76   36   73 1   
    77   37   38 1   
    78   38   74 1   
    79   38   75 1   
@<TRIPOS>SUBSTRUCTURE
     1 525         1 TEMP              0 ****  ****    0 ROOT
