@<TRIPOS>MOLECULE
525
   76    79     1     0     0
SMALL
bcc


@<TRIPOS>ATOM
      1 C1         -0.6590    1.3580    0.6890 ca        1 525     -0.187000
      2 C2          0.7390    1.2570    0.5280 ca        1 525      0.212900
      3 C3          1.5330    0.7760    1.5810 ca        1 525     -0.206000
      4 C4          0.9530    0.4000    2.8000 ca        1 525      0.085700
      5 C5         -0.4360    0.5100    2.9760 ca        1 525     -0.414500
      6 C6         -1.2140    0.9840    1.8990 ca        1 525     -0.006000
      7 C7          1.8990   -0.1570    3.8160 c3        1 525     -0.063100
      8 C8          1.6100    0.1860    5.2700 c3        1 525     -0.089700
      9 C9          0.6380   -0.8440    5.8830 c3        1 525      0.210800
     10 N10        -0.5380   -1.0660    5.0780 n3        1 525     -0.803500
     11 S11        -1.3080    0.2040    4.3720 sy        1 525      1.518200
     12 C12        -1.0260   -2.4010    4.9460 c3        1 525      0.220800
     13 C13        -1.9810   -2.8360    6.0820 c3        1 525      0.100100
     14 C14        -2.2860   -4.3580    5.9690 c3        1 525      0.109500
     15 O15        -3.2040   -2.1350    6.1230 oh        1 525     -0.630800
     16 C16        -2.8100   -4.7400    4.5790 c3        1 525     -0.058100
     17 N17        -3.2990   -4.7390    7.0270 n4        1 525     -0.635800
     18 C18        -2.6960   -4.9390    8.3720 c         1 525      0.621100
     19 O19        -3.6500   -5.2870    9.2570 os        1 525     -0.406900
     20 O20        -1.5020   -4.8190    8.6150 o         1 525     -0.438000
     21 C21        -3.3000   -6.1430    4.5180 ca        1 525     -0.161300
     22 C22        -4.6750   -6.4110    4.5500 ca        1 525     -0.132500
     23 C23        -5.1350   -7.7230    4.4570 ca        1 525     -0.115500
     24 C24        -4.2270   -8.7760    4.3310 ca        1 525     -0.100000
     25 C25        -2.8570   -8.5130    4.2940 ca        1 525     -0.115500
     26 C26        -2.3930   -7.2020    4.3850 ca        1 525     -0.132500
     27 O27        -1.2880    1.3190    5.2220 o         1 525     -0.655800
     28 O28        -2.6030   -0.2740    4.0170 o         1 525     -0.655800
     29 C29         2.9000    0.2770    6.1100 c3        1 525     -0.043000
     30 C30         3.8070   -0.9250    5.8970 c3        1 525     -0.093433
     31 C31         3.6550    1.5470    5.7280 c3        1 525     -0.093433
     32 C32         2.5550    0.3760    7.5930 c3        1 525     -0.093433
     33 F33         1.3120    1.6180   -0.6380 f         1 525     -0.114900
     34 C34        -3.2390   -5.4380   10.6550 c3        1 525      0.130100
     35 C35        -4.3220   -6.3320   11.2810 c3        1 525      0.121400
     36 C36        -3.3470   -4.0970   11.3810 c3        1 525     -0.138400
     37 O37        -5.1900   -5.4890   12.0330 os        1 525     -0.398600
     38 C38        -4.5240   -4.2570   12.3430 c3        1 525      0.121400
     39 H1         -1.2820    1.7320   -0.1370 ha        1 525      0.170000
     40 H2          2.6230    0.7020    1.4340 ha        1 525      0.162000
     41 H3         -2.3120    1.0570    2.0240 ha        1 525      0.166000
     42 H4          2.9340    0.2080    3.5600 hc        1 525      0.072200
     43 H5          1.9210   -1.2760    3.6890 hc        1 525      0.072200
     44 H6          1.1240    1.2060    5.3210 hc        1 525      0.088700
     45 H7          1.1880   -1.8150    6.0370 h1        1 525      0.058200
     46 H8          0.3050   -0.4670    6.8960 h1        1 525      0.058200
     47 H9         -1.5910   -2.4800    3.9680 h1        1 525      0.070200
     48 H10        -0.1690   -3.1340    4.9230 h1        1 525      0.070200
     49 H11        -1.4930   -2.6480    7.0860 h1        1 525      0.094700
     50 H12        -1.3400   -4.9360    6.1900 hx        1 525      0.118700
     51 H13        -3.3870   -1.7280    5.2580 ho        1 525      0.472000
     52 H14        -1.9540   -4.6110    3.8600 hc        1 525      0.092700
     53 H15        -3.6190   -4.0220    4.2720 hc        1 525      0.092700
     54 H16        -3.9980   -3.9760    7.0930 hn        1 525      0.488800
     55 H17        -5.3990   -5.5830    4.6060 ha        1 525      0.138500
     56 H18        -6.2180   -7.9280    4.4690 ha        1 525      0.155000
     57 H19        -4.5930   -9.8120    4.2490 ha        1 525      0.157000
     58 H20        -2.1400   -9.3420    4.1810 ha        1 525      0.155000
     59 H21        -1.3130   -6.9980    4.3350 ha        1 525      0.138500
     60 H22         4.1830   -0.9650    4.8470 hc        1 525      0.041478
     61 H23         4.6890   -0.8550    6.5800 hc        1 525      0.041478
     62 H24         3.2690   -1.8770    6.1180 hc        1 525      0.041478
     63 H25         3.0190    2.4470    5.9130 hc        1 525      0.041478
     64 H26         3.9530    1.5370    4.6530 hc        1 525      0.041478
     65 H27         4.5820    1.6350    6.3440 hc        1 525      0.041478
     66 H28         1.7690    1.1490    7.7620 hc        1 525      0.041478
     67 H29         3.4650    0.6650    8.1740 hc        1 525      0.041478
     68 H30         2.1960   -0.6060    7.9860 hc        1 525      0.041478
     69 H31        -2.2140   -5.8860   10.6800 h1        1 525      0.102700
     70 H32        -3.8450   -7.0770   11.9700 h1        1 525      0.082200
     71 H33        -4.9600   -6.8480   10.5190 h1        1 525      0.082200
     72 H34        -2.4020   -3.8760   11.9360 hc        1 525      0.080700
     73 H35        -3.5290   -3.2630   10.6590 hc        1 525      0.080700
     74 H36        -4.1830   -4.3050   13.4090 h1        1 525      0.073200
     75 H37        -5.2970   -3.4560   12.2220 h1        1 525      0.073200
     76 H172       -3.7860   -5.6070    6.7450 hn        1 525      0.488800
@<TRIPOS>BOND
     1    1    2 ar  
     2    1    6 ar  
     3    1   39 1   
     4    2    3 ar  
     5    2   33 1   
     6    3    4 ar  
     7    3   40 1   
     8    4    5 ar  
     9    4    7 1   
    10    5    6 ar  
    11    5   11 1   
    12    6   41 1   
    13    7    8 1   
    14    7   42 1   
    15    7   43 1   
    16    8    9 1   
    17    8   29 1   
    18    8   44 1   
    19    9   10 1   
    20    9   45 1   
    21    9   46 1   
    22   10   11 1   
    23   10   12 1   
    24   11   27 2   
    25   11   28 2   
    26   12   13 1   
    27   12   47 1   
    28   12   48 1   
    29   13   14 1   
    30   13   15 1   
    31   13   49 1   
    32   14   16 1   
    33   14   17 1   
    34   14   50 1   
    35   15   51 1   
    36   16   21 1   
    37   16   52 1   
    38   16   53 1   
    39   17   18 1   
    40   17   54 1   
    41   17   76 1   
    42   18   19 1   
    43   18   20 2   
    44   19   34 1   
    45   21   22 ar  
    46   21   26 ar  
    47   22   23 ar  
    48   22   55 1   
    49   23   24 ar  
    50   23   56 1   
    51   24   25 ar  
    52   24   57 1   
    53   25   26 ar  
    54   25   58 1   
    55   26   59 1   
    56   29   30 1   
    57   29   31 1   
    58   29   32 1   
    59   30   60 1   
    60   30   61 1   
    61   30   62 1   
    62   31   63 1   
    63   31   64 1   
    64   31   65 1   
    65   32   66 1   
    66   32   67 1   
    67   32   68 1   
    68   34   35 1   
    69   34   36 1   
    70   34   69 1   
    71   35   37 1   
    72   35   70 1   
    73   35   71 1   
    74   36   38 1   
    75   36   72 1   
    76   36   73 1   
    77   37   38 1   
    78   38   74 1   
    79   38   75 1   
@<TRIPOS>SUBSTRUCTURE
     1 525         1 TEMP              0 ****  ****    0 ROOT
