@<TRIPOS>MOLECULE
525
   76    79     1     0     0
SMALL
bcc


@<TRIPOS>ATOM
      1 C1         -0.6770    1.3410    0.6790 ca        1 525     -0.187000
      2 C2          0.7210    1.2410    0.5140 ca        1 525      0.212900
      3 C3          1.5180    0.7620    1.5650 ca        1 525     -0.206000
      4 C4          0.9420    0.3890    2.7870 ca        1 525      0.085700
      5 C5         -0.4460    0.4990    2.9670 ca        1 525     -0.414500
      6 C6         -1.2280    0.9700    1.8910 ca        1 525     -0.006000
      7 C7          1.8920   -0.1650    3.8010 c3        1 525     -0.063100
      8 C8          1.6070    0.1800    5.2550 c3        1 525     -0.089700
      9 C9          0.6380   -0.8480    5.8740 c3        1 525      0.210800
     10 N10        -0.5410   -1.0730    5.0730 n3        1 525     -0.803500
     11 S11        -1.3130    0.1960    4.3670 sy        1 525      1.518200
     12 C12        -1.0290   -2.4080    4.9460 c3        1 525      0.220800
     13 C13        -1.9800   -2.8410    6.0860 c3        1 525      0.100100
     14 C14        -2.2850   -4.3630    5.9770 c3        1 525      0.109500
     15 O15        -3.2030   -2.1400    6.1300 oh        1 525     -0.630800
     16 C16        -2.8140   -4.7480    4.5900 c3        1 525     -0.058100
     17 N17        -3.2950   -4.7420    7.0390 ny        1 525     -0.635800
     18 C18        -2.6870   -4.9370    8.3840 c         1 525      0.621100
     19 O19        -3.6390   -5.2790    9.2730 os        1 525     -0.406900
     20 O20        -1.4920   -4.8190    8.6210 o         1 525     -0.438000
     21 C21        -3.3040   -6.1520    4.5340 ca        1 525     -0.161300
     22 C22        -4.6790   -6.4190    4.5710 ca        1 525     -0.132500
     23 C23        -5.1390   -7.7320    4.4830 ca        1 525     -0.115500
     24 C24        -4.2320   -8.7850    4.3570 ca        1 525     -0.100000
     25 C25        -2.8620   -8.5230    4.3150 ca        1 525     -0.115500
     26 C26        -2.3980   -7.2110    4.4010 ca        1 525     -0.132500
     27 O27        -1.2910    1.3120    5.2140 o         1 525     -0.655800
     28 O28        -2.6100   -0.2840    4.0170 o         1 525     -0.655800
     29 C29         2.9000    0.2730    6.0910 c3        1 525     -0.043000
     30 C30         3.8070   -0.9290    5.8780 c3        1 525     -0.093433
     31 C31         3.6530    1.5430    5.7030 c3        1 525     -0.093433
     32 C32         2.5610    0.3750    7.5750 c3        1 525     -0.093433
     33 F33         1.2890    1.5990   -0.6550 f         1 525     -0.114900
     34 C34        -3.2240   -5.4240   10.6710 c3        1 525      0.130100
     35 C35        -4.3060   -6.3130   11.3050 c3        1 525      0.121400
     36 C36        -3.3260   -4.0800   11.3900 c3        1 525     -0.138400
     37 O37        -5.1700   -5.4650   12.0550 os        1 525     -0.398600
     38 C38        -4.5000   -4.2320   12.3570 c3        1 525      0.121400
     39 H1         -1.3030    1.7130   -0.1450 ha        1 525      0.170000
     40 H2          2.6070    0.6880    1.4150 ha        1 525      0.162000
     41 H3         -2.3260    1.0420    2.0200 ha        1 525      0.166000
     42 H4          1.9140   -1.2850    3.6760 hc        1 525      0.072200
     43 H5          2.9260    0.1990    3.5410 hc        1 525      0.072200
     44 H6          1.1210    1.2000    5.3050 hc        1 525      0.088700
     45 H7          1.1880   -1.8190    6.0280 h1        1 525      0.058200
     46 H8          0.3080   -0.4700    6.8860 h1        1 525      0.058200
     47 H9         -0.1720   -3.1410    4.9210 h1        1 525      0.070200
     48 H10        -1.5970   -2.4900    3.9700 h1        1 525      0.070200
     49 H11        -1.4890   -2.6510    7.0870 h1        1 525      0.094700
     50 H12        -1.3390   -4.9410    6.1970 hx        1 525      0.118700
     51 H13        -3.3890   -1.7350    5.2640 ho        1 525      0.472000
     52 H14        -3.6240   -4.0310    4.2840 hc        1 525      0.092700
     53 H15        -1.9600   -4.6220    3.8680 hc        1 525      0.092700
     54 H16        -3.9940   -3.9800    7.1050 hn        1 525      0.488800
     55 H17        -5.4020   -5.5910    4.6280 ha        1 525      0.138500
     56 H18        -6.2220   -7.9360    4.4990 ha        1 525      0.155000
     57 H19        -4.5980   -9.8220    4.2780 ha        1 525      0.157000
     58 H20        -2.1450   -9.3520    4.2010 ha        1 525      0.155000
     59 H21        -1.3170   -7.0080    4.3460 ha        1 525      0.138500
     60 H22         3.2690   -1.8810    6.1020 hc        1 525      0.041478
     61 H23         4.1790   -0.9710    4.8260 hc        1 525      0.041478
     62 H24         4.6910   -0.8570    6.5570 hc        1 525      0.041478
     63 H25         4.5830    1.6320    6.3160 hc        1 525      0.041478
     64 H26         3.9490    1.5300    4.6280 hc        1 525      0.041478
     65 H27         3.0180    2.4420    5.8890 hc        1 525      0.041478
     66 H28         3.4730    0.6660    8.1520 hc        1 525      0.041478
     67 H29         1.7740    1.1490    7.7450 hc        1 525      0.041478
     68 H30         2.2030   -0.6060    7.9710 hc        1 525      0.041478
     69 H31        -2.1990   -5.8740   10.6940 h1        1 525      0.102700
     70 H32        -4.9490   -6.8300   10.5480 h1        1 525      0.082200
     71 H33        -3.8290   -7.0560   11.9950 h1        1 525      0.082200
     72 H34        -2.3780   -3.8580   11.9420 hc        1 525      0.080700
     73 H35        -3.5080   -3.2490   10.6650 hc        1 525      0.080700
     74 H36        -5.2710   -3.4300   12.2350 h1        1 525      0.073200
     75 H37        -4.1550   -4.2750   13.4220 h1        1 525      0.073200
     76 H172       -3.7810   -5.6110    6.7620 hn        1 525      0.488800
@<TRIPOS>BOND
     1    1    2 ar  
     2    1    6 ar  
     3    1   39 1   
     4    2    3 ar  
     5    2   33 1   
     6    3    4 ar  
     7    3   40 1   
     8    4    5 ar  
     9    4    7 1   
    10    5    6 ar  
    11    5   11 1   
    12    6   41 1   
    13    7    8 1   
    14    7   42 1   
    15    7   43 1   
    16    8    9 1   
    17    8   29 1   
    18    8   44 1   
    19    9   10 1   
    20    9   45 1   
    21    9   46 1   
    22   10   11 1   
    23   10   12 1   
    24   11   27 2   
    25   11   28 2   
    26   12   13 1   
    27   12   47 1   
    28   12   48 1   
    29   13   14 1   
    30   13   15 1   
    31   13   49 1   
    32   14   16 1   
    33   14   17 1   
    34   14   50 1   
    35   15   51 1   
    36   16   21 1   
    37   16   52 1   
    38   16   53 1   
    39   17   18 1   
    40   17   54 1   
    41   17   76 1   
    42   18   19 1   
    43   18   20 2   
    44   19   34 1   
    45   21   22 ar  
    46   21   26 ar  
    47   22   23 ar  
    48   22   55 1   
    49   23   24 ar  
    50   23   56 1   
    51   24   25 ar  
    52   24   57 1   
    53   25   26 ar  
    54   25   58 1   
    55   26   59 1   
    56   29   30 1   
    57   29   31 1   
    58   29   32 1   
    59   30   60 1   
    60   30   61 1   
    61   30   62 1   
    62   31   63 1   
    63   31   64 1   
    64   31   65 1   
    65   32   66 1   
    66   32   67 1   
    67   32   68 1   
    68   34   35 1   
    69   34   36 1   
    70   34   69 1   
    71   35   37 1   
    72   35   70 1   
    73   35   71 1   
    74   36   38 1   
    75   36   72 1   
    76   36   73 1   
    77   37   38 1   
    78   38   74 1   
    79   38   75 1   
@<TRIPOS>SUBSTRUCTURE
     1 525         1 TEMP              0 ****  ****    0 ROOT
