@<TRIPOS>MOLECULE
526
   76    79     1     0     0
SMALL
bcc


@<TRIPOS>ATOM
      1 C1          0.2310   -0.6370   -0.1760 ca        1 526     -0.185000
      2 C2          1.5980   -0.2930   -0.1690 ca        1 526      0.206900
      3 C3          2.2090    0.1240    1.0240 ca        1 526     -0.208000
      4 C4          1.4770    0.1920    2.2170 ca        1 526      0.064700
      5 C5          0.1190   -0.1650    2.2240 ca        1 526     -0.411500
      6 C6         -0.4760   -0.5680    1.0120 ca        1 526     -0.008000
      7 C7          2.2270    0.7090    3.4030 c3        1 526     -0.056100
      8 C8          1.9060    0.0550    4.7390 c3        1 526     -0.090700
      9 C9          0.7100    0.7550    5.4130 c3        1 526      0.205800
     10 N10        -0.4090    0.9620    4.5220 n3        1 526     -0.810500
     11 S11        -0.9080   -0.2780    3.5620 sy        1 526      1.508200
     12 C12        -1.1290    2.1890    4.6350 c3        1 526      0.203800
     13 C13        -0.3940    3.4200    4.0560 c3        1 526      0.098100
     14 C14        -1.1770    4.7110    4.4090 c3        1 526      0.148500
     15 O15        -0.2870    3.3940    2.6420 oh        1 526     -0.637800
     16 C16        -2.6460    4.6330    3.9700 c3        1 526     -0.060100
     17 N17        -0.5110    5.9120    3.7670 ny        1 526     -0.638800
     18 C18         0.6540    6.4200    4.5400 c         1 526      0.617100
     19 O19         0.9530    7.6760    4.1540 os        1 526     -0.406900
     20 O20         1.2340    5.7810    5.4080 o         1 526     -0.438000
     21 C21        -3.3600    5.9280    4.1340 ca        1 526     -0.161300
     22 C22        -3.8430    6.3130    5.3900 ca        1 526     -0.133000
     23 C23        -4.5460    7.5090    5.5340 ca        1 526     -0.115500
     24 C24        -4.7730    8.3250    4.4250 ca        1 526     -0.100000
     25 C25        -4.2990    7.9420    3.1700 ca        1 526     -0.115500
     26 C26        -3.5950    6.7480    3.0220 ca        1 526     -0.133000
     27 O27        -2.2240    0.0090    3.1290 o         1 526     -0.637300
     28 O28        -0.7150   -1.5020    4.2160 o         1 526     -0.637300
     29 C29         3.1240    0.0370    5.6840 c3        1 526     -0.043000
     30 C30         2.6940   -0.3900    7.0840 c3        1 526     -0.093433
     31 C31         4.1340   -0.9890    5.1780 c3        1 526     -0.093433
     32 C32         3.7980    1.3980    5.7720 c3        1 526     -0.093433
     33 F33         2.3180   -0.3560   -1.3080 f         1 526     -0.114900
     34 C34         2.1080    8.3130    4.7920 c3        1 526      0.130100
     35 C35         1.8880    9.8180    4.5700 c3        1 526      0.121400
     36 C36         3.3880    7.9710    4.0290 c3        1 526     -0.137400
     37 O37         2.7400   10.2200    3.5020 os        1 526     -0.397600
     38 C38         3.8090    9.2760    3.3520 c3        1 526      0.121400
     39 H1         -0.2510   -0.9620   -1.1100 ha        1 526      0.172000
     40 H2          3.2790    0.3870    1.0090 ha        1 526      0.160000
     41 H3         -1.5510   -0.8360    1.0050 ha        1 526      0.173000
     42 H4          2.0400    1.8190    3.4730 hc        1 526      0.061200
     43 H5          3.3280    0.5880    3.1990 hc        1 526      0.061200
     44 H6          1.6250   -1.0260    4.5600 hc        1 526      0.094700
     45 H7          0.3590    0.1150    6.2770 h1        1 526      0.061700
     46 H8          1.0500    1.7430    5.8330 h1        1 526      0.061700
     47 H9         -2.1140    2.0740    4.0860 h1        1 526      0.083200
     48 H10        -1.3460    2.4100    5.7200 h1        1 526      0.083200
     49 H11         0.6450    3.4940    4.4960 h1        1 526      0.072700
     50 H12        -1.1210    4.8640    5.5290 hx        1 526      0.115700
     51 H13        -0.0300    2.5000    2.3710 ho        1 526      0.456000
     52 H14        -3.1400    3.8510    4.6110 hc        1 526      0.102200
     53 H15        -2.6980    4.2760    2.9040 hc        1 526      0.102200
     54 H16        -1.2040    6.6740    3.6620 hn        1 526      0.489800
     55 H17        -3.6880    5.6610    6.2640 ha        1 526      0.138500
     56 H18        -4.9340    7.8010    6.5230 ha        1 526      0.155500
     57 H19        -5.3380    9.2640    4.5380 ha        1 526      0.157000
     58 H20        -4.4950    8.5760    2.2900 ha        1 526      0.155500
     59 H21        -3.2640    6.4300    2.0210 ha        1 526      0.138500
     60 H22         2.1200    0.4220    7.5920 hc        1 526      0.041478
     61 H23         2.0630   -1.3100    7.0360 hc        1 526      0.041478
     62 H24         3.5960   -0.6130    7.7050 hc        1 526      0.041478
     63 H25         4.4980   -0.7340    4.1550 hc        1 526      0.041478
     64 H26         5.0160   -1.0200    5.8630 hc        1 526      0.041478
     65 H27         3.6720   -2.0050    5.1490 hc        1 526      0.041478
     66 H28         4.2530    1.6850    4.7940 hc        1 526      0.041478
     67 H29         4.6130    1.3640    6.5370 hc        1 526      0.041478
     68 H30         3.0690    2.1880    6.0720 hc        1 526      0.041478
     69 H31         2.1300    8.0130    5.8700 h1        1 526      0.102700
     70 H32         2.1670   10.3810    5.4980 h1        1 526      0.083700
     71 H33         0.8430   10.0670    4.2540 h1        1 526      0.083700
     72 H34         4.1790    7.6120    4.7340 hc        1 526      0.078200
     73 H35         3.2030    7.1680    3.2750 hc        1 526      0.078200
     74 H36         3.9620    9.1640    2.2480 h1        1 526      0.073200
     75 H37         4.7270    9.7090    3.8250 h1        1 526      0.073200
     76 H172       -0.1820    5.6390    2.8260 hn        1 526      0.489800
@<TRIPOS>BOND
     1    1    2 ar  
     2    1    6 ar  
     3    1   39 1   
     4    2    3 ar  
     5    2   33 1   
     6    3    4 ar  
     7    3   40 1   
     8    4    5 ar  
     9    4    7 1   
    10    5    6 ar  
    11    5   11 1   
    12    6   41 1   
    13    7    8 1   
    14    7   42 1   
    15    7   43 1   
    16    8    9 1   
    17    8   29 1   
    18    8   44 1   
    19    9   10 1   
    20    9   45 1   
    21    9   46 1   
    22   10   11 1   
    23   10   12 1   
    24   11   27 2   
    25   11   28 2   
    26   12   13 1   
    27   12   47 1   
    28   12   48 1   
    29   13   14 1   
    30   13   15 1   
    31   13   49 1   
    32   14   16 1   
    33   14   17 1   
    34   14   50 1   
    35   15   51 1   
    36   16   21 1   
    37   16   52 1   
    38   16   53 1   
    39   17   18 1   
    40   17   54 1   
    41   17   76 1   
    42   18   19 1   
    43   18   20 2   
    44   19   34 1   
    45   21   22 ar  
    46   21   26 ar  
    47   22   23 ar  
    48   22   55 1   
    49   23   24 ar  
    50   23   56 1   
    51   24   25 ar  
    52   24   57 1   
    53   25   26 ar  
    54   25   58 1   
    55   26   59 1   
    56   29   30 1   
    57   29   31 1   
    58   29   32 1   
    59   30   60 1   
    60   30   61 1   
    61   30   62 1   
    62   31   63 1   
    63   31   64 1   
    64   31   65 1   
    65   32   66 1   
    66   32   67 1   
    67   32   68 1   
    68   34   35 1   
    69   34   36 1   
    70   34   69 1   
    71   35   37 1   
    72   35   70 1   
    73   35   71 1   
    74   36   38 1   
    75   36   72 1   
    76   36   73 1   
    77   37   38 1   
    78   38   74 1   
    79   38   75 1   
@<TRIPOS>SUBSTRUCTURE
     1 526         1 TEMP              0 ****  ****    0 ROOT
