@<TRIPOS>MOLECULE
526
   76    79     1     0     0
SMALL
bcc


@<TRIPOS>ATOM
      1 C1          0.2850   -0.6520   -0.1610 ca        1 526     -0.185000
      2 C2          1.6490   -0.2960   -0.1500 ca        1 526      0.206900
      3 C3          2.2520    0.1310    1.0450 ca        1 526     -0.208000
      4 C4          1.5140    0.1950    2.2340 ca        1 526      0.064700
      5 C5          0.1590   -0.1730    2.2370 ca        1 526     -0.411500
      6 C6         -0.4270   -0.5850    1.0240 ca        1 526     -0.008000
      7 C7          2.2550    0.7240    3.4220 c3        1 526     -0.056100
      8 C8          1.9340    0.0700    4.7580 c3        1 526     -0.090700
      9 C9          0.7290    0.7630    5.4260 c3        1 526      0.205800
     10 N10        -0.3880    0.9570    4.5290 n3        1 526     -0.810500
     11 S11        -0.8720   -0.2910    3.5710 sy        1 526      1.508200
     12 C12        -1.1200    2.1770    4.6360 c3        1 526      0.203800
     13 C13        -0.3940    3.4130    4.0550 c3        1 526      0.098100
     14 C14        -1.1900    4.6980    4.4010 c3        1 526      0.148500
     15 O15        -0.2820    3.3830    2.6410 oh        1 526     -0.637800
     16 C16        -2.6560    4.6050    3.9570 c3        1 526     -0.060100
     17 N17        -0.5320    5.9030    3.7570 n4        1 526     -0.638800
     18 C18         0.6260    6.4240    4.5310 c         1 526      0.617100
     19 O19         0.9200    7.6770    4.1350 os        1 526     -0.406900
     20 O20         1.2060    5.7940    5.4070 o         1 526     -0.438000
     21 C21        -3.3820    5.8940    4.1160 ca        1 526     -0.161300
     22 C22        -3.8740    6.2780    5.3690 ca        1 526     -0.133000
     23 C23        -4.5880    7.4680    5.5070 ca        1 526     -0.115500
     24 C24        -4.8190    8.2780    4.3950 ca        1 526     -0.100000
     25 C25        -4.3370    7.8960    3.1420 ca        1 526     -0.115500
     26 C26        -3.6220    6.7080    3.0010 ca        1 526     -0.133000
     27 O27        -2.1880   -0.0170    3.1320 o         1 526     -0.637300
     28 O28        -0.6700   -1.5110    4.2300 o         1 526     -0.637300
     29 C29         3.1480    0.0670    5.7080 c3        1 526     -0.043000
     30 C30         2.7170   -0.3590    7.1080 c3        1 526     -0.093433
     31 C31         4.1700   -0.9520    5.2100 c3        1 526     -0.093433
     32 C32         3.8110    1.4340    5.7940 c3        1 526     -0.093433
     33 F33         2.3740   -0.3560   -1.2860 f         1 526     -0.114900
     34 C34         2.0690    8.3260    4.7740 c3        1 526      0.130100
     35 C35         1.8430    9.8280    4.5360 c3        1 526      0.121400
     36 C36         3.3540    7.9830    4.0210 c3        1 526     -0.137400
     37 O37         2.6990   10.2230    3.4680 os        1 526     -0.397600
     38 C38         3.7730    9.2820    3.3330 c3        1 526      0.121400
     39 H1         -0.1900   -0.9850   -1.0960 ha        1 526      0.172000
     40 H2          3.3190    0.4030    1.0330 ha        1 526      0.160000
     41 H3         -1.5000   -0.8630    1.0140 ha        1 526      0.173000
     42 H4          3.3580    0.6120    3.2220 hc        1 526      0.061200
     43 H5          2.0570    1.8310    3.4870 hc        1 526      0.061200
     44 H6          1.6640   -1.0130    4.5820 hc        1 526      0.094700
     45 H7          1.0600    1.7550    5.8430 h1        1 526      0.061700
     46 H8          0.3810    0.1220    6.2900 h1        1 526      0.061700
     47 H9         -2.1010    2.0510    4.0830 h1        1 526      0.083200
     48 H10        -1.3430    2.4000    5.7190 h1        1 526      0.083200
     49 H11         0.6430    3.4980    4.4980 h1        1 526      0.072700
     50 H12        -1.1390    4.8560    5.5200 hx        1 526      0.115700
     51 H13        -0.0160    2.4910    2.3740 ho        1 526      0.456000
     52 H14        -2.7020    4.2440    2.8930 hc        1 526      0.102200
     53 H15        -3.1450    3.8200    4.6000 hc        1 526      0.102200
     54 H16        -0.2000    5.6300    2.8170 hn        1 526      0.489800
     55 H17        -3.7150    5.6300    6.2450 ha        1 526      0.138500
     56 H18        -4.9820    7.7590    6.4930 ha        1 526      0.155500
     57 H19        -5.3930    9.2130    4.5030 ha        1 526      0.157000
     58 H20        -4.5350    8.5260    2.2600 ha        1 526      0.155500
     59 H21        -3.2840    6.3910    2.0020 ha        1 526      0.138500
     60 H22         2.1340    0.4490    7.6110 hc        1 526      0.041478
     61 H23         3.6190   -0.5730    7.7330 hc        1 526      0.041478
     62 H24         2.0940   -1.2850    7.0610 hc        1 526      0.041478
     63 H25         5.0490   -0.9730    5.8980 hc        1 526      0.041478
     64 H26         4.5360   -0.6970    4.1880 hc        1 526      0.041478
     65 H27         3.7160   -1.9720    5.1830 hc        1 526      0.041478
     66 H28         4.6220    1.4100    6.5620 hc        1 526      0.041478
     67 H29         3.0730    2.2180    6.0890 hc        1 526      0.041478
     68 H30         4.2660    1.7220    4.8170 hc        1 526      0.041478
     69 H31         2.0860    8.0360    5.8540 h1        1 526      0.102700
     70 H32         0.7990   10.0690    4.2110 h1        1 526      0.083700
     71 H33         2.1150   10.4010    5.4600 h1        1 526      0.083700
     72 H34         4.1430    7.6340    4.7340 hc        1 526      0.078200
     73 H35         3.1770    7.1710    3.2740 hc        1 526      0.078200
     74 H36         3.9330    9.1600    2.2320 h1        1 526      0.073200
     75 H37         4.6870    9.7240    3.8080 h1        1 526      0.073200
     76 H172       -1.2320    6.6580    3.6480 hn        1 526      0.489800
@<TRIPOS>BOND
     1    1    2 ar  
     2    1    6 ar  
     3    1   39 1   
     4    2    3 ar  
     5    2   33 1   
     6    3    4 ar  
     7    3   40 1   
     8    4    5 ar  
     9    4    7 1   
    10    5    6 ar  
    11    5   11 1   
    12    6   41 1   
    13    7    8 1   
    14    7   42 1   
    15    7   43 1   
    16    8    9 1   
    17    8   29 1   
    18    8   44 1   
    19    9   10 1   
    20    9   45 1   
    21    9   46 1   
    22   10   11 1   
    23   10   12 1   
    24   11   27 2   
    25   11   28 2   
    26   12   13 1   
    27   12   47 1   
    28   12   48 1   
    29   13   14 1   
    30   13   15 1   
    31   13   49 1   
    32   14   16 1   
    33   14   17 1   
    34   14   50 1   
    35   15   51 1   
    36   16   21 1   
    37   16   52 1   
    38   16   53 1   
    39   17   18 1   
    40   17   54 1   
    41   17   76 1   
    42   18   19 1   
    43   18   20 2   
    44   19   34 1   
    45   21   22 ar  
    46   21   26 ar  
    47   22   23 ar  
    48   22   55 1   
    49   23   24 ar  
    50   23   56 1   
    51   24   25 ar  
    52   24   57 1   
    53   25   26 ar  
    54   25   58 1   
    55   26   59 1   
    56   29   30 1   
    57   29   31 1   
    58   29   32 1   
    59   30   60 1   
    60   30   61 1   
    61   30   62 1   
    62   31   63 1   
    63   31   64 1   
    64   31   65 1   
    65   32   66 1   
    66   32   67 1   
    67   32   68 1   
    68   34   35 1   
    69   34   36 1   
    70   34   69 1   
    71   35   37 1   
    72   35   70 1   
    73   35   71 1   
    74   36   38 1   
    75   36   72 1   
    76   36   73 1   
    77   37   38 1   
    78   38   74 1   
    79   38   75 1   
@<TRIPOS>SUBSTRUCTURE
     1 526         1 TEMP              0 ****  ****    0 ROOT
