@<TRIPOS>MOLECULE
526
   76    79     1     0     0
SMALL
bcc


@<TRIPOS>ATOM
      1 C1          0.2460   -0.6760   -0.1410 ca        1 526     -0.185000
      2 C2          1.6120   -0.3270   -0.1380 ca        1 526      0.206900
      3 C3          2.2220    0.1030    1.0520 ca        1 526     -0.208000
      4 C4          1.4900    0.1780    2.2440 ca        1 526      0.064700
      5 C5          0.1330   -0.1840    2.2550 ca        1 526     -0.411500
      6 C6         -0.4600   -0.5990    1.0460 ca        1 526     -0.008000
      7 C7          2.2390    0.7090    3.4250 c3        1 526     -0.056100
      8 C8          1.9210    0.0640    4.7670 c3        1 526     -0.090700
      9 C9          0.7220    0.7660    5.4360 c3        1 526      0.205800
     10 N10        -0.3970    0.9610    4.5430 n3        1 526     -0.810500
     11 S11        -0.8930   -0.2890    3.5940 sy        1 526      1.508200
     12 C12        -1.1230    2.1860    4.6460 c3        1 526      0.203800
     13 C13        -0.3920    3.4150    4.0570 c3        1 526      0.098100
     14 C14        -1.1800    4.7060    4.3990 c3        1 526      0.148500
     15 O15        -0.2850    3.3780    2.6430 oh        1 526     -0.637800
     16 C16        -2.6480    4.6190    3.9590 c3        1 526     -0.061100
     17 N17        -0.5170    5.9040    3.7480 n4        1 526     -0.638800
     18 C18         0.6450    6.4230    4.5180 c         1 526      0.617100
     19 O19         0.9380    7.6770    4.1230 os        1 526     -0.406900
     20 O20         1.2280    5.7920    5.3900 o         1 526     -0.438000
     21 C21        -3.3670    5.9120    4.1130 ca        1 526     -0.161300
     22 C22        -3.8530    6.3060    5.3660 ca        1 526     -0.133000
     23 C23        -4.5610    7.5000    5.4990 ca        1 526     -0.115500
     24 C24        -4.7900    8.3060    4.3840 ca        1 526     -0.100000
     25 C25        -4.3130    7.9150    3.1320 ca        1 526     -0.115500
     26 C26        -3.6040    6.7230    2.9950 ca        1 526     -0.133000
     27 O27        -2.2090   -0.0100    3.1590 o         1 526     -0.637300
     28 O28        -0.6940   -1.5070    4.2580 o         1 526     -0.637300
     29 C29         3.1390    0.0600    5.7120 c3        1 526     -0.043000
     30 C30         2.7120   -0.3580    7.1150 c3        1 526     -0.093433
     31 C31         4.1530   -0.9670    5.2140 c3        1 526     -0.093433
     32 C32         3.8080    1.4240    5.7880 c3        1 526     -0.093433
     33 F33         2.3320   -0.3970   -1.2770 f         1 526     -0.114900
     34 C34         2.0900    8.3240    4.7580 c3        1 526      0.130100
     35 C35         1.8620    9.8270    4.5260 c3        1 526      0.121400
     36 C36         3.3710    7.9840    3.9970 c3        1 526     -0.137400
     37 O37         2.7120   10.2270    3.4560 os        1 526     -0.397600
     38 C38         3.7860    9.2870    3.3110 c3        1 526      0.121400
     39 H1         -0.2350   -1.0110   -1.0720 ha        1 526      0.172000
     40 H2          3.2910    0.3700    1.0340 ha        1 526      0.160000
     41 H3         -1.5350   -0.8720    1.0420 ha        1 526      0.173000
     42 H4          3.3400    0.5900    3.2210 hc        1 526      0.061200
     43 H5          2.0470    1.8180    3.4860 hc        1 526      0.061200
     44 H6          1.6440   -1.0190    4.5970 hc        1 526      0.094700
     45 H7          1.0590    1.7580    5.8470 h1        1 526      0.061700
     46 H8          0.3740    0.1310    6.3050 h1        1 526      0.061700
     47 H9         -1.3400    2.4160    5.7300 h1        1 526      0.083200
     48 H10        -2.1060    2.0630    4.0980 h1        1 526      0.083200
     49 H11         0.6470    3.4970    4.4960 h1        1 526      0.073700
     50 H12        -1.1250    4.8690    5.5170 hx        1 526      0.115700
     51 H13        -0.0240    2.4830    2.3790 ho        1 526      0.456000
     52 H14        -2.6980    4.2540    2.8970 hc        1 526      0.102200
     53 H15        -3.1390    3.8400    4.6070 hc        1 526      0.102200
     54 H16        -1.2140    6.6630    3.6360 hn        1 526      0.489800
     55 H17        -3.6970    5.6610    6.2440 ha        1 526      0.138500
     56 H18        -4.9510    7.7980    6.4850 ha        1 526      0.155500
     57 H19        -5.3580    9.2440    4.4890 ha        1 526      0.157000
     58 H20        -4.5090    8.5420    2.2470 ha        1 526      0.155500
     59 H21        -3.2700    6.3990    1.9970 ha        1 526      0.138500
     60 H22         3.6150   -0.5720    7.7380 hc        1 526      0.041478
     61 H23         2.0840   -1.2800    7.0750 hc        1 526      0.041478
     62 H24         2.1350    0.4560    7.6160 hc        1 526      0.041478
     63 H25         3.6950   -1.9850    5.1930 hc        1 526      0.041478
     64 H26         4.5160   -0.7190    4.1890 hc        1 526      0.041478
     65 H27         5.0350   -0.9890    5.8990 hc        1 526      0.041478
     66 H28         4.2600    1.7050    4.8070 hc        1 526      0.041478
     67 H29         3.0760    2.2130    6.0820 hc        1 526      0.041478
     68 H30         4.6230    1.3990    6.5520 hc        1 526      0.041478
     69 H31         2.1130    8.0310    5.8370 h1        1 526      0.102700
     70 H32         0.8160   10.0690    4.2080 h1        1 526      0.083700
     71 H33         2.1390   10.3970    5.4510 h1        1 526      0.083700
     72 H34         4.1640    7.6330    4.7030 hc        1 526      0.078200
     73 H35         3.1900    7.1760    3.2470 hc        1 526      0.078200
     74 H36         4.7020    9.7270    3.7820 h1        1 526      0.073200
     75 H37         3.9390    9.1690    2.2090 h1        1 526      0.073200
     76 H172       -0.1870    5.6250    2.8090 hn        1 526      0.489800
@<TRIPOS>BOND
     1    1    2 ar  
     2    1    6 ar  
     3    1   39 1   
     4    2    3 ar  
     5    2   33 1   
     6    3    4 ar  
     7    3   40 1   
     8    4    5 ar  
     9    4    7 1   
    10    5    6 ar  
    11    5   11 1   
    12    6   41 1   
    13    7    8 1   
    14    7   42 1   
    15    7   43 1   
    16    8    9 1   
    17    8   29 1   
    18    8   44 1   
    19    9   10 1   
    20    9   45 1   
    21    9   46 1   
    22   10   11 1   
    23   10   12 1   
    24   11   27 2   
    25   11   28 2   
    26   12   13 1   
    27   12   47 1   
    28   12   48 1   
    29   13   14 1   
    30   13   15 1   
    31   13   49 1   
    32   14   16 1   
    33   14   17 1   
    34   14   50 1   
    35   15   51 1   
    36   16   21 1   
    37   16   52 1   
    38   16   53 1   
    39   17   18 1   
    40   17   54 1   
    41   17   76 1   
    42   18   19 1   
    43   18   20 2   
    44   19   34 1   
    45   21   22 ar  
    46   21   26 ar  
    47   22   23 ar  
    48   22   55 1   
    49   23   24 ar  
    50   23   56 1   
    51   24   25 ar  
    52   24   57 1   
    53   25   26 ar  
    54   25   58 1   
    55   26   59 1   
    56   29   30 1   
    57   29   31 1   
    58   29   32 1   
    59   30   60 1   
    60   30   61 1   
    61   30   62 1   
    62   31   63 1   
    63   31   64 1   
    64   31   65 1   
    65   32   66 1   
    66   32   67 1   
    67   32   68 1   
    68   34   35 1   
    69   34   36 1   
    70   34   69 1   
    71   35   37 1   
    72   35   70 1   
    73   35   71 1   
    74   36   38 1   
    75   36   72 1   
    76   36   73 1   
    77   37   38 1   
    78   38   74 1   
    79   38   75 1   
@<TRIPOS>SUBSTRUCTURE
     1 526         1 TEMP              0 ****  ****    0 ROOT
