@<TRIPOS>MOLECULE
527
   60    63     1     0     0
SMALL
bcc


@<TRIPOS>ATOM
      1 S1         -0.4820   -0.5980    0.3920 ss        1 527      0.035200
      2 C2          1.0830   -1.1470    0.5970 cc        1 527     -0.172700
      3 C3          1.4670   -1.0810    1.9300 cd        1 527      0.141100
      4 C4          0.4090   -0.5370    2.7560 cd        1 527     -0.044900
      5 C5         -0.7190   -0.2220    2.0030 cc        1 527     -0.165100
      6 C6          1.8300   -1.5940   -0.6450 c         1 527      0.939200
      7 O7          1.3680   -2.5900   -1.2710 o         1 527     -0.817300
      8 O8          2.8120   -0.9060   -1.0310 o         1 527     -0.817300
      9 C9         -1.9640    0.3360    2.4700 ca        1 527      0.080000
     10 C10        -3.1730   -0.2760    2.1100 ca        1 527     -0.177000
     11 C11        -4.4100    0.2450    2.5400 ca        1 527      0.080600
     12 C12        -4.4190    1.4000    3.3460 ca        1 527     -0.173000
     13 C13        -3.2150    2.0050    3.7000 ca        1 527     -0.125000
     14 C14        -1.9980    1.4890    3.2710 ca        1 527     -0.131000
     15 BR19        0.5130   -0.3280    4.5980 br        1 527     -0.101100
     16 O20         2.6260   -1.4300    2.5530 os        1 527     -0.286900
     17 C21         3.6030   -2.1310    1.7630 c3        1 527      0.006400
     18 C22         4.6890   -2.6260    2.7520 c         1 527      0.917600
     19 O25         5.6310   -1.8410    3.0560 o         1 527     -0.850300
     20 O26         4.6120   -3.8190    3.1650 o         1 527     -0.850300
     21 N29        -5.6340   -0.3400    2.1010 nh        1 527     -0.697600
     22 C30        -6.5170   -0.8090    3.1610 c3        1 527      0.186500
     23 C31        -7.9110   -1.1400    2.6050 c3        1 527     -0.116400
     24 C32        -8.8470   -1.5480    3.7420 c3        1 527      0.221300
     25 N33        -8.3390   -2.6220    4.5610 n3        1 527     -0.817500
     26 C34        -6.9920   -2.4170    5.0410 c3        1 527      0.221300
     27 C35        -6.0020   -2.0290    3.9450 c3        1 527     -0.116400
     28 S46        -9.1340   -4.0160    4.7680 s6        1 527      1.435900
     29 O47       -10.5080   -3.8380    4.4850 o         1 527     -0.651300
     30 O48        -8.8190   -4.5850    6.0230 o         1 527     -0.651300
     31 C49        -8.4360   -5.0260    3.5350 c3        1 527     -0.255300
     32 C50        -8.9870   -6.4010    3.5080 ca        1 527     -0.058300
     33 C53        -9.7230   -6.8470    2.4040 ca        1 527     -0.113500
     34 C54       -10.2110   -8.1520    2.3670 ca        1 527     -0.129500
     35 C55        -9.9660   -9.0220    3.4280 ca        1 527     -0.130000
     36 C56        -9.2330   -8.5820    4.5310 ca        1 527     -0.129500
     37 C57        -8.7440   -7.2790    4.5730 ca        1 527     -0.113500
     38 H10        -3.1350   -1.1770    1.4760 ha        1 527      0.141000
     39 H12        -5.3670    1.8360    3.6900 ha        1 527      0.114000
     40 H13        -3.2320    2.9090    4.3270 ha        1 527      0.114000
     41 H14        -1.0530    1.9780    3.5540 ha        1 527      0.151000
     42 H211        4.0300   -1.4210    1.0100 h1        1 527      0.053700
     43 H212        3.1150   -2.9920    1.2420 h1        1 527      0.053700
     44 HN29       -5.4540   -1.0800    1.4460 hn        1 527      0.369800
     45 H30        -6.6330    0.0430    3.8970 h1        1 527      0.063700
     46 H311       -7.8390   -1.9630    1.8480 hc        1 527      0.059200
     47 H312       -8.3460   -0.2420    2.0950 hc        1 527      0.059200
     48 H321       -9.0210   -0.6490    4.4040 h1        1 527      0.056200
     49 H322       -9.8440   -1.8560    3.3120 h1        1 527      0.056200
     50 H341       -6.6410   -3.3610    5.5480 h1        1 527      0.056200
     51 H342       -7.0110   -1.5970    5.8170 h1        1 527      0.056200
     52 H351       -5.8370   -2.8910    3.2490 hc        1 527      0.059200
     53 H352       -5.0180   -1.7850    4.4250 hc        1 527      0.059200
     54 H491       -8.5680   -4.5570    2.5230 h1        1 527      0.114200
     55 H492       -7.3220   -5.1060    3.6810 h1        1 527      0.114200
     56 H53        -9.9180   -6.1660    1.5610 ha        1 527      0.144500
     57 H54       -10.7890   -8.4940    1.4960 ha        1 527      0.129000
     58 H55       -10.3480  -10.0520    3.3960 ha        1 527      0.125000
     59 H56        -9.0380   -9.2650    5.3710 ha        1 527      0.129000
     60 H57        -8.1770   -6.9270    5.4510 ha        1 527      0.144500
@<TRIPOS>BOND
     1    1    2 1   
     2    1    5 1   
     3    2    3 2   
     4    2    6 1   
     5    3    4 1   
     6    3   16 1   
     7    4    5 2   
     8    4   15 1   
     9    5    9 1   
    10    6    7 1   
    11    6    8 1   
    12    9   10 ar  
    13    9   14 ar  
    14   10   11 ar  
    15   10   38 1   
    16   11   12 ar  
    17   11   21 1   
    18   12   13 ar  
    19   12   39 1   
    20   13   14 ar  
    21   13   40 1   
    22   14   41 1   
    23   16   17 1   
    24   17   18 1   
    25   17   42 1   
    26   17   43 1   
    27   18   19 1   
    28   18   20 1   
    29   21   22 1   
    30   21   44 1   
    31   22   23 1   
    32   22   27 1   
    33   22   45 1   
    34   23   24 1   
    35   23   46 1   
    36   23   47 1   
    37   24   25 1   
    38   24   48 1   
    39   24   49 1   
    40   25   26 1   
    41   25   28 1   
    42   26   27 1   
    43   26   50 1   
    44   26   51 1   
    45   27   52 1   
    46   27   53 1   
    47   28   29 2   
    48   28   30 2   
    49   28   31 1   
    50   31   32 1   
    51   31   54 1   
    52   31   55 1   
    53   32   33 ar  
    54   32   37 ar  
    55   33   34 ar  
    56   33   56 1   
    57   34   35 ar  
    58   34   57 1   
    59   35   36 ar  
    60   35   58 1   
    61   36   37 ar  
    62   36   59 1   
    63   37   60 1   
@<TRIPOS>SUBSTRUCTURE
     1 527         1 TEMP              0 ****  ****    0 ROOT
