@<TRIPOS>MOLECULE
527
   60    63     1     0     0
SMALL
bcc


@<TRIPOS>ATOM
      1 S1          3.1820    0.5150    1.8100 ss        1 527      0.036200
      2 C2          4.3600    1.2870    0.9100 cc        1 527     -0.172700
      3 C3          4.4770    0.7240   -0.3530 cd        1 527      0.141100
      4 C4          3.5600   -0.3840   -0.5220 cd        1 527     -0.044900
      5 C5          2.7970   -0.5980    0.6240 cc        1 527     -0.165100
      6 C6          5.1120    2.4210    1.5800 c         1 527      0.939200
      7 O7          4.4410    3.4340    1.9290 o         1 527     -0.817800
      8 O8          6.3370    2.2620    1.8270 o         1 527     -0.817800
      9 C9          1.7810   -1.5990    0.8320 ca        1 527      0.079000
     10 C10         0.5230   -1.2150    1.3200 ca        1 527     -0.176000
     11 C11        -0.4940   -2.1650    1.5410 ca        1 527      0.079600
     12 C12        -0.2310   -3.5210    1.2640 ca        1 527     -0.172000
     13 C13         1.0210   -3.8980    0.7830 ca        1 527     -0.126000
     14 C14         2.0220   -2.9570    0.5680 ca        1 527     -0.130000
     15 BR19        3.3780   -1.3730   -2.0830 br        1 527     -0.101100
     16 O20         5.2800    1.0330   -1.4080 os        1 527     -0.286900
     17 C21         6.0430    2.2490   -1.3090 c3        1 527      0.006400
     18 C22         6.6370    2.5080   -2.7170 c         1 527      0.917600
     19 O25         7.7330    1.9580   -3.0190 o         1 527     -0.850300
     20 O26         6.0210    3.3070   -3.4800 o         1 527     -0.850300
     21 N29        -1.7420   -1.7720    2.1070 nh        1 527     -0.696600
     22 C30        -2.9130   -2.0570    1.2880 c3        1 527      0.185500
     23 C31        -4.2080   -1.8310    2.0860 c3        1 527     -0.117400
     24 C32        -5.4220   -2.2100    1.2380 c3        1 527      0.220800
     25 N33        -5.4710   -1.5480   -0.0430 n3        1 527     -0.816500
     26 C34        -4.2490   -1.6490   -0.8080 c3        1 527      0.220800
     27 C35        -3.0000   -1.2560   -0.0230 c3        1 527     -0.117400
     28 S46        -6.7040   -0.6030   -0.4980 s6        1 527      1.435900
     29 O47        -7.8610   -0.9190    0.2550 o         1 527     -0.651300
     30 O48        -6.8440   -0.6170   -1.9000 o         1 527     -0.651300
     31 C49        -6.1610    0.9730    0.0000 c3        1 527     -0.255300
     32 C50        -7.1000    2.0660   -0.3420 ca        1 527     -0.058300
     33 C53        -8.3690    2.1160    0.2520 ca        1 527     -0.116000
     34 C54        -9.2400    3.1630   -0.0460 ca        1 527     -0.129500
     35 C55        -8.8530    4.1670   -0.9330 ca        1 527     -0.131000
     36 C56        -7.5920    4.1210   -1.5260 ca        1 527     -0.129500
     37 C57        -6.7170    3.0760   -1.2320 ca        1 527     -0.116000
     38 H10         0.3470   -0.1470    1.5290 ha        1 527      0.141000
     39 H12        -1.0010   -4.2860    1.4340 ha        1 527      0.115000
     40 H13         1.2190   -4.9600    0.5730 ha        1 527      0.114000
     41 H14         3.0080   -3.2670    0.1900 ha        1 527      0.151000
     42 H211        6.8500    2.1030   -0.5450 h1        1 527      0.054200
     43 H212        5.3720    3.0890   -0.9990 h1        1 527      0.054200
     44 HN29       -1.7220   -0.7990    2.3560 hn        1 527      0.368800
     45 H30        -2.8640   -3.1540    1.0120 h1        1 527      0.062700
     46 H311       -4.2080   -2.4680    3.0070 hc        1 527      0.059700
     47 H312       -4.2800   -0.7610    2.4080 hc        1 527      0.059700
     48 H321       -5.4020   -3.3250    1.0610 h1        1 527      0.056700
     49 H322       -6.3650   -1.9700    1.8100 h1        1 527      0.056700
     50 H341       -4.1350   -2.7170   -1.1580 h1        1 527      0.056700
     51 H342       -4.3410   -0.9960   -1.7240 h1        1 527      0.056700
     52 H351       -3.0110   -0.1580    0.1980 hc        1 527      0.059700
     53 H352       -2.0990   -1.4670   -0.6580 hc        1 527      0.059700
     54 H491       -6.0010    0.9930    1.1130 h1        1 527      0.114200
     55 H492       -5.1550    1.2010   -0.4470 h1        1 527      0.114200
     56 H53        -8.6810    1.3140    0.9410 ha        1 527      0.146500
     57 H54       -10.2350    3.1930    0.4210 ha        1 527      0.130000
     58 H55        -9.5410    4.9930   -1.1650 ha        1 527      0.125000
     59 H56        -7.2820    4.9100   -2.2270 ha        1 527      0.130000
     60 H57        -5.7220    3.0470   -1.7020 ha        1 527      0.146500
@<TRIPOS>BOND
     1    1    2 1   
     2    1    5 1   
     3    2    3 2   
     4    2    6 1   
     5    3    4 1   
     6    3   16 1   
     7    4    5 2   
     8    4   15 1   
     9    5    9 1   
    10    6    7 1   
    11    6    8 1   
    12    9   10 ar  
    13    9   14 ar  
    14   10   11 ar  
    15   10   38 1   
    16   11   12 ar  
    17   11   21 1   
    18   12   13 ar  
    19   12   39 1   
    20   13   14 ar  
    21   13   40 1   
    22   14   41 1   
    23   16   17 1   
    24   17   18 1   
    25   17   42 1   
    26   17   43 1   
    27   18   19 1   
    28   18   20 1   
    29   21   22 1   
    30   21   44 1   
    31   22   23 1   
    32   22   27 1   
    33   22   45 1   
    34   23   24 1   
    35   23   46 1   
    36   23   47 1   
    37   24   25 1   
    38   24   48 1   
    39   24   49 1   
    40   25   26 1   
    41   25   28 1   
    42   26   27 1   
    43   26   50 1   
    44   26   51 1   
    45   27   52 1   
    46   27   53 1   
    47   28   29 2   
    48   28   30 2   
    49   28   31 1   
    50   31   32 1   
    51   31   54 1   
    52   31   55 1   
    53   32   33 ar  
    54   32   37 ar  
    55   33   34 ar  
    56   33   56 1   
    57   34   35 ar  
    58   34   57 1   
    59   35   36 ar  
    60   35   58 1   
    61   36   37 ar  
    62   36   59 1   
    63   37   60 1   
@<TRIPOS>SUBSTRUCTURE
     1 527         1 TEMP              0 ****  ****    0 ROOT
