@<TRIPOS>MOLECULE
527
   61    64     1     0     0
SMALL
bcc


@<TRIPOS>ATOM
      1 S1          0.1120    0.2660    0.7300 ss        1 527      0.117200
      2 C2          1.1990   -0.8440    1.3270 cc        1 527     -0.146700
      3 C3          0.7290   -1.4080    2.5040 cd        1 527      0.065100
      4 C4         -0.5560   -0.8820    2.8860 cd        1 527     -0.032900
      5 C5         -0.9980    0.0600    1.9640 cc        1 527     -0.137100
      6 C6          2.5070   -1.0990    0.5980 c         1 527      0.939200
      7 O7          3.2110   -0.0950    0.3150 o         1 527     -0.805800
      8 O8          2.7930   -2.2890    0.2920 o         1 527     -0.805800
      9 C9         -2.2400    0.8010    2.0070 ca        1 527      0.030000
     10 C10        -3.4660    0.1250    1.9570 ca        1 527     -0.103000
     11 C11        -4.6800    0.8370    1.9950 ca        1 527      0.076600
     12 C12        -4.6400    2.2460    2.0670 ca        1 527     -0.178000
     13 C13        -3.4200    2.9120    2.1010 ca        1 527     -0.124000
     14 C14        -2.2230    2.2020    2.0780 ca        1 527     -0.127000
     15 BR19       -1.4700   -1.3490    4.4300 br        1 527     -0.089100
     16 O20         1.4050   -2.2630    3.3490 os        1 527     -0.292900
     17 C21         1.8070   -3.5050    2.7800 c3        1 527      0.069400
     18 C22         0.8710   -4.6150    3.1860 c         1 527      0.617100
     19 O25        -0.3970   -4.5270    2.6990 oh        1 527     -0.593100
     20 O26         1.1210   -5.6200    3.8620 o         1 527     -0.586000
     21 N29        -5.9160    0.1350    1.8800 nh        1 527     -0.699600
     22 C30        -6.4080   -0.4650    3.1240 c3        1 527      0.188500
     23 C31        -7.8930   -0.8470    2.9950 c3        1 527     -0.103900
     24 C32        -8.3930   -1.4850    4.2920 c3        1 527      0.219300
     25 N33        -7.5950   -2.6010    4.7310 n3        1 527     -0.815500
     26 C34        -6.1810   -2.3200    4.8070 c3        1 527      0.219300
     27 C35        -5.6050   -1.7090    3.5300 c3        1 527     -0.103900
     28 S46        -8.2010   -4.0930    4.9370 s6        1 527      1.436900
     29 O47        -9.6070   -4.0220    5.0820 o         1 527     -0.646800
     30 O48        -7.4890   -4.7750    5.9410 o         1 527     -0.646800
     31 C49        -7.8600   -4.8360    3.4010 c3        1 527     -0.253300
     32 C50        -8.2900   -6.2520    3.3190 ca        1 527     -0.062300
     33 C53        -9.6530   -6.5760    3.3530 ca        1 527     -0.115500
     34 C54       -10.0590   -7.9040    3.2440 ca        1 527     -0.128500
     35 C55        -9.1120   -8.9180    3.0990 ca        1 527     -0.128000
     36 C56        -7.7550   -8.6000    3.0660 ca        1 527     -0.128500
     37 C57        -7.3430   -7.2720    3.1740 ca        1 527     -0.115500
     38 H10        -3.4680   -0.9740    1.8760 ha        1 527      0.153000
     39 H12        -5.5740    2.8280    2.0860 ha        1 527      0.117000
     40 H13        -3.4010    4.0100    2.1520 ha        1 527      0.124000
     41 H14        -1.2600    2.7330    2.1180 ha        1 527      0.144000
     42 H211        2.8130   -3.7080    3.2390 h1        1 527      0.125200
     43 H212        1.8830   -3.4590    1.6550 h1        1 527      0.125200
     44 HN29       -0.9170   -5.2820    3.0150 ho        1 527      0.424000
     45 H30        -6.3260    0.2760    3.9810 h1        1 527      0.027700
     46 H311       -8.5140    0.0640    2.7960 hc        1 527      0.061450
     47 H312       -8.0320   -1.5540    2.1370 hc        1 527      0.061450
     48 H321       -9.4590   -1.8270    4.1510 h1        1 527      0.059200
     49 H322       -8.3870   -0.7000    5.1040 h1        1 527      0.059200
     50 H341       -6.0030   -1.6050    5.6630 h1        1 527      0.059200
     51 H342       -5.6330   -3.2780    5.0420 h1        1 527      0.059200
     52 H351       -5.6130   -2.4600    2.6980 hc        1 527      0.061450
     53 H352       -4.5370   -1.4290    3.7300 hc        1 527      0.061450
     54 H491       -6.7620   -4.7720    3.1680 h1        1 527      0.112700
     55 H492       -8.3720   -4.2720    2.5740 h1        1 527      0.112700
     56 H53       -10.4010   -5.7770    3.4860 ha        1 527      0.145000
     57 H54       -11.1300   -8.1520    3.2770 ha        1 527      0.131500
     58 H55        -9.4340   -9.9660    3.0140 ha        1 527      0.128000
     59 H56        -7.0040   -9.3960    2.9560 ha        1 527      0.131500
     60 H57        -6.2700   -7.0290    3.1480 ha        1 527      0.145000
     61 H292       -6.6210    0.7490    1.5110 hn        1 527      0.363800
@<TRIPOS>BOND
     1    1    2 1   
     2    1    5 1   
     3    2    3 2   
     4    2    6 1   
     5    3    4 1   
     6    3   16 1   
     7    4    5 2   
     8    4   15 1   
     9    5    9 1   
    10    6    7 1   
    11    6    8 1   
    12    9   10 ar  
    13    9   14 ar  
    14   10   11 ar  
    15   10   38 1   
    16   11   12 ar  
    17   11   21 1   
    18   12   13 ar  
    19   12   39 1   
    20   13   14 ar  
    21   13   40 1   
    22   14   41 1   
    23   16   17 1   
    24   17   18 1   
    25   17   42 1   
    26   17   43 1   
    27   18   19 1   
    28   18   20 2   
    29   19   44 1   
    30   21   22 1   
    31   21   61 1   
    32   22   23 1   
    33   22   27 1   
    34   22   45 1   
    35   23   24 1   
    36   23   46 1   
    37   23   47 1   
    38   24   25 1   
    39   24   48 1   
    40   24   49 1   
    41   25   26 1   
    42   25   28 1   
    43   26   27 1   
    44   26   50 1   
    45   26   51 1   
    46   27   52 1   
    47   27   53 1   
    48   28   29 2   
    49   28   30 2   
    50   28   31 1   
    51   31   32 1   
    52   31   54 1   
    53   31   55 1   
    54   32   33 ar  
    55   32   37 ar  
    56   33   34 ar  
    57   33   56 1   
    58   34   35 ar  
    59   34   57 1   
    60   35   36 ar  
    61   35   58 1   
    62   36   37 ar  
    63   36   59 1   
    64   37   60 1   
@<TRIPOS>SUBSTRUCTURE
     1 527         1 TEMP              0 ****  ****    0 ROOT
