@<TRIPOS>MOLECULE
527
   60    54     1     0     0
SMALL
bcc


@<TRIPOS>ATOM
      1 S1          5.9840   -1.2160    0.2110 ss        1 527      0.576000
      2 C2          6.9750   -1.4190   -0.9660 c1        1 527     -0.421000
      3 C3          6.4410   -2.4600   -1.8240 c1        1 527      0.096000
      4 C4          5.0630   -2.9630   -1.2040 c1        1 527     -0.185000
      5 C5          4.8070   -2.2090    0.0100 c2        1 527     -0.437000
      6 C6          8.2630   -0.6540   -1.1870 c1        1 527      0.388000
      7 O7          9.3360   -1.0690   -0.6760 o         1 527     -0.551500
      8 O8          8.2650    0.3810   -1.9050 o         1 527     -0.551500
      9 C9          3.6660   -2.2880    0.7920 c1        1 527      0.080000
     10 C10         2.6000   -1.4350    0.5490 c1        1 527     -0.175000
     11 C11         1.4320   -1.5570    1.2860 c1        1 527     -0.003000
     12 C12         1.3300   -2.5340    2.2650 c1        1 527     -0.171000
     13 C13         2.3950   -3.3870    2.5070 c1        1 527     -0.129500
     14 C14         3.5630   -3.2640    1.7700 c1        1 527     -0.129500
     15 BR19        3.9390   -4.3260   -1.9330 br        1 527      0.038000
     16 O20         7.0230   -2.9210   -3.0160 o         1 527     -0.170000
     17 C21         6.1430   -2.9280   -4.1150 c3        1 527     -0.095000
     18 C22         6.9370   -3.0420   -5.3970 c2        1 527      0.337000
     19 O25         7.9840   -3.7410   -5.4290 o         1 527     -0.585000
     20 O26         6.5440   -2.4500   -6.4370 o         1 527     -0.585000
     21 N29         0.3670   -0.6380    1.0860 n3        1 527     -0.258000
     22 C30        -0.8310   -1.0510    0.3340 c3        1 527     -0.011000
     23 C31        -1.9630   -1.2090    1.2840 c3        1 527     -0.194500
     24 C32        -2.4200    0.1120    1.8600 c3        1 527     -0.023500
     25 N33        -2.6910    1.1130    0.8230 n3        1 527     -0.833000
     26 C34        -1.5730    1.2760   -0.1210 c3        1 527     -0.023500
     27 C35        -1.1110   -0.0440   -0.7060 c3        1 527     -0.194500
     28 S46        -3.6870    2.3800    1.1440 s4        1 527      2.006800
     29 O47        -3.8500    2.5690    2.5580 o         1 527     -0.534900
     30 O48        -3.0830    3.6260    0.7630 o         1 527     -0.534900
     31 C49        -5.2480    2.1500    0.3420 c2        1 527     -0.799000
     32 C50        -6.1370    3.3460    0.6170 c2        1 527     -0.047000
     33 C53        -6.8320    3.4320    1.8130 c2        1 527     -0.124000
     34 C54        -7.6900    4.4970    2.0410 c1        1 527     -0.130000
     35 C55        -7.8530    5.4750    1.0730 c1        1 527     -0.129500
     36 C56        -7.1580    5.3890   -0.1230 c1        1 527     -0.129500
     37 C57        -6.3000    4.3240   -0.3510 c1        1 527     -0.109000
     38 H10         2.6730   -0.7470   -0.1400 ha        1 527      0.140000
     39 H12         0.5080   -2.6210    2.7830 ha        1 527      0.115000
     40 H13         2.3180   -4.0840    3.1860 ha        1 527      0.129750
     41 H14         4.3130   -3.8660    1.9410 ha        1 527      0.129750
     42 H211        5.5330   -3.6910   -4.0400 h1        1 527      0.093500
     43 H212        5.6260   -2.0960   -4.1240 h1        1 527      0.093500
     44 HN29        0.4190    0.2030    1.4340 hn        1 527      0.166000
     45 H30        -0.6550   -1.9090   -0.0960 h1        1 527      0.105000
     46 H311       -1.6830   -1.7940    2.0160 hc        1 527      0.095000
     47 H312       -2.7140   -1.6270    0.8150 hc        1 527      0.095000
     48 H321       -1.7240    0.4550    2.4560 h1        1 527      0.104250
     49 H322       -3.2370   -0.0340    2.3790 h1        1 527      0.104250
     50 H341       -1.8570    1.8620   -0.8500 h1        1 527      0.104250
     51 H342       -0.8230    1.6940    0.3470 h1        1 527      0.104250
     52 H351       -0.2970    0.1090   -1.2260 hc        1 527      0.095000
     53 H352       -1.8070   -0.3870   -1.3000 hc        1 527      0.095000
     54 H491       -5.1100    2.0610   -0.6220 ha        1 527      0.147000
     55 H492       -5.6760    1.3410    0.6860 ha        1 527      0.147000
     56 H53        -6.7330    2.7320    2.4870 ha        1 527      0.154000
     57 H54        -8.1800    4.5570    2.8840 ha        1 527      0.128000
     58 H55        -8.4440    6.2340    1.2410 ha        1 527      0.129750
     59 H56        -7.2720    6.0780   -0.8050 ha        1 527      0.129750
     60 H57        -5.8100    4.2640   -1.1940 ha        1 527      0.137000
@<TRIPOS>BOND
     1    1    2 1   
     2    1    5 1   
     3    2    3 1   
     4    3    4 1   
     5    4    5 1   
     6    5    9 1   
     7    6    7 1   
     8    6    8 1   
     9    9   10 1   
    10   10   38 1   
    11   11   12 1   
    12   11   21 1   
    13   12   39 1   
    14   13   14 1   
    15   13   40 1   
    16   14   41 1   
    17   16   17 1   
    18   17   18 1   
    19   17   42 1   
    20   17   43 1   
    21   18   19 1   
    22   18   20 1   
    23   21   22 1   
    24   21   44 1   
    25   22   23 1   
    26   22   27 1   
    27   22   45 1   
    28   23   24 1   
    29   23   46 1   
    30   23   47 1   
    31   24   25 1   
    32   24   48 1   
    33   24   49 1   
    34   25   26 1   
    35   25   28 1   
    36   26   27 1   
    37   26   50 1   
    38   26   51 1   
    39   27   52 1   
    40   27   53 1   
    41   28   29 1   
    42   28   30 1   
    43   31   32 1   
    44   31   54 1   
    45   31   55 1   
    46   32   33 1   
    47   32   37 1   
    48   33   34 1   
    49   33   56 1   
    50   34   57 1   
    51   35   36 1   
    52   35   58 1   
    53   36   59 1   
    54   37   60 1   
@<TRIPOS>SUBSTRUCTURE
     1 527         1 TEMP              0 ****  ****    0 ROOT
