@<TRIPOS>MOLECULE
527
   60    63     1     0     0
SMALL
bcc


@<TRIPOS>ATOM
      1 S1         -0.4610   -0.6710    0.4490 ss        1 527      0.036200
      2 C2          1.0910   -1.2200    0.7390 cc        1 527     -0.172700
      3 C3          1.4220   -1.1020    2.0830 cd        1 527      0.141100
      4 C4          0.3380   -0.5160    2.8420 cd        1 527     -0.044900
      5 C5         -0.7580   -0.2260    2.0330 cc        1 527     -0.165100
      6 C6          1.8830   -1.7220   -0.4530 c         1 527      0.939200
      7 O7          1.4300   -2.7320   -1.0650 o         1 527     -0.817800
      8 O8          2.8940   -1.0660   -0.8170 o         1 527     -0.817800
      9 C9         -2.0170    0.3540    2.4280 ca        1 527      0.079000
     10 C10        -3.2140   -0.2710    2.0500 ca        1 527     -0.176000
     11 C11        -4.4640    0.2690    2.4140 ca        1 527      0.079600
     12 C12        -4.4990    1.4570    3.1690 ca        1 527     -0.172000
     13 C13        -3.3080    2.0770    3.5390 ca        1 527     -0.126000
     14 C14        -2.0770    1.5420    3.1760 ca        1 527     -0.130000
     15 Br19        0.3710   -0.2300    4.6770 br        1 527     -0.101100
     16 O20         2.5530   -1.4320    2.7650 os        1 527     -0.286900
     17 C21         3.5450   -2.1910    2.0500 c3        1 527      0.006400
     18 C22         4.5720   -2.6700    3.1070 c         1 527      0.917600
     19 O25         5.5250   -1.9000    3.4140 o         1 527     -0.850300
     20 O26         4.4410   -3.8390    3.5720 o         1 527     -0.850300
     21 N29        -5.6740   -0.3360    1.9610 nu        1 527     -0.696600
     22 C30        -6.5810   -0.7750    3.0130 c3        1 527      0.185500
     23 C31        -7.9450   -1.1760    2.4280 c3        1 527     -0.117400
     24 C32        -8.9090   -1.5570    3.5520 c3        1 527      0.220800
     25 N33        -8.3980   -2.5720    4.4400 n3        1 527     -0.816500
     26 C34        -7.0780   -2.2960    4.9580 c3        1 527      0.220800
     27 C35        -6.0590   -1.9350    3.8790 c3        1 527     -0.117400
     28 S46        -9.1430   -3.9900    4.6770 s6        1 527      1.435900
     29 O47       -10.5120   -3.8830    4.3280 o         1 527     -0.651300
     30 O48        -8.8610   -4.4870    5.9660 o         1 527     -0.651300
     31 C49        -8.3730   -5.0100    3.4970 c3        1 527     -0.255300
     32 C50        -8.8410   -6.4150    3.5230 ca        1 527     -0.058300
     33 C53       -10.1680   -6.7220    3.1870 ca        1 527     -0.116000
     34 C54       -10.5990   -8.0460    3.1790 ca        1 527     -0.129500
     35 C55        -9.7140   -9.0750    3.5020 ca        1 527     -0.131000
     36 C56        -8.3940   -8.7750    3.8360 ca        1 527     -0.129500
     37 C57        -7.9570   -7.4510    3.8450 ca        1 527     -0.116000
     38 H10        -3.1550   -1.1990    1.4580 ha        1 527      0.141000
     39 H12        -5.4590    1.9060    3.4610 ha        1 527      0.115000
     40 H13        -3.3450    3.0070    4.1250 ha        1 527      0.114000
     41 H14        -1.1420    2.0410    3.4720 ha        1 527      0.151000
     42 H211        3.0570   -3.0620    1.5450 h1        1 527      0.054200
     43 H212        4.0230   -1.5260    1.2870 h1        1 527      0.054200
     44 HN29       -5.4720   -1.0970    1.3370 hn        1 527      0.368800
     45 H30        -6.7460    0.1120    3.6970 h1        1 527      0.062700
     46 H311       -8.3880   -0.3180    1.8610 hc        1 527      0.059700
     47 H312       -7.8220   -2.0320    1.7160 hc        1 527      0.059700
     48 H321       -9.8790   -1.9190    3.1030 h1        1 527      0.056700
     49 H322       -9.1340   -0.6330    4.1600 h1        1 527      0.056700
     50 H341       -7.1520   -1.4360    5.6860 h1        1 527      0.056700
     51 H342       -6.7170   -3.1990    5.5300 h1        1 527      0.056700
     52 H351       -5.1010   -1.6350    4.3790 hc        1 527      0.059700
     53 H352       -5.8430   -2.8270    3.2360 hc        1 527      0.059700
     54 H491       -7.2560   -4.9940    3.6330 h1        1 527      0.114200
     55 H492       -8.5500   -4.6070    2.4620 h1        1 527      0.114200
     56 H53       -10.8710   -5.9070    2.9470 ha        1 527      0.147000
     57 H54       -11.6420   -8.2780    2.9190 ha        1 527      0.130000
     58 H55       -10.0560  -10.1190    3.4930 ha        1 527      0.125000
     59 H56        -7.6920   -9.5820    4.0920 ha        1 527      0.130000
     60 H57        -6.9130   -7.2220    4.1090 ha        1 527      0.147000
@<TRIPOS>BOND
     1    1    2 1   
     2    1    5 1   
     3    2    3 2   
     4    2    6 1   
     5    3    4 1   
     6    3   16 1   
     7    4    5 2   
     8    4   15 1   
     9    5    9 1   
    10    6    7 1   
    11    6    8 1   
    12    9   10 ar  
    13    9   14 ar  
    14   10   11 ar  
    15   10   38 1   
    16   11   12 ar  
    17   11   21 1   
    18   12   13 ar  
    19   12   39 1   
    20   13   14 ar  
    21   13   40 1   
    22   14   41 1   
    23   16   17 1   
    24   17   18 1   
    25   17   42 1   
    26   17   43 1   
    27   18   19 1   
    28   18   20 1   
    29   21   22 1   
    30   21   44 1   
    31   22   23 1   
    32   22   27 1   
    33   22   45 1   
    34   23   24 1   
    35   23   46 1   
    36   23   47 1   
    37   24   25 1   
    38   24   48 1   
    39   24   49 1   
    40   25   26 1   
    41   25   28 1   
    42   26   27 1   
    43   26   50 1   
    44   26   51 1   
    45   27   52 1   
    46   27   53 1   
    47   28   29 2   
    48   28   30 2   
    49   28   31 1   
    50   31   32 1   
    51   31   54 1   
    52   31   55 1   
    53   32   33 ar  
    54   32   37 ar  
    55   33   34 ar  
    56   33   56 1   
    57   34   35 ar  
    58   34   57 1   
    59   35   36 ar  
    60   35   58 1   
    61   36   37 ar  
    62   36   59 1   
    63   37   60 1   
@<TRIPOS>SUBSTRUCTURE
     1 527         1 TEMP              0 ****  ****    0 ROOT
