@<TRIPOS>MOLECULE
528
   65    66     1     0     0
SMALL
bcc


@<TRIPOS>ATOM
      1 C37         5.9830    2.6230   -0.9820 ca        1 528     -0.126500
      2 C38         7.1330    3.2360   -1.4740 ca        1 528     -0.131500
      3 C41         8.3220    3.1840   -0.7450 ca        1 528     -0.141000
      4 C40         8.3550    2.5170    0.4790 ca        1 528     -0.131500
      5 C39         7.2050    1.9030    0.9730 ca        1 528     -0.126500
      6 C36         6.0100    1.9510    0.2470 ca        1 528     -0.068300
      7 C35         4.7750    1.3100    0.7760 c3        1 528     -0.035100
      8 C34         4.3880    0.0840   -0.0300 c3        1 528     -0.042400
      9 C33         3.1110   -0.5270    0.4940 c3        1 528     -0.334600
     10 S32         2.6110   -1.8650   -0.4620 s6        1 528      1.460900
     11 O32         2.6240   -1.4900   -1.8270 o         1 528     -0.670800
     12 O33         3.4460   -2.9580   -0.1180 o         1 528     -0.670800
     13 N31         1.1140   -2.1500    0.0540 n3        1 528     -0.897100
     14 C27        -0.0830   -1.8220   -0.6730 c3        1 528     -0.048700
     15 C28        -1.0150   -3.0030   -0.9980 c3        1 528     -0.084700
     16 C30        -0.9880   -3.3080   -2.4840 c3        1 528     -0.085100
     17 C29        -0.7350   -4.2730   -0.2190 c3        1 528     -0.085100
     18 P24        -0.9150   -0.6430    0.2280 p5        1 528      1.495100
     19 O25        -0.0020    0.4230    0.6610 o         1 528     -0.882300
     20 O26        -1.4570   -1.4420    1.4990 oh        1 528     -0.818400
     21 C15        -2.1300   -0.1230   -0.7470 c3        1 528     -0.438600
     22 C1         -3.4830   -0.1060   -0.0510 c3        1 528     -0.143400
     23 C2         -4.2220   -1.4620   -0.3120 c         1 528      0.912600
     24 O14        -4.0310   -2.3550    0.5690 o         1 528     -0.820300
     25 O13        -4.8790   -1.6350   -1.3670 o         1 528     -0.820300
     26 C3         -4.2840    1.0830   -0.4590 ca        1 528     -0.035300
     27 C8         -4.4490    2.1480    0.4360 ca        1 528     -0.132000
     28 C4         -4.8700    1.1660   -1.7300 ca        1 528     -0.095000
     29 C5         -5.5940    2.2980   -2.0950 ca        1 528     -0.146000
     30 C6         -5.7410    3.3620   -1.2050 ca        1 528     -0.137000
     31 C7         -5.1710    3.2880    0.0670 ca        1 528     -0.147300
     32 C9         -5.3410    4.4160    1.0450 c3        1 528      0.198100
     33 N10        -4.1300    5.0490    1.5120 n3        1 528     -0.904800
     34 H37         5.0460    2.6630   -1.5570 ha        1 528      0.134500
     35 H38         7.1040    3.7590   -2.4410 ha        1 528      0.124500
     36 H41         9.2290    3.6670   -1.1350 ha        1 528      0.123000
     37 H40         9.2900    2.4740    1.0560 ha        1 528      0.124500
     38 H39         7.2370    1.3770    1.9390 ha        1 528      0.134500
     39 H351        4.9200    1.0160    1.8500 hc        1 528      0.055200
     40 H352        3.9300    2.0520    0.7470 hc        1 528      0.055200
     41 H341        4.2520    0.3730   -1.1070 hc        1 528      0.055700
     42 H342        5.2160   -0.6730    0.0180 hc        1 528      0.055700
     43 H331        3.2680   -0.8350    1.5610 h1        1 528      0.136700
     44 H332        2.3200    0.2800    0.5470 h1        1 528      0.136700
     45 HN31        0.9190   -2.6450    0.8930 hn        1 528      0.459800
     46 H27         0.2450   -1.3820   -1.6660 h1        1 528      0.108700
     47 H28        -2.0740   -2.6910   -0.7290 hc        1 528      0.091700
     48 H301        0.0380   -3.6110   -2.8050 hc        1 528      0.037033
     49 H302       -1.6960   -4.1400   -2.7140 hc        1 528      0.037033
     50 H303       -1.2980   -2.4130   -3.0750 hc        1 528      0.037033
     51 H291       -0.7980   -4.0880    0.8810 hc        1 528      0.037033
     52 H292       -1.5060   -5.0380   -0.4810 hc        1 528      0.037033
     53 H293        0.2700   -4.6910   -0.4660 hc        1 528      0.037033
     54 HO26       -2.2990   -1.9170    1.4480 ho        1 528      0.520000
     55 H151       -1.8980    0.9220   -1.0950 hc        1 528      0.113200
     56 H152       -2.2570   -0.7100   -1.6980 hc        1 528      0.113200
     57 H1         -3.3090   -0.0430    1.0630 hc        1 528      0.049700
     58 H8         -4.0120    2.0860    1.4440 ha        1 528      0.125000
     59 H4         -4.7810    0.3030   -2.4130 ha        1 528      0.177000
     60 H5         -6.0570    2.3510   -3.0910 ha        1 528      0.119000
     61 H6         -6.3110    4.2530   -1.5020 ha        1 528      0.114000
     62 H91        -5.9850    5.2170    0.5810 h1        1 528      0.048700
     63 H92        -5.8900    4.0210    1.9480 h1        1 528      0.048700
     64 H101       -3.5460    4.3820    1.9800 hn        1 528      0.344300
     65 H102       -3.6130    5.4260    0.7410 hn        1 528      0.344300
@<TRIPOS>BOND
     1    1    2 ar  
     2    1    6 ar  
     3    1   34 1   
     4    2    3 ar  
     5    2   35 1   
     6    3    4 ar  
     7    3   36 1   
     8    4    5 ar  
     9    4   37 1   
    10    5    6 ar  
    11    5   38 1   
    12    6    7 1   
    13    7    8 1   
    14    7   39 1   
    15    7   40 1   
    16    8    9 1   
    17    8   41 1   
    18    8   42 1   
    19    9   10 1   
    20    9   43 1   
    21    9   44 1   
    22   10   11 2   
    23   10   12 2   
    24   10   13 1   
    25   13   14 1   
    26   13   45 1   
    27   14   15 1   
    28   14   18 1   
    29   14   46 1   
    30   15   16 1   
    31   15   17 1   
    32   15   47 1   
    33   16   48 1   
    34   16   49 1   
    35   16   50 1   
    36   17   51 1   
    37   17   52 1   
    38   17   53 1   
    39   18   19 2   
    40   18   20 1   
    41   18   21 1   
    42   20   54 1   
    43   21   22 1   
    44   21   55 1   
    45   21   56 1   
    46   22   23 1   
    47   22   26 1   
    48   22   57 1   
    49   23   24 1   
    50   23   25 1   
    51   26   27 ar  
    52   26   28 ar  
    53   27   31 ar  
    54   27   58 1   
    55   28   29 ar  
    56   28   59 1   
    57   29   30 ar  
    58   29   60 1   
    59   30   31 ar  
    60   30   61 1   
    61   31   32 1   
    62   32   33 1   
    63   32   62 1   
    64   32   63 1   
    65   33   64 1   
    66   33   65 1   
@<TRIPOS>SUBSTRUCTURE
     1 528         1 TEMP              0 ****  ****    0 ROOT
