@<TRIPOS>MOLECULE
528
   66    67     1     0     0
SMALL
bcc


@<TRIPOS>ATOM
      1 C37        -1.9650    1.0720   -0.5260 ca        1 528     -0.151500
      2 C38        -0.9390    1.7900   -1.1370 ca        1 528     -0.123000
      3 C41        -0.1110    2.6150   -0.3750 ca        1 528     -0.128000
      4 C40        -0.3090    2.7140    1.0010 ca        1 528     -0.123000
      5 C39        -1.3330    1.9930    1.6160 ca        1 528     -0.151500
      6 C36        -2.1690    1.1660    0.8580 ca        1 528     -0.093300
      7 C35        -3.2810    0.4240    1.5130 c3        1 528     -0.035100
      8 C34        -3.2120   -1.0730    1.2710 c3        1 528     -0.030400
      9 C33        -4.5370   -1.7300    1.6150 c3        1 528     -0.394600
     10 S32        -4.7770   -3.1700    0.8080 s6        1 528      1.381900
     11 O32        -4.2710   -3.2300   -0.4830 o         1 528     -0.596300
     12 O33        -4.5370   -4.2670    1.6400 o         1 528     -0.596300
     13 N31        -6.5900   -3.2050    0.6970 n4        1 528     -0.705900
     14 C27        -7.1970   -2.6820   -0.5430 c3        1 528     -0.098700
     15 C28        -8.5440   -3.3060   -0.9240 c3        1 528     -0.095700
     16 C30        -8.5120   -3.7610   -2.3740 c3        1 528     -0.098100
     17 C29        -9.0040   -4.4700   -0.0670 c3        1 528     -0.098100
     18 P24        -7.4500   -0.9310   -0.2900 p5        1 528      1.293400
     19 O25        -7.7990   -0.8930    1.1570 o         1 528     -0.898500
     20 O26        -6.0680   -0.3370   -0.4770 o         1 528     -0.898500
     21 C15        -8.4210   -0.3410   -1.4650 c3        1 528     -0.432600
     22 C1         -9.4860    0.6100   -0.9140 c3        1 528     -0.153400
     23 C2        -10.8940    0.1580   -1.4140 c         1 528      0.932600
     24 O14       -11.7740    1.0230   -1.6460 o         1 528     -0.820300
     25 O13       -11.0540   -1.0920   -1.5190 o         1 528     -0.820300
     26 C3         -9.0660    2.0120   -1.2300 ca        1 528     -0.008300
     27 C8         -7.8220    2.3830   -0.7020 ca        1 528     -0.159000
     28 C4         -9.7050    2.9030   -2.0990 ca        1 528     -0.063000
     29 C5         -9.0460    4.0710   -2.4980 ca        1 528     -0.138000
     30 C6         -7.7320    4.3350   -2.1070 ca        1 528     -0.119000
     31 C7         -7.1050    3.4650   -1.2110 ca        1 528     -0.187300
     32 C9         -5.6620    3.5430   -0.8470 c3        1 528      0.188100
     33 N10        -4.9810    2.2480   -1.1770 n4        1 528     -0.877600
     34 H37        -2.5940    0.3960   -1.1270 ha        1 528      0.140500
     35 H38        -0.7720    1.6940   -2.2210 ha        1 528      0.140500
     36 H41         0.7020    3.1780   -0.8580 ha        1 528      0.142000
     37 H40         0.3460    3.3580    1.6070 ha        1 528      0.140500
     38 H39        -1.4790    2.0710    2.7050 ha        1 528      0.140500
     39 H351       -4.2600    0.8110    1.1090 hc        1 528      0.060200
     40 H352       -3.2820    0.6180    2.6190 hc        1 528      0.060200
     41 H341       -2.3900   -1.5180    1.8900 hc        1 528      0.064200
     42 H342       -2.9740   -1.2640    0.1880 hc        1 528      0.064200
     43 H331       -5.3550   -0.9580    1.3600 h1        1 528      0.183200
     44 H332       -4.6060   -1.8420    2.7320 h1        1 528      0.183200
     45 HN31       -7.0430   -2.6400    1.4660 hn        1 528      0.476300
     46 H27        -6.4610   -2.8560   -1.3780 hx        1 528      0.115700
     47 H28        -9.3620   -2.5190   -0.8170 hc        1 528      0.139700
     48 H301       -8.1870   -2.9370   -3.0540 hc        1 528      0.043533
     49 H302       -7.8150   -4.6230   -2.5020 hc        1 528      0.043533
     50 H303       -9.5390   -4.0760   -2.6850 hc        1 528      0.043533
     51 H291       -8.3110   -5.3430   -0.1370 hc        1 528      0.043533
     52 H292       -9.1290   -4.1690    1.0020 hc        1 528      0.043533
     53 H293      -10.0080   -4.8050   -0.4340 hc        1 528      0.043533
     54 H151       -8.9790   -1.1130   -2.0750 hc        1 528      0.119200
     55 H152       -7.8090    0.1960   -2.2390 hc        1 528      0.119200
     56 H1         -9.5390    0.4940    0.2080 hc        1 528      0.086700
     57 H8         -7.3820    1.7250    0.0730 ha        1 528      0.131000
     58 H4        -10.7240    2.6590   -2.4630 ha        1 528      0.215000
     59 H5         -9.5620    4.7780   -3.1660 ha        1 528      0.139000
     60 H6         -7.2000    5.2120   -2.5000 ha        1 528      0.123000
     61 H91        -5.5410    3.7070    0.2620 hx        1 528      0.086200
     62 H92        -5.1410    4.3700   -1.4040 hx        1 528      0.086200
     63 H101       -4.0200    2.2460   -0.8280 hn        1 528      0.467467
     64 H102       -5.4950    1.4230   -0.7550 hn        1 528      0.467467
     65 H312       -6.8900   -4.1740    0.8430 hn        1 528      0.476300
     66 H103       -4.9760    2.1060   -2.1870 hn        1 528      0.467467
@<TRIPOS>BOND
     1    1    2 ar  
     2    1    6 ar  
     3    1   34 1   
     4    2    3 ar  
     5    2   35 1   
     6    3    4 ar  
     7    3   36 1   
     8    4    5 ar  
     9    4   37 1   
    10    5    6 ar  
    11    5   38 1   
    12    6    7 1   
    13    7    8 1   
    14    7   39 1   
    15    7   40 1   
    16    8    9 1   
    17    8   41 1   
    18    8   42 1   
    19    9   10 1   
    20    9   43 1   
    21    9   44 1   
    22   10   11 2   
    23   10   12 2   
    24   10   13 1   
    25   13   14 1   
    26   13   45 1   
    27   13   65 1   
    28   14   15 1   
    29   14   18 1   
    30   14   46 1   
    31   15   16 1   
    32   15   17 1   
    33   15   47 1   
    34   16   48 1   
    35   16   49 1   
    36   16   50 1   
    37   17   51 1   
    38   17   52 1   
    39   17   53 1   
    40   18   19 1   
    41   18   20 1   
    42   18   21 1   
    43   21   22 1   
    44   21   54 1   
    45   21   55 1   
    46   22   23 1   
    47   22   26 1   
    48   22   56 1   
    49   23   24 1   
    50   23   25 1   
    51   26   27 ar  
    52   26   28 ar  
    53   27   31 ar  
    54   27   57 1   
    55   28   29 ar  
    56   28   58 1   
    57   29   30 ar  
    58   29   59 1   
    59   30   31 ar  
    60   30   60 1   
    61   31   32 1   
    62   32   33 1   
    63   32   61 1   
    64   32   62 1   
    65   33   63 1   
    66   33   64 1   
    67   33   66 1   
@<TRIPOS>SUBSTRUCTURE
     1 528         1 TEMP              0 ****  ****    0 ROOT
