@<TRIPOS>MOLECULE
528
   65    60     1     0     0
SMALL
bcc


@<TRIPOS>ATOM
      1 C37         5.9390   -4.0660    0.6840 c1        1 528     -0.129000
      2 C38         6.6800   -5.0990    0.1600 c1        1 528     -0.136333
      3 C41         6.1660   -5.8690   -0.9080 c1        1 528     -0.136333
      4 C40         4.9270   -5.5860   -1.4220 c1        1 528     -0.136333
      5 C39         4.1710   -4.5330   -0.8880 c1        1 528     -0.136333
      6 C36         4.6770   -3.7780    0.1600 c1        1 528     -0.056000
      7 C35         3.8630   -2.6310    0.7280 c3        1 528     -0.124000
      8 C34         4.0630   -1.4130   -0.1150 c3        1 528     -0.114000
      9 C33         2.9640   -0.3620    0.2220 c3        1 528     -0.881000
     10 S32         2.3710    0.3920   -1.2980 s4        1 528      2.027800
     11 O32         3.0820    1.6040   -1.5860 o         1 528     -0.569900
     12 O33         2.7060   -0.4050   -2.4390 o         1 528     -0.569900
     13 N31         0.7040    0.6640   -1.2090 n2        1 528     -0.875000
     14 C27        -0.0040    1.2280   -2.3570 c3        1 528     -0.656000
     15 C28        -0.8410    0.1650   -3.0010 c3        1 528     -0.121000
     16 C30        -0.2570   -0.1790   -4.3860 c3        1 528     -0.210500
     17 C29        -0.8390   -1.0560   -2.1410 c3        1 528     -0.210500
     18 P24        -1.0660    2.5750   -1.8040 p5        1 528      2.806000
     19 O25        -1.8860    3.0600   -2.9450 o         1 528     -1.137000
     20 O26        -0.1720    3.7650   -1.2550 oh        1 528     -0.834000
     21 C15        -2.1900    1.9560   -0.4450 c3        1 528     -0.910000
     22 C1         -3.1120    3.0760    0.0050 c3        1 528     -0.127000
     23 C2         -2.3010    4.2270    0.4960 c2        1 528      0.322000
     24 O14        -1.3560    4.0320    1.3110 o         1 528     -0.569000
     25 O13        -2.5260    5.3840    0.0590 o         1 528     -0.569000
     26 C3         -4.0210    2.5660    1.1350 c2        1 528     -0.031000
     27 C8         -3.5340    2.4730    2.4310 c2        1 528     -0.109000
     28 C4         -5.3280    2.2040    0.8580 c1        1 528     -0.131000
     29 C5         -6.1570    1.7450    1.8830 c1        1 528     -0.136333
     30 C6         -5.6700    1.6510    3.1870 c1        1 528     -0.136333
     31 C7         -4.3670    2.0120    3.4620 c1        1 528     -0.134000
     32 C9         -3.8440    1.9490    4.8950 c3        1 528     -0.043000
     33 N10        -4.1400    0.6520    5.4600 n3        1 528     -0.339000
     34 H37         6.2990   -3.5280    1.4310 ha        1 528      0.132000
     35 H38         7.5730   -5.3020    0.5300 ha        1 528      0.122500
     36 H41         6.6870   -6.6270   -1.2660 ha        1 528      0.122500
     37 H40         4.5250   -6.1870   -2.1080 ha        1 528      0.122500
     38 H39         3.2650   -4.3250   -1.2630 ha        1 528      0.122500
     39 H351        4.1540   -2.4460    1.6450 hc        1 528      0.101000
     40 H352        2.9260   -2.8710    0.7300 hc        1 528      0.101000
     41 H341        4.0020   -1.6580   -1.0650 hc        1 528      0.089000
     42 H342        4.9500   -1.0300    0.0690 hc        1 528      0.089000
     43 H331        3.3420    0.3300    0.8030 h1        1 528      0.198000
     44 H332        2.2180   -0.8040    0.6820 h1        1 528      0.198000
     45 HN31        0.2600    0.5360   -0.4150 hn        1 528      0.271000
     46 H27         0.6420    1.5670   -3.0010 h1        1 528      0.162000
     47 H28        -1.7550    0.4880   -3.1040 hc        1 528      0.108000
     48 H301       -0.7700    0.2900   -5.0840 hc        1 528      0.077333
     49 H302       -0.3130   -1.1420   -4.5330 hc        1 528      0.077333
     50 H303        0.6890    0.1060   -4.4240 hc        1 528      0.077333
     51 H291        0.0750   -1.3930   -2.0570 hc        1 528      0.077333
     52 H292       -1.1880   -0.8290   -1.2490 hc        1 528      0.077333
     53 H293       -1.4030   -1.7410   -2.5460 hc        1 528      0.077333
     54 HO26       -0.1010    4.4070   -1.8910 ho        1 528      0.301000
     55 H151       -2.7320    1.2010   -0.7860 hc        1 528      0.148500
     56 H152       -1.6450    1.6500    0.3180 hc        1 528      0.148500
     57 H1         -3.6570    3.3630   -0.7410 hc        1 528      0.102000
     58 H8         -2.6170    2.7650    2.6340 ha        1 528      0.173000
     59 H4         -5.6840    2.3150   -0.0430 ha        1 528      0.129000
     60 H5         -7.0790    1.4840    1.6860 ha        1 528      0.122500
     61 H6         -6.2250    1.2600    3.8860 ha        1 528      0.122500
     62 H91        -4.2770    2.6480    5.4340 h1        1 528      0.085000
     63 H92        -2.8690    2.0910    4.8940 h1        1 528      0.085000
     64 H101       -3.3520    0.2230    5.6710 hn        1 528      0.146500
     65 H102       -4.6450    0.7590    6.2240 hn        1 528      0.146500
@<TRIPOS>BOND
     1    1    6 1   
     2    1   34 1   
     3    2    3 1   
     4    2   35 1   
     5    3   36 1   
     6    4    5 1   
     7    4   37 1   
     8    5   38 1   
     9    6    7 1   
    10    7    8 1   
    11    7   39 1   
    12    7   40 1   
    13    8    9 1   
    14    8   41 1   
    15    8   42 1   
    16    9   10 1   
    17    9   43 1   
    18    9   44 1   
    19   10   11 1   
    20   10   12 1   
    21   13   14 1   
    22   13   45 1   
    23   14   15 1   
    24   14   18 1   
    25   14   46 1   
    26   15   16 1   
    27   15   17 1   
    28   15   47 1   
    29   16   48 1   
    30   16   49 1   
    31   16   50 1   
    32   17   51 1   
    33   17   52 1   
    34   17   53 1   
    35   18   19 1   
    36   18   20 1   
    37   18   21 1   
    38   20   54 1   
    39   21   22 1   
    40   21   55 1   
    41   21   56 1   
    42   22   23 1   
    43   22   26 1   
    44   22   57 1   
    45   23   24 1   
    46   23   25 1   
    47   26   27 1   
    48   26   28 1   
    49   27   31 1   
    50   27   58 1   
    51   28   59 1   
    52   29   30 1   
    53   29   60 1   
    54   30   61 1   
    55   31   32 1   
    56   32   33 1   
    57   32   62 1   
    58   32   63 1   
    59   33   64 1   
    60   33   65 1   
@<TRIPOS>SUBSTRUCTURE
     1 528         1 TEMP              0 ****  ****    0 ROOT
