@<TRIPOS>MOLECULE
528
   66    67     1     0     0
SMALL
bcc


@<TRIPOS>ATOM
      1 C37        -1.9670    1.0750   -0.5060 ca        1 528     -0.151500
      2 C38        -0.9390    1.7980   -1.1110 ca        1 528     -0.123000
      3 C41        -0.1140    2.6190   -0.3420 ca        1 528     -0.128000
      4 C40        -0.3160    2.7100    1.0350 ca        1 528     -0.123000
      5 C39        -1.3400    1.9850    1.6430 ca        1 528     -0.151500
      6 C36        -2.1740    1.1610    0.8770 ca        1 528     -0.093300
      7 C35        -3.2880    0.4150    1.5250 c3        1 528     -0.035100
      8 C34        -3.2170   -1.0810    1.2740 c3        1 528     -0.030400
      9 C33        -4.5420   -1.7410    1.6100 c3        1 528     -0.394600
     10 S32        -4.7780   -3.1760    0.7930 s6        1 528      1.381900
     11 O32        -4.2680   -3.2280   -0.4960 o         1 528     -0.596300
     12 O33        -4.5410   -4.2780    1.6200 o         1 528     -0.596300
     13 N31        -6.5910   -3.2120    0.6770 ny        1 528     -0.705900
     14 C27        -7.1940   -2.6820   -0.5630 c3        1 528     -0.098700
     15 C28        -8.5390   -3.3050   -0.9520 c3        1 528     -0.095700
     16 C30        -8.5010   -3.7510   -2.4050 c3        1 528     -0.098100
     17 C29        -9.0010   -4.4740   -0.1030 c3        1 528     -0.098100
     18 P24        -7.4500   -0.9320   -0.3010 p5        1 528      1.293400
     19 O25        -7.8030   -0.9040    1.1460 o         1 528     -0.898500
     20 O26        -6.0670   -0.3370   -0.4790 o         1 528     -0.898500
     21 C15        -8.4160   -0.3370   -1.4750 c3        1 528     -0.432600
     22 C1         -9.4850    0.6100   -0.9220 c3        1 528     -0.153400
     23 C2        -10.8910    0.1600   -1.4300 c         1 528      0.932600
     24 O14       -11.7710    1.0250   -1.6600 o         1 528     -0.820300
     25 O13       -11.0490   -1.0910   -1.5430 o         1 528     -0.820300
     26 C3         -9.0660    2.0140   -1.2280 ca        1 528     -0.008300
     27 C8         -7.8230    2.3830   -0.6930 ca        1 528     -0.159000
     28 C4         -9.7020    2.9090   -2.0940 ca        1 528     -0.063000
     29 C5         -9.0430    4.0810   -2.4830 ca        1 528     -0.138000
     30 C6         -7.7300    4.3440   -2.0860 ca        1 528     -0.119000
     31 C7         -7.1060    3.4690   -1.1930 ca        1 528     -0.187300
     32 C9         -5.6650    3.5470   -0.8230 c3        1 528      0.188100
     33 N10        -4.9810    2.2540   -1.1590 nz        1 528     -0.877600
     34 H37        -2.5930    0.4030   -1.1140 ha        1 528      0.140500
     35 H38        -0.7690    1.7080   -2.1940 ha        1 528      0.140500
     36 H41         0.7000    3.1850   -0.8190 ha        1 528      0.142000
     37 H40         0.3380    3.3510    1.6460 ha        1 528      0.140500
     38 H39        -1.4900    2.0560    2.7310 ha        1 528      0.140500
     39 H351       -3.2920    0.6020    2.6320 hc        1 528      0.060200
     40 H352       -4.2650    0.8030    1.1210 hc        1 528      0.060200
     41 H341       -2.9750   -1.2650    0.1910 hc        1 528      0.064200
     42 H342       -2.3960   -1.5280    1.8930 hc        1 528      0.064200
     43 H331       -4.6150   -1.8590    2.7260 h1        1 528      0.183200
     44 H332       -5.3600   -0.9680    1.3570 h1        1 528      0.183200
     45 HN31       -6.8910   -4.1820    0.8160 hn        1 528      0.476300
     46 H27        -6.4550   -2.8500   -1.3960 hx        1 528      0.115700
     47 H28        -9.3580   -2.5190   -0.8430 hc        1 528      0.139700
     48 H301       -9.5270   -4.0650   -2.7210 hc        1 528      0.043533
     49 H302       -8.1750   -2.9230   -3.0790 hc        1 528      0.043533
     50 H303       -7.8030   -4.6120   -2.5360 hc        1 528      0.043533
     51 H291      -10.0030   -4.8080   -0.4760 hc        1 528      0.043533
     52 H292       -8.3070   -5.3470   -0.1770 hc        1 528      0.043533
     53 H293       -9.1300   -4.1800    0.9670 hc        1 528      0.043533
     54 H151       -7.8020    0.2060   -2.2430 hc        1 528      0.119200
     55 H152       -8.9720   -1.1050   -2.0910 hc        1 528      0.119200
     56 H1         -9.5420    0.4870    0.2000 hc        1 528      0.086700
     57 H8         -7.3860    1.7210    0.0790 ha        1 528      0.131000
     58 H4        -10.7200    2.6670   -2.4620 ha        1 528      0.215000
     59 H5         -9.5570    4.7910   -3.1480 ha        1 528      0.139000
     60 H6         -7.1980    5.2240   -2.4710 ha        1 528      0.123000
     61 H91        -5.1420    4.3780   -1.3730 hx        1 528      0.086200
     62 H92        -5.5470    3.7040    0.2870 hx        1 528      0.086200
     63 H101       -5.4960    1.4260   -0.7440 hn        1 528      0.467467
     64 H102       -4.9720    2.1180   -2.1690 hn        1 528      0.467467
     65 H312       -7.0470   -2.6510    1.4470 hn        1 528      0.476300
     66 H103       -4.0210    2.2510   -0.8070 hn        1 528      0.467467
@<TRIPOS>BOND
     1    1    2 ar  
     2    1    6 ar  
     3    1   34 1   
     4    2    3 ar  
     5    2   35 1   
     6    3    4 ar  
     7    3   36 1   
     8    4    5 ar  
     9    4   37 1   
    10    5    6 ar  
    11    5   38 1   
    12    6    7 1   
    13    7    8 1   
    14    7   39 1   
    15    7   40 1   
    16    8    9 1   
    17    8   41 1   
    18    8   42 1   
    19    9   10 1   
    20    9   43 1   
    21    9   44 1   
    22   10   11 2   
    23   10   12 2   
    24   10   13 1   
    25   13   14 1   
    26   13   45 1   
    27   13   65 1   
    28   14   15 1   
    29   14   18 1   
    30   14   46 1   
    31   15   16 1   
    32   15   17 1   
    33   15   47 1   
    34   16   48 1   
    35   16   49 1   
    36   16   50 1   
    37   17   51 1   
    38   17   52 1   
    39   17   53 1   
    40   18   19 1   
    41   18   20 1   
    42   18   21 1   
    43   21   22 1   
    44   21   54 1   
    45   21   55 1   
    46   22   23 1   
    47   22   26 1   
    48   22   56 1   
    49   23   24 1   
    50   23   25 1   
    51   26   27 ar  
    52   26   28 ar  
    53   27   31 ar  
    54   27   57 1   
    55   28   29 ar  
    56   28   58 1   
    57   29   30 ar  
    58   29   59 1   
    59   30   31 ar  
    60   30   60 1   
    61   31   32 1   
    62   32   33 1   
    63   32   61 1   
    64   32   62 1   
    65   33   63 1   
    66   33   64 1   
    67   33   66 1   
@<TRIPOS>SUBSTRUCTURE
     1 528         1 TEMP              0 ****  ****    0 ROOT
