@<TRIPOS>MOLECULE
528
   67    68     1     0     0
SMALL
bcc


@<TRIPOS>ATOM
      1 C37         0.8120    0.0510    0.7720 ca        1 528     -0.122500
      2 C38         2.1900   -0.0440    0.5870 ca        1 528     -0.123000
      3 C41         2.9090   -1.0720    1.1960 ca        1 528     -0.116000
      4 C40         2.2470   -2.0060    1.9940 ca        1 528     -0.123000
      5 C39         0.8690   -1.9120    2.1820 ca        1 528     -0.122500
      6 C36         0.1430   -0.8830    1.5700 ca        1 528     -0.106300
      7 C35        -1.3270   -0.7770    1.7820 c3        1 528     -0.021100
      8 C34        -2.0690   -1.7770    0.9130 c3        1 528     -0.055400
      9 C33        -3.5730   -1.6750    1.1360 c3        1 528     -0.409600
     10 S32        -4.3720   -2.7630    0.1890 s6        1 528      1.404900
     11 O32        -4.4680   -2.4740   -1.1550 o         1 528     -0.575300
     12 O33        -4.1670   -4.0780    0.5780 o         1 528     -0.575300
     13 N31        -6.1610   -2.5710    0.8440 n4        1 528     -0.650900
     14 C27        -7.1370   -2.0290   -0.1160 c3        1 528     -0.156700
     15 C28        -8.5670   -2.5750    0.0210 c3        1 528     -0.093700
     16 C30        -8.8210   -3.6490   -1.0200 c3        1 528     -0.106600
     17 C29        -8.9200   -3.1160    1.3930 c3        1 528     -0.106600
     18 P24        -7.1600   -0.3050   -0.0140 p5        1 528      1.521100
     19 O25        -5.7620    0.0380    0.2740 o         1 528     -0.894300
     20 O26        -8.0450   -0.0390    1.2760 oh        1 528     -0.808400
     21 C15        -7.8870    0.2420   -1.3590 c3        1 528     -0.460600
     22 C1         -8.6800    1.5120   -1.1150 c3        1 528     -0.140400
     23 C2        -10.2010    1.2530   -0.7440 c         1 528      0.946600
     24 O14       -10.5080    0.1280   -0.2690 o         1 528     -0.833300
     25 O13       -11.0250    2.1990   -0.8900 o         1 528     -0.833300
     26 C3         -8.6820    2.4670   -2.2600 ca        1 528     -0.051300
     27 C8         -9.3060    3.6950   -1.9880 ca        1 528     -0.069000
     28 C4         -8.3220    2.1830   -3.5800 ca        1 528     -0.092000
     29 C5         -8.6480    3.0750   -4.6070 ca        1 528     -0.124000
     30 C6         -9.4450    4.1890   -4.3540 ca        1 528     -0.097000
     31 C7         -9.8120    4.4710   -3.0340 ca        1 528     -0.180300
     32 C9        -10.9020    5.4260   -2.6840 c3        1 528      0.184100
     33 N10       -12.0260    4.6440   -2.0600 n4        1 528     -0.855600
     34 H37         0.2500    0.8680    0.2940 ha        1 528      0.130500
     35 H38         2.7110    0.6960   -0.0400 ha        1 528      0.140500
     36 H41         3.9980   -1.1460    1.0510 ha        1 528      0.142000
     37 H40         2.8130   -2.8150    2.4800 ha        1 528      0.140500
     38 H39         0.3510   -2.6450    2.8170 ha        1 528      0.130500
     39 H351       -1.6800    0.2610    1.5410 hc        1 528      0.059200
     40 H352       -1.5670   -0.9710    2.8620 hc        1 528      0.059200
     41 H341       -1.8330   -1.5710   -0.1660 hc        1 528      0.070700
     42 H342       -1.7170   -2.8150    1.1630 hc        1 528      0.070700
     43 H331       -3.8620   -0.5880    0.9270 h1        1 528      0.189700
     44 H332       -3.7560   -1.7870    2.2410 h1        1 528      0.189700
     45 HN31       -6.1810   -1.9680    1.6700 hn        1 528      0.451300
     46 H27        -6.7720   -2.3320   -1.1480 hx        1 528      0.138700
     47 H28        -9.2790   -1.7140   -0.1890 hc        1 528      0.116700
     48 H301       -8.6830   -3.2420   -2.0510 hc        1 528      0.053533
     49 H302       -8.1290   -4.5130   -0.8790 hc        1 528      0.053533
     50 H303       -9.8720   -4.0200   -0.9300 hc        1 528      0.053533
     51 H291      -10.0260   -3.2900    1.4330 hc        1 528      0.053533
     52 H292       -8.4230   -4.0960    1.5950 hc        1 528      0.053533
     53 H293       -8.6660   -2.3930    2.2060 hc        1 528      0.053533
     54 HO26       -9.0020    0.0730    1.1950 ho        1 528      0.528000
     55 H151       -8.6020   -0.4920   -1.8310 hc        1 528      0.134700
     56 H152       -7.1150    0.4450   -2.1530 hc        1 528      0.134700
     57 H1         -8.2440    2.0310   -0.2120 hc        1 528      0.060700
     58 H8         -9.4880    3.9810   -0.9380 ha        1 528      0.146000
     59 H4         -7.8090    1.2450   -3.8400 ha        1 528      0.140000
     60 H5         -8.3170    2.8630   -5.6360 ha        1 528      0.151000
     61 H6         -9.7900    4.8270   -5.1810 ha        1 528      0.143000
     62 H91       -11.3000    5.9590   -3.5930 hx        1 528      0.099200
     63 H92       -10.5570    6.1870   -1.9270 hx        1 528      0.099200
     64 H101      -12.4020    3.9720   -2.7370 hn        1 528      0.470467
     65 H102      -12.7670    5.2630   -1.7400 hn        1 528      0.470467
     66 H312       -6.4690   -3.5030    1.1410 hn        1 528      0.451300
     67 H103      -11.6620    4.0780   -1.2630 hn        1 528      0.470467
@<TRIPOS>BOND
     1    1    2 ar  
     2    1    6 ar  
     3    1   34 1   
     4    2    3 ar  
     5    2   35 1   
     6    3    4 ar  
     7    3   36 1   
     8    4    5 ar  
     9    4   37 1   
    10    5    6 ar  
    11    5   38 1   
    12    6    7 1   
    13    7    8 1   
    14    7   39 1   
    15    7   40 1   
    16    8    9 1   
    17    8   41 1   
    18    8   42 1   
    19    9   10 1   
    20    9   43 1   
    21    9   44 1   
    22   10   11 2   
    23   10   12 2   
    24   10   13 1   
    25   13   14 1   
    26   13   45 1   
    27   13   66 1   
    28   14   15 1   
    29   14   18 1   
    30   14   46 1   
    31   15   16 1   
    32   15   17 1   
    33   15   47 1   
    34   16   48 1   
    35   16   49 1   
    36   16   50 1   
    37   17   51 1   
    38   17   52 1   
    39   17   53 1   
    40   18   19 2   
    41   18   20 1   
    42   18   21 1   
    43   20   54 1   
    44   21   22 1   
    45   21   55 1   
    46   21   56 1   
    47   22   23 1   
    48   22   26 1   
    49   22   57 1   
    50   23   24 1   
    51   23   25 1   
    52   26   27 ar  
    53   26   28 ar  
    54   27   31 ar  
    55   27   58 1   
    56   28   29 ar  
    57   28   59 1   
    58   29   30 ar  
    59   29   60 1   
    60   30   31 ar  
    61   30   61 1   
    62   31   32 1   
    63   32   33 1   
    64   32   62 1   
    65   32   63 1   
    66   33   64 1   
    67   33   65 1   
    68   33   67 1   
@<TRIPOS>SUBSTRUCTURE
     1 528         1 TEMP              0 ****  ****    0 ROOT
