@<TRIPOS>MOLECULE
529
   44    47     1     0     0
SMALL
bcc


@<TRIPOS>ATOM
      1 N1          3.3950   -1.1050    0.0360 n         1 529     -0.366000
      2 C2          4.4410   -1.2260   -0.9780 c3        1 529      0.060000
      3 C3          5.5230   -2.1580   -0.3480 c3        1 529      0.042000
      4 N4          5.1050   -2.3610    1.0310 n         1 529     -0.518900
      5 C5          3.8100   -1.7930    1.2200 c         1 529      0.773500
      6 N6         -3.8490   -0.9700    1.2370 nc        1 529     -0.145600
      7 N7         -3.4170    0.0940    1.6510 nd        1 529     -0.203300
      8 C8         -2.8150    0.8860    0.4990 cd        1 529      0.624600
      9 C9         -3.0120   -0.0150   -0.6990 cd        1 529     -0.298600
     10 C10        -3.6420   -1.1280   -0.2270 cc        1 529      0.084400
     11 C11        -4.0780   -2.3140   -0.9430 cx        1 529     -0.089500
     12 C12        -4.0080   -3.6780   -0.2930 cx        1 529     -0.106400
     13 C13        -5.3390   -3.0440   -0.5370 cx        1 529     -0.106400
     14 C15        -1.7110    2.7990   -0.4170 c         1 529      0.703500
     15 C16        -0.2750    3.2850   -0.2210 c3        1 529     -0.066400
     16 C18         0.6740    2.1370   -0.1220 ca        1 529     -0.128300
     17 C19         1.4310    1.7740   -1.2420 ca        1 529     -0.091000
     18 C20         2.3370    0.7230   -1.1850 ca        1 529     -0.171000
     19 C21         2.5150   -0.0090    0.0130 ca        1 529      0.084600
     20 C22         1.7460    0.3600    1.1400 ca        1 529     -0.171000
     21 C23         0.8460    1.4160    1.0630 ca        1 529     -0.091000
     22 O24         3.1550   -1.9100    2.2690 o         1 529     -0.612500
     23 C25        -0.1960    4.2250    0.9660 c3        1 529     -0.088100
     24 H2          4.0050   -1.6860   -1.9030 h1        1 529      0.062700
     25 H21         4.8880   -0.2290   -1.2380 h1        1 529      0.062700
     26 H3          5.5950   -3.1190   -0.9220 h1        1 529      0.059200
     27 H31         6.5280   -1.6590   -0.3510 h1        1 529      0.059200
     28 H4          5.2490   -3.2600    1.4310 hn        1 529      0.315500
     29 H9         -2.7040    0.2530   -1.7060 ha        1 529      0.190000
     30 H11        -3.8480   -2.2470   -2.0270 hc        1 529      0.092700
     31 H121       -3.6910   -4.5320   -0.9190 hc        1 529      0.081700
     32 H122       -3.6340   -3.7620    0.7430 hc        1 529      0.081700
     33 H131       -5.9240   -2.6710    0.3240 hc        1 529      0.081700
     34 H132       -5.9890   -3.4360   -1.3400 hc        1 529      0.081700
     35 H16        -0.0300    3.8790   -1.1520 hc        1 529      0.082700
     36 H19         1.3130    2.3280   -2.1870 ha        1 529      0.143000
     37 H20         2.9040    0.4660   -2.0930 ha        1 529      0.155000
     38 H22         1.8470   -0.1870    2.0930 ha        1 529      0.155000
     39 H23         0.2600    1.6810    1.9590 ha        1 529      0.143000
     40 H251        0.8440    4.6200    1.0590 hc        1 529      0.051700
     41 H252       -0.8950    5.0840    0.8170 hc        1 529      0.051700
     42 H253       -0.4670    3.7100    1.9190 hc        1 529      0.051700
     43 O17        -2.3760    3.1490   -1.4030 o         1 529     -0.540100
     44 N14        -2.2760    2.0380    0.6420 ne        1 529     -0.582100
@<TRIPOS>BOND
     1    1    2 1   
     2    1    5 1   
     3    1   19 1   
     4    2    3 1   
     5    2   24 1   
     6    2   25 1   
     7    3    4 1   
     8    3   26 1   
     9    3   27 1   
    10    4    5 1   
    11    4   28 1   
    12    5   22 2   
    13    6    7 2   
    14    6   10 1   
    15    7    8 1   
    16    8    9 1   
    17    8   44 2   
    18    9   10 2   
    19    9   29 1   
    20   10   11 1   
    21   11   12 1   
    22   11   13 1   
    23   11   30 1   
    24   12   13 1   
    25   12   31 1   
    26   12   32 1   
    27   13   33 1   
    28   13   34 1   
    29   14   15 1   
    30   14   43 2   
    31   14   44 1   
    32   15   16 1   
    33   15   23 1   
    34   15   35 1   
    35   16   17 ar  
    36   16   21 ar  
    37   17   18 ar  
    38   17   36 1   
    39   18   19 ar  
    40   18   37 1   
    41   19   20 ar  
    42   20   21 ar  
    43   20   38 1   
    44   21   39 1   
    45   23   40 1   
    46   23   41 1   
    47   23   42 1   
@<TRIPOS>SUBSTRUCTURE
     1 529         1 TEMP              0 ****  ****    0 ROOT
