@<TRIPOS>MOLECULE
529
   44    47     1     0     0
SMALL
bcc


@<TRIPOS>ATOM
      1 N1          0.1280    0.3250   -1.0100 n         1 529     -0.336000
      2 C2          2.0710   -1.3540    0.7150 c3        1 529     -0.254000
      3 C3          2.4370    0.0430    0.9860 c1        1 529     -0.105000
      4 N4          1.8750    1.1300    0.5390 n         1 529     -0.184000
      5 C5          0.7370    1.3750   -0.3290 c2        1 529      0.318000
      6 N6         -5.1310   -4.5270   -6.1890 n2        1 529     -0.003000
      7 N7         -4.5880   -3.4360   -6.2570 n2        1 529      0.012000
      8 C8         -5.1530   -2.5140   -5.1850 c2        1 529      0.027000
      9 C9         -6.1700   -3.3750   -4.4700 c2        1 529     -0.214000
     10 C10        -6.1440   -4.5830   -5.1010 c2        1 529     -0.052000
     11 C11        -6.9250   -5.7790   -4.8380 cx        1 529     -0.135000
     12 C12        -7.3750   -6.6740   -5.9710 cx        1 529     -0.184500
     13 C13        -6.3240   -7.1540   -5.0230 cx        1 529     -0.184500
     14 C15        -5.2910   -0.4500   -4.0000 c2        1 529      0.271000
     15 C16        -4.2770    0.4830   -3.3440 c3        1 529     -0.064000
     16 C18        -3.0770   -0.2690   -2.8670 cx        1 529     -0.154000
     17 C19        -1.9720   -0.5350   -3.8940 c3        1 529     -0.246000
     18 C20        -0.7080    0.0110   -3.3530 c1        1 529      0.040000
     19 C21        -0.9250    0.5930   -1.9470 c3        1 529      0.026000
     20 C22        -2.2590    0.0450   -1.6190 cu        1 529     -0.161000
     21 C23        -3.0700   -0.9940   -1.5560 cu        1 529     -0.125000
     22 O24         0.3120    2.5480   -0.4240 o         1 529     -0.365000
     23 C25        -4.9470    1.2610   -2.2280 c3        1 529     -0.211000
     24 H2          0.5820   -0.5540   -1.0860 hn        1 529      0.237000
     25 H21         2.3790   -1.6500   -0.3220 hc        1 529      0.100667
     26 H3          2.6390   -1.9960    1.4360 hc        1 529      0.100667
     27 H31         0.9800   -1.5710    0.8490 hc        1 529      0.100667
     28 H4          2.2600    2.0000    0.8690 hn        1 529      0.274000
     29 H9         -6.7840   -3.0110   -3.6510 ha        1 529      0.196000
     30 H11        -7.6260   -5.6320   -3.9880 hc        1 529      0.134000
     31 H121       -7.0890   -6.4170   -7.0070 hc        1 529      0.121500
     32 H122       -8.3920   -7.1020   -5.9170 hc        1 529      0.121500
     33 H131       -5.2810   -7.2440   -5.3770 hc        1 529      0.121500
     34 H132       -6.5780   -7.9320   -4.2800 hc        1 529      0.121500
     35 H16        -3.9590    1.2120   -4.1470 hc        1 529      0.127000
     36 H19        -1.8240   -1.6320   -4.0920 hc        1 529      0.163000
     37 H20        -2.2000   -0.0630   -4.8880 hc        1 529      0.163000
     38 H22        -1.0140    1.7230   -2.0970 h1        1 529      0.187000
     39 H23        -3.5330   -1.7890   -1.0080 ha        1 529      0.199000
     40 H251       -5.3050    0.5700   -1.4280 hc        1 529      0.092333
     41 H252       -5.8250    1.8230   -2.6260 hc        1 529      0.092333
     42 H253       -4.2190    1.9810   -1.7810 hc        1 529      0.092333
     43 O17        -6.5030   -0.4000   -3.7460 o         1 529     -0.298000
     44 N14        -4.7640   -1.3050   -5.0170 n2        1 529     -0.164000
@<TRIPOS>BOND
     1    1    5 1   
     2    1   19 1   
     3    1   24 1   
     4    2    3 1   
     5    2   25 1   
     6    2   26 1   
     7    2   27 1   
     8    3    4 1   
     9    4    5 1   
    10    4   28 1   
    11    5   22 1   
    12    6    7 1   
    13    6   10 1   
    14    7    8 1   
    15    8    9 1   
    16    8   44 1   
    17    9   10 1   
    18    9   29 1   
    19   10   11 1   
    20   11   12 1   
    21   11   13 1   
    22   11   30 1   
    23   12   13 1   
    24   12   31 1   
    25   12   32 1   
    26   13   33 1   
    27   13   34 1   
    28   14   15 1   
    29   14   43 1   
    30   14   44 1   
    31   15   16 1   
    32   15   23 1   
    33   15   35 1   
    34   16   17 1   
    35   16   20 1   
    36   16   21 1   
    37   17   18 1   
    38   17   36 1   
    39   17   37 1   
    40   18   19 1   
    41   19   20 1   
    42   19   38 1   
    43   20   21 1   
    44   21   39 1   
    45   23   40 1   
    46   23   41 1   
    47   23   42 1   
@<TRIPOS>SUBSTRUCTURE
     1 529         1 TEMP              0 ****  ****    0 ROOT
