@<TRIPOS>MOLECULE
529
   44    46     1     0     0
SMALL
bcc


@<TRIPOS>ATOM
      1 N1         -0.9300   -1.3460   -1.0970 ns        1 529     -0.477100
      2 C2          0.4940   -1.6840    1.6310 c3        1 529     -0.165000
      3 C3         -0.0290   -3.0170    1.3000 c1        1 529     -0.076100
      4 N4         -0.7960   -3.3650    0.3070 ns        1 529     -0.341500
      5 C5         -1.4150   -2.6150   -0.7740 c         1 529      0.702100
      6 N6         -6.3530   -3.9280   -4.6530 nc        1 529     -0.147600
      7 N7         -6.2570   -3.0530   -5.4980 nd        1 529     -0.212300
      8 C8         -4.9950   -2.2310   -5.2440 cd        1 529      0.635600
      9 C9         -4.3980   -2.8650   -4.0090 cd        1 529     -0.288600
     10 C10        -5.2360   -3.8870   -3.6740 cc        1 529      0.083400
     11 C11        -5.1320   -4.8210   -2.5670 cx        1 529     -0.085500
     12 C12        -6.3690   -5.3680   -1.8930 cx        1 529     -0.110900
     13 C13        -5.5270   -6.2700   -2.7380 cx        1 529     -0.110900
     14 C15        -3.5020   -0.4430   -5.8760 c         1 529      0.717500
     15 C16        -3.6710    1.0180   -5.4630 c3        1 529     -0.123700
     16 C18        -3.0980    1.2710   -4.0710 c3        1 529      0.048400
     17 C19        -1.5200    1.1050   -4.0280 c3        1 529     -0.053200
     18 C20        -0.8700    0.2240   -3.0020 c2        1 529     -0.197200
     19 C21        -1.5320   -0.5390   -2.0630 ce        1 529      0.191900
     20 C22        -2.9370   -0.3350   -2.2210 cg        1 529     -0.167300
     21 C23        -3.5180    0.3620   -3.0370 c1        1 529     -0.138100
     22 O24        -2.3570   -3.1470   -1.3960 o         1 529     -0.588100
     23 C25        -5.0970    1.5180   -5.5430 c3        1 529     -0.094100
     24 H2         -0.0680   -1.0270   -0.7160 hn        1 529      0.331500
     25 H21         1.4020   -1.4650    1.0110 hc        1 529      0.062367
     26 H3          0.8120   -1.7090    2.7060 hc        1 529      0.062367
     27 H31        -0.2420   -0.8480    1.5130 hc        1 529      0.062367
     28 H4         -1.0820   -4.3290    0.2800 hn        1 529      0.360500
     29 H9         -3.4900   -2.5240   -3.5120 ha        1 529      0.207000
     30 H11        -4.2490   -4.5900   -1.9290 hc        1 529      0.115700
     31 H121       -7.3650   -5.0620   -2.2610 hc        1 529      0.078200
     32 H122       -6.3510   -5.4810   -0.7940 hc        1 529      0.078200
     33 H131       -5.9170   -6.6100   -3.7140 hc        1 529      0.078200
     34 H132       -4.8990   -7.0380   -2.2530 hc        1 529      0.078200
     35 H16        -3.0450    1.6070   -6.1980 hc        1 529      0.085700
     36 H19        -1.1980    0.7110   -5.0330 hc        1 529      0.077200
     37 H20        -1.0990    2.1380   -3.9050 hc        1 529      0.077200
     38 H22         0.2290    0.2100   -3.0620 ha        1 529      0.145000
     39 H23        -3.3510    2.3340   -3.7910 hc        1 529      0.080700
     40 H251       -5.7360    1.0340   -4.7660 hc        1 529      0.053033
     41 H252       -5.5330    1.3060   -6.5500 hc        1 529      0.053033
     42 H253       -5.1170    2.6230   -5.3760 hc        1 529      0.053033
     43 O17        -2.3980   -0.8570   -6.2640 o         1 529     -0.548100
     44 N14        -4.6550   -1.2480   -5.9820 ne        1 529     -0.592100
@<TRIPOS>BOND
     1    1    5 1   
     2    1   19 1   
     3    1   24 1   
     4    2    3 1   
     5    2   25 1   
     6    2   26 1   
     7    2   27 1   
     8    3    4 3   
     9    4    5 1   
    10    4   28 1   
    11    5   22 2   
    12    6    7 2   
    13    6   10 1   
    14    7    8 1   
    15    8    9 1   
    16    8   44 2   
    17    9   10 2   
    18    9   29 1   
    19   10   11 1   
    20   11   12 1   
    21   11   13 1   
    22   11   30 1   
    23   12   13 1   
    24   12   31 1   
    25   12   32 1   
    26   13   33 1   
    27   13   34 1   
    28   14   15 1   
    29   14   43 2   
    30   14   44 1   
    31   15   16 1   
    32   15   23 1   
    33   15   35 1   
    34   16   17 1   
    35   16   21 1   
    36   16   39 1   
    37   17   18 1   
    38   17   36 1   
    39   17   37 1   
    40   18   19 2   
    41   18   38 1   
    42   19   20 1   
    43   20   21 3   
    44   23   40 1   
    45   23   41 1   
    46   23   42 1   
@<TRIPOS>SUBSTRUCTURE
     1 529         1 TEMP              0 ****  ****    0 ROOT
