@<TRIPOS>MOLECULE
529
   44    44     1     0     0
SMALL
bcc


@<TRIPOS>ATOM
      1 N1         -0.5610   -0.1720   -0.3280 n         1 529     -0.321000
      2 C2          1.1630   -1.8500    1.6010 c3        1 529     -0.254000
      3 C3          1.5110   -0.4560    1.9120 c1        1 529     -0.102000
      4 N4          1.0300    0.6360    1.3870 n         1 529     -0.184000
      5 C5          0.0280    0.8880    0.3700 c2        1 529      0.305000
      6 N6         -7.3870   -3.8740   -4.1410 n2        1 529      0.006000
      7 N7         -7.4210   -2.6570   -4.2310 n2        1 529      0.022000
      8 C8         -6.1230   -2.1520   -4.8430 c2        1 529      0.028000
      9 C9         -5.3210   -3.4160   -5.0790 c2        1 529     -0.208000
     10 C10        -6.1120   -4.4370   -4.6530 c2        1 529     -0.084000
     11 C11        -5.8600   -5.8960   -4.6340 c3        1 529      0.012000
     12 C12        -7.5030   -7.2430   -6.1840 c1        1 529     -0.176000
     13 C13        -6.7600   -6.6220   -5.4820 c1        1 529     -0.180000
     14 C15        -4.6770   -0.4050   -5.6130 c2        1 529      0.276000
     15 C16        -3.8960    0.6010   -4.7620 c3        1 529     -0.053000
     16 C18        -3.1850   -0.1050   -3.6760 c2        1 529     -0.121000
     17 C19        -1.7820   -0.6590   -3.8940 c3        1 529     -0.193000
     18 C20        -0.8920   -0.4180   -2.7570 c1        1 529     -0.026000
     19 C21        -1.4090    0.1260   -1.4590 c3        1 529     -0.028000
     20 C22        -2.8470   -0.3830   -1.2700 c2        1 529     -0.123000
     21 C23        -3.5120   -0.2170   -2.3980 c1        1 529     -0.143000
     22 O24        -0.3290    2.0710    0.1790 o         1 529     -0.364000
     23 C25        -4.8040    1.6990   -4.2470 c3        1 529     -0.205000
     24 H2          1.5760   -2.1510    0.6030 hc        1 529      0.101000
     25 H21        -0.0600   -1.0310   -0.3950 hn        1 529      0.231000
     26 H3          1.6430   -2.4980    2.3800 hc        1 529      0.101000
     27 H31         0.0610   -2.0530    1.6180 hc        1 529      0.101000
     28 H4          1.3830    1.5020    1.7600 hn        1 529      0.274000
     29 H9         -4.3340   -3.4230   -5.5330 ha        1 529      0.186000
     30 H11        -4.7970   -6.0860   -4.9610 hc        1 529      0.120000
     31 H121       -5.9600   -6.2740   -3.5730 hc        1 529      0.120000
     32 H122       -3.4380   -7.4720   -2.6980 ha        1 529      0.000000
     33 H131       -8.1640   -7.7930   -6.8050 ha        1 529      0.227000
     34 H132       -3.8760   -7.1410   -3.0960 ha        1 529      0.000000
     35 H16        -3.1330    1.0610   -5.4600 hc        1 529      0.127000
     36 H19        -1.7840   -1.7720   -4.0740 hc        1 529      0.158500
     37 H20        -1.3270   -0.1860   -4.8100 hc        1 529      0.158500
     38 H22        -1.4340    1.2620   -1.6150 h1        1 529      0.188000
     39 H23        -3.1570   -0.8870   -0.3540 ha        1 529      0.176000
     40 H251       -4.1860    2.5330   -3.8350 hc        1 529      0.094667
     41 H252       -5.4710    1.3190   -3.4350 hc        1 529      0.094667
     42 H253       -5.4380    2.0970   -5.0760 hc        1 529      0.094667
     43 O17        -4.3300   -0.6620   -6.7740 o         1 529     -0.296000
     44 N14        -5.8750   -0.9160   -5.0520 n2        1 529     -0.141000
@<TRIPOS>BOND
     1    1    5 1   
     2    1   19 1   
     3    1   25 1   
     4    2    3 1   
     5    2   24 1   
     6    2   26 1   
     7    2   27 1   
     8    3    4 1   
     9    4    5 1   
    10    4   28 1   
    11    5   22 1   
    12    6    7 1   
    13    6   10 1   
    14    7    8 1   
    15    8    9 1   
    16    8   44 1   
    17    9   10 1   
    18    9   29 1   
    19   10   11 1   
    20   11   13 1   
    21   11   30 1   
    22   11   31 1   
    23   12   13 1   
    24   12   33 1   
    25   14   15 1   
    26   14   43 1   
    27   14   44 1   
    28   15   16 1   
    29   15   23 1   
    30   15   35 1   
    31   16   17 1   
    32   16   21 1   
    33   17   18 1   
    34   17   36 1   
    35   17   37 1   
    36   18   19 1   
    37   19   20 1   
    38   19   38 1   
    39   20   21 1   
    40   20   39 1   
    41   23   40 1   
    42   23   41 1   
    43   23   42 1   
    44   32   34 1   
@<TRIPOS>SUBSTRUCTURE
     1 529         1 TEMP              0 ****  ****    0 ROOT
