@<TRIPOS>MOLECULE
52A
   20    20     1     0     0
SMALL
bcc


@<TRIPOS>ATOM
      1 N          -0.6800   -4.4830    1.4730 n3        1 52A     -0.895800
      2 CA         -1.7500   -3.5270    1.2050 c3        1 52A      0.031200
      3 C          -3.1110   -4.2830    1.0210 c         1 52A      0.920600
      4 O          -4.1440   -3.8470    1.6040 o         1 52A     -0.863800
      5 OXT        -3.1230   -5.3090    0.2750 o         1 52A     -0.863800
      6 CB1        -1.5240   -2.6400   -0.0540 c3        1 52A     -0.104400
      7 CB2        -1.8620   -2.4760    2.3550 c3        1 52A      0.168800
      8 CG1        -1.8110   -1.1860    0.3630 c3        1 52A      0.052500
      9 NG2        -2.1700   -1.1660    1.7910 n3        1 52A     -0.773200
     10 CD         -0.6290   -0.2310    0.0260 c         1 52A      0.925600
     11 OE1        -0.9280    0.9470   -0.3390 o         1 52A     -0.870300
     12 OE2         0.5630   -0.6500    0.0640 o         1 52A     -0.870300
     13 HN1         0.1960   -4.0820    1.1930 hn        1 52A      0.331300
     14 HN2        -0.8460   -5.3010    0.9140 hn        1 52A      0.331300
     15 HB11       -2.2090   -2.9600   -0.8750 hc        1 52A      0.038700
     16 HB12       -0.4710   -2.7130   -0.4280 hc        1 52A      0.038700
     17 HB21       -2.6500   -2.8000    3.0840 h1        1 52A      0.032200
     18 HB22       -0.8830   -2.3790    2.9000 h1        1 52A      0.032200
     19 HG1        -2.6860   -0.8020   -0.2400 h1        1 52A      0.016700
     20 HNG2       -3.1650   -1.0250    1.8520 hn        1 52A      0.320800
@<TRIPOS>BOND
     1    1    2 1   
     2    1   13 1   
     3    1   14 1   
     4    2    3 1   
     5    2    6 1   
     6    2    7 1   
     7    3    4 1   
     8    3    5 1   
     9    6    8 1   
    10    6   15 1   
    11    6   16 1   
    12    7    9 1   
    13    7   17 1   
    14    7   18 1   
    15    8    9 1   
    16    8   10 1   
    17    8   19 1   
    18    9   20 1   
    19   10   11 1   
    20   10   12 1   
@<TRIPOS>SUBSTRUCTURE
     1 52A         1 TEMP              0 ****  ****    0 ROOT
