@<TRIPOS>MOLECULE
52A
   20    20     1     0     0
SMALL
bcc


@<TRIPOS>ATOM
      1 N           2.0640    0.0400    0.6600 n3        1 52A     -0.895800
      2 CA          0.6460    0.1610    0.6510 c3        1 52A      0.031200
      3 C           0.4270    0.2600    2.2400 c         1 52A      0.920600
      4 O           0.0260   -0.7450    2.8840 o         1 52A     -0.863800
      5 OXT         0.6560    1.3420    2.8420 o         1 52A     -0.863800
      6 CB1        -0.1340   -1.0500   -0.0640 c3        1 52A     -0.104400
      7 CB2         0.1770    1.1920   -0.0400 c3        1 52A      0.168800
      8 CG1        -1.2670   -0.4180   -0.9660 c3        1 52A      0.052500
      9 NG2        -1.2910    0.8120   -0.5730 n3        1 52A     -0.773200
     10 CD         -1.0200   -0.5920   -2.5240 c         1 52A      0.925600
     11 OE1        -0.6040   -1.6900   -2.9770 o         1 52A     -0.870300
     12 OE2        -1.2420    0.3690   -3.3070 o         1 52A     -0.870300
     13 HN1         2.3050   -0.6830    1.1680 hn        1 52A      0.331300
     14 HN2         2.4330    0.8000    1.0140 hn        1 52A      0.331300
     15 HB11       -0.5330   -1.6330    0.6130 hc        1 52A      0.038700
     16 HB12        0.4870   -1.5630   -0.6200 hc        1 52A      0.038700
     17 HB21        0.1250    1.9810    0.5380 h1        1 52A      0.032200
     18 HB22        0.7670    1.3770   -0.8000 h1        1 52A      0.032200
     19 HG1        -2.1290   -0.8640   -0.8460 h1        1 52A      0.016700
     20 HNG2       -1.8950    0.9030    0.1070 hn        1 52A      0.320800
@<TRIPOS>BOND
     1    1    2 1   
     2    1   13 1   
     3    1   14 1   
     4    2    3 1   
     5    2    6 1   
     6    2    7 1   
     7    3    4 1   
     8    3    5 1   
     9    6    8 1   
    10    6   15 1   
    11    6   16 1   
    12    7    9 1   
    13    7   17 1   
    14    7   18 1   
    15    8    9 1   
    16    8   10 1   
    17    8   19 1   
    18    9   20 1   
    19   10   11 1   
    20   10   12 1   
@<TRIPOS>SUBSTRUCTURE
     1 52A         1 TEMP              0 ****  ****    0 ROOT
