@<TRIPOS>MOLECULE
52B
   23    21     1     0     0
SMALL
bcc


@<TRIPOS>ATOM
      1 C1         -2.4920   -0.5970   -0.1710 c1        1 52B     -0.095000
      2 F1          1.4530    2.2650    0.2550 f         1 52B     -0.172000
      3 CL1        -4.8290   -0.8430    1.0380 cl        1 52B     -0.042000
      4 C2         -1.0480   -0.7360    2.1940 c1        1 52B     -0.079000
      5 F2          3.3850    1.7830   -0.6490 f         1 52B     -0.172000
      6 CL2        -0.2050   -0.9450    3.6900 cl        1 52B     -0.008000
      7 C3         -1.1030   -0.5140   -0.1910 c1        1 52B     -0.057000
      8 F3          2.9670    1.2910    1.4960 f         1 52B     -0.172000
      9 C4         -3.1530   -0.7470    1.0190 c2        1 52B     -0.084000
     10 C5         -2.4410   -0.8180    2.2080 c2        1 52B     -0.117000
     11 C6         -0.3810   -0.5850    1.0000 c2        1 52B      0.090000
     12 C7         -0.4250   -0.0940   -1.4540 c2        1 52B     -0.130000
     13 C8          1.0580    0.1180   -1.4740 c1        1 52B     -0.153000
     14 C9          1.8550    0.0110   -0.1820 c2        1 52B      0.048000
     15 C10         1.7640    0.4030   -2.7830 c2        1 52B      0.369000
     16 O11         1.0950   -0.6450    0.9650 os        1 52B     -0.190000
     17 O12         2.5250   -0.4840   -3.3000 o         1 52B     -0.542500
     18 O13         1.6900    1.6060   -3.3230 o         1 52B     -0.542500
     19 C14         2.4180    1.3880    0.2420 c3        1 52B      0.390000
     20 H1         -3.0040   -0.4270   -0.9980 ha        1 52B      0.152000
     21 H5         -2.9100   -0.9250    3.0460 ha        1 52B      0.149000
     22 H7         -0.9380   -0.0060   -2.2720 ha        1 52B      0.166000
     23 H9          2.7180   -0.4970   -0.3560 h4        1 52B      0.191000
@<TRIPOS>BOND
     1    1    9 1   
     2    1   20 1   
     3    2   19 1   
     4    3    9 1   
     5    4   10 1   
     6    4   11 1   
     7    5   19 1   
     8    7   11 1   
     9    7   12 1   
    10    8   19 1   
    11    9   10 1   
    12   10   21 1   
    13   11   16 1   
    14   12   13 1   
    15   12   22 1   
    16   13   15 1   
    17   14   16 1   
    18   14   19 1   
    19   14   23 1   
    20   15   17 1   
    21   15   18 1   
@<TRIPOS>SUBSTRUCTURE
     1 52B         1 TEMP              0 ****  ****    0 ROOT
