@<TRIPOS>MOLECULE
52B
   23    24     1     0     0
SMALL
bcc


@<TRIPOS>ATOM
      1 C1         -0.0700   -0.1940    0.0070 ca        1 52B     -0.095000
      2 F1          3.0520    3.0780    0.2570 f         1 52B     -0.243300
      3 CL1        -2.4410   -0.5170    1.2260 cl        1 52B     -0.120400
      4 C2          1.3020    0.0630    2.4480 ca        1 52B     -0.000600
      5 F2          5.0140    2.9330   -0.6560 f         1 52B     -0.243300
      6 CL2         2.0870    0.2060    3.9500 cl        1 52B     -0.086400
      7 C3          1.3110    0.0080    0.0020 ca        1 52B     -0.068800
      8 F3          4.7880    2.6680    1.4770 f         1 52B     -0.243300
      9 C4         -0.7530   -0.2690    1.2230 ca        1 52B     -0.005600
     10 C5         -0.0800   -0.1480    2.4390 ca        1 52B     -0.117000
     11 C6          2.0010    0.1470    1.2300 ca        1 52B      0.135100
     12 C7          2.0860    0.0540   -1.2220 ce        1 52B     -0.118200
     13 C8          3.3830    0.4020   -1.1850 cf        1 52B     -0.176400
     14 C9          4.0280    0.7780    0.1010 c3        1 52B      0.163300
     15 C10         4.2970    0.2990   -2.4080 c         1 52B      0.918800
     16 O11         3.3710    0.3090    1.2850 os        1 52B     -0.306900
     17 O12         5.5270    0.1430   -2.1750 o         1 52B     -0.807800
     18 O13         3.7580    0.3400   -3.5430 o         1 52B     -0.807800
     19 C14         4.2070    2.3380    0.2740 c3        1 52B      0.603900
     20 H1         -0.6060   -0.2940   -0.9490 ha        1 52B      0.152000
     21 H5         -0.6310   -0.2120    3.3900 ha        1 52B      0.149000
     22 H7          1.6030   -0.2220   -2.1720 ha        1 52B      0.166000
     23 H9          5.0660    0.3250    0.1590 h1        1 52B      0.151700
@<TRIPOS>BOND
     1    1    7 ar  
     2    1    9 ar  
     3    1   20 1   
     4    2   19 1   
     5    3    9 1   
     6    4    6 1   
     7    4   10 ar  
     8    4   11 ar  
     9    5   19 1   
    10    7   11 ar  
    11    7   12 1   
    12    8   19 1   
    13    9   10 ar  
    14   10   21 1   
    15   11   16 1   
    16   12   13 2   
    17   12   22 1   
    18   13   14 1   
    19   13   15 1   
    20   14   16 1   
    21   14   19 1   
    22   14   23 1   
    23   15   17 1   
    24   15   18 1   
@<TRIPOS>SUBSTRUCTURE
     1 52B         1 TEMP              0 ****  ****    0 ROOT
