@<TRIPOS>MOLECULE
52B
   23    24     1     0     0
SMALL
bcc


@<TRIPOS>ATOM
      1 C1          1.8010   -1.7440   -0.0710 ca        1 52B     -0.095000
      2 F1         -1.3120    0.7370    2.0870 f         1 52B     -0.243300
      3 CL1         4.4670   -1.9250    0.2020 cl        1 52B     -0.120400
      4 C2          1.8950    1.0360   -0.4770 ca        1 52B     -0.000600
      5 F2         -3.3850    0.8700    1.4590 f         1 52B     -0.243300
      6 CL2         2.0060    2.7160   -0.7230 cl        1 52B     -0.086400
      7 C3          0.6160   -1.0400   -0.2880 ca        1 52B     -0.068800
      8 F3         -2.0240    2.5020    1.0620 f         1 52B     -0.243300
      9 C4          3.0190   -1.0610   -0.0620 ca        1 52B     -0.005600
     10 C5          3.0760    0.3180   -0.2670 ca        1 52B     -0.117000
     11 C6          0.6620    0.3610   -0.4820 ca        1 52B      0.135100
     12 C7         -0.6760   -1.6940   -0.3520 ce        1 52B     -0.118200
     13 C8         -1.8000   -0.9590   -0.4100 cf        1 52B     -0.176400
     14 C9         -1.7350    0.5260   -0.3720 c3        1 52B      0.163300
     15 C10        -3.1760   -1.5810   -0.6560 c         1 52B      0.918800
     16 O11        -0.4750    1.1010   -0.7410 os        1 52B     -0.306900
     17 O12        -4.0390   -0.8330   -1.1920 o         1 52B     -0.807800
     18 O13        -3.3340   -2.7890   -0.3450 o         1 52B     -0.807800
     19 C14        -2.1090    1.1280    1.0400 c3        1 52B      0.603900
     20 H1          1.7630   -2.8330    0.0870 ha        1 52B      0.152000
     21 H5          4.0440    0.8430   -0.2600 ha        1 52B      0.149000
     22 H7         -0.7190   -2.7930   -0.3760 ha        1 52B      0.166000
     23 H9         -2.4700    0.9630   -1.1150 h1        1 52B      0.151700
@<TRIPOS>BOND
     1    1    7 ar  
     2    1    9 ar  
     3    1   20 1   
     4    2   19 1   
     5    3    9 1   
     6    4    6 1   
     7    4   10 ar  
     8    4   11 ar  
     9    5   19 1   
    10    7   11 ar  
    11    7   12 1   
    12    8   19 1   
    13    9   10 ar  
    14   10   21 1   
    15   11   16 1   
    16   12   13 2   
    17   12   22 1   
    18   13   14 1   
    19   13   15 1   
    20   14   16 1   
    21   14   19 1   
    22   14   23 1   
    23   15   17 1   
    24   15   18 1   
@<TRIPOS>SUBSTRUCTURE
     1 52B         1 TEMP              0 ****  ****    0 ROOT
