@<TRIPOS>MOLECULE
52C
   17    14     1     0     0
SMALL
bcc


@<TRIPOS>ATOM
      1 C1         -0.0530    0.0910   -2.3210 c1        1 52C     -0.050250
      2 C2          1.3310    0.1630   -2.2980 c1        1 52C     -0.050250
      3 C3          2.0020    0.2130   -1.0860 c1        1 52C     -0.050250
      4 C4          1.2900    0.1890    0.1020 c1        1 52C      0.044900
      5 C5         -0.0950    0.1170    0.0790 cg        1 52C     -0.132000
      6 C6         -0.7660    0.0680   -1.1330 c1        1 52C     -0.050250
      7 C7         -0.8710    0.0780    1.3760 cc        1 52C      0.616000
      8 N8         -1.2410    1.1420    2.1080 nd        1 52C     -0.414000
      9 N9         -1.8890    0.6930    3.1970 nc        1 52C     -0.036000
     10 N10        -1.9200   -0.6480    3.1380 nc        1 52C     -0.036000
     11 N11        -1.2910   -1.0290    2.0120 nc        1 52C     -0.414000
     12 CL1         2.1320    0.2960    1.6250 cl        1 52C     -0.099900
     13 H1         -0.5260    0.0560   -3.1750 ha        1 52C      0.095250
     14 H2          1.8330    0.1800   -3.1350 ha        1 52C      0.095250
     15 H6         -1.7410    0.0170   -1.1490 ha        1 52C      0.095250
     16 H3          2.9770    0.2640   -1.0700 ha        1 52C      0.095250
     17 H11        -1.1700   -1.8880    1.7300 DU        1 52C      0.291000
@<TRIPOS>BOND
     1    1    6 3   
     2    1   13 1   
     3    2    3 3   
     4    2   14 1   
     5    3   16 1   
     6    4    5 3   
     7    4   12 1   
     8    5    7 1   
     9    6   15 1   
    10    7    8 2   
    11    7   11 1   
    12    8    9 2   
    13    9   10 1   
    14   10   11 2   
@<TRIPOS>SUBSTRUCTURE
     1 52C         1 TEMP              0 ****  ****    0 ROOT
