@<TRIPOS>MOLECULE
52C
   17    18     1     0     0
SMALL
bcc


@<TRIPOS>ATOM
      1 C1          0.0040   -0.2490    0.0030 ca        1 52C     -0.132000
      2 C2          1.3790   -0.0090   -0.0220 ca        1 52C     -0.099000
      3 C3          2.0760    0.1970    1.1660 ca        1 52C     -0.130000
      4 C4          1.4000    0.1620    2.3920 ca        1 52C      0.057400
      5 C5          0.0170   -0.0840    2.4200 ca        1 52C     -0.140500
      6 C6         -0.6740   -0.2870    1.2180 ca        1 52C     -0.101000
      7 C7         -0.7140   -0.1460    3.6780 cc        1 52C      0.444000
      8 N8         -0.4470   -0.8480    4.8230 nd        1 52C     -0.346000
      9 N9         -1.4300   -0.5740    5.6770 nd        1 52C     -0.050000
     10 N10        -2.3010    0.2350    5.1920 nc        1 52C     -0.191800
     11 N11        -1.9190    0.5420    3.9450 na        1 52C     -0.180400
     12 CL1         2.2760    0.4310    3.8160 cl        1 52C     -0.049400
     13 H1         -0.5440   -0.4140   -0.9370 ha        1 52C      0.144000
     14 H2          1.9160    0.0180   -0.9820 ha        1 52C      0.145000
     15 H6         -1.7550   -0.4940    1.2360 ha        1 52C      0.141000
     16 H3          3.1610    0.3850    1.1440 ha        1 52C      0.156000
     17 H11        -2.4220    1.1690    3.3630 hn        1 52C      0.334700
@<TRIPOS>BOND
     1    1    2 ar  
     2    1    6 ar  
     3    1   13 1   
     4    2    3 ar  
     5    2   14 1   
     6    3    4 ar  
     7    3   16 1   
     8    4    5 ar  
     9    4   12 1   
    10    5    6 ar  
    11    5    7 1   
    12    6   15 1   
    13    7    8 2   
    14    7   11 1   
    15    8    9 1   
    16    9   10 2   
    17   10   11 1   
    18   11   17 1   
@<TRIPOS>SUBSTRUCTURE
     1 52C         1 TEMP              0 ****  ****    0 ROOT
