@<TRIPOS>MOLECULE
52C
   17    18     1     0     0
SMALL
bcc


@<TRIPOS>ATOM
      1 C1         -2.3990    1.8590    0.3130 ca        1 52C     -0.132000
      2 C2         -3.1820    0.7420    0.0190 ca        1 52C     -0.099000
      3 C3         -2.5810   -0.4860   -0.2460 ca        1 52C     -0.130000
      4 C4         -1.1850   -0.6050   -0.2200 ca        1 52C      0.057400
      5 C5         -0.3950    0.5170    0.0790 ca        1 52C     -0.140500
      6 C6         -1.0120    1.7480    0.3440 ca        1 52C     -0.101000
      7 C7          1.0570    0.4250    0.1350 cc        1 52C      0.444000
      8 N8          1.8630   -0.4660    0.7930 nd        1 52C     -0.346000
      9 N9          3.1190   -0.1070    0.5350 nd        1 52C     -0.050000
     10 N10         3.1960    0.9250   -0.2260 nc        1 52C     -0.191800
     11 N11         1.9470    1.3120   -0.5120 na        1 52C     -0.180400
     12 CL1        -0.4860   -2.1080   -0.5630 cl        1 52C     -0.049400
     13 H1         -2.8770    2.8270    0.5260 ha        1 52C      0.144000
     14 H2         -4.2790    0.8280   -0.0010 ha        1 52C      0.145000
     15 H6         -0.3970    2.6260    0.5930 ha        1 52C      0.141000
     16 H3         -3.2010   -1.3660   -0.4770 ha        1 52C      0.156000
     17 H11         1.7400    2.0840   -1.1010 hn        1 52C      0.334700
@<TRIPOS>BOND
     1    1    2 ar  
     2    1    6 ar  
     3    1   13 1   
     4    2    3 ar  
     5    2   14 1   
     6    3    4 ar  
     7    3   16 1   
     8    4    5 ar  
     9    4   12 1   
    10    5    6 ar  
    11    5    7 1   
    12    6   15 1   
    13    7    8 2   
    14    7   11 1   
    15    8    9 1   
    16    9   10 2   
    17   10   11 1   
    18   11   17 1   
@<TRIPOS>SUBSTRUCTURE
     1 52C         1 TEMP              0 ****  ****    0 ROOT
