@<TRIPOS>MOLECULE
52D
   42    44     1     0     0
SMALL
bcc


@<TRIPOS>ATOM
      1 O8         -0.0940   -0.3970    0.0510 o         1 52D     -0.525100
      2 C7          1.1340   -0.2350    0.0640 c         1 52D      0.590300
      3 C9          1.8580   -0.0650    1.3480 ca        1 52D     -0.123600
      4 C14         2.8580    0.9020    1.5040 ca        1 52D     -0.209300
      5 C13         3.4790    1.0270    2.7600 ca        1 52D      0.384700
      6 N12         3.1690    0.2620    3.8240 nb        1 52D     -0.651000
      7 C11         2.2030   -0.6620    3.6600 ca        1 52D      0.384700
      8 C10         1.5140   -0.8600    2.4490 ca        1 52D     -0.209300
      9 C6          1.9250   -0.2040   -1.1800 ca        1 52D     -0.215600
     10 C1          3.2920   -0.4990   -1.1920 ca        1 52D     -0.046000
     11 C5          1.2760    0.1030   -2.3880 ca        1 52D     -0.046000
     12 C4          1.9780    0.1350   -3.5830 ca        1 52D     -0.200000
     13 C3          3.3570   -0.1610   -3.5800 ca        1 52D      0.163100
     14 C2          4.0130   -0.4820   -2.3840 ca        1 52D     -0.200000
     15 O15         3.9580   -0.1170   -4.8160 os        1 52D     -0.314900
     16 C16         5.3750   -0.3330   -4.8400 c3        1 52D      0.127400
     17 C17         5.7990   -0.1460   -6.3030 c3        1 52D      0.166800
     18 N23         6.0840    1.2330   -6.6480 n3        1 52D     -0.721600
     19 C19         7.2890    1.7790   -6.0210 c3        1 52D      0.159300
     20 C22         6.1590    1.4750   -8.0910 c3        1 52D      0.159300
     21 C21         7.4730    2.2000   -8.4220 c3        1 52D     -0.094900
     22 C20         8.2010    2.3860   -7.0980 c3        1 52D     -0.094900
     23 H14         3.1490    1.5530    0.6680 ha        1 52D      0.156500
     24 H13         4.2680    1.7830    2.9250 h4        1 52D      0.026100
     25 H11         1.9650   -1.2730    4.5490 h4        1 52D      0.026100
     26 H10         0.7160   -1.6120    2.3680 ha        1 52D      0.156500
     27 H1          3.8080   -0.7560   -0.2530 ha        1 52D      0.148500
     28 H5          0.1940    0.3170   -2.3740 ha        1 52D      0.148500
     29 H4          1.4820    0.3830   -4.5320 ha        1 52D      0.149000
     30 H2          5.0850   -0.7250   -2.3710 ha        1 52D      0.149000
     31 H16         5.8830    0.3890   -4.1500 h1        1 52D      0.045200
     32 H16A        5.5870   -1.3860   -4.5170 h1        1 52D      0.045200
     33 H17         6.6820   -0.8280   -6.4780 h1        1 52D      0.048700
     34 H17A        4.9500   -0.4990   -6.9570 h1        1 52D      0.048700
     35 H19         7.8490    1.0020   -5.4310 h1        1 52D      0.043700
     36 H19A        6.9520    2.5760   -5.3030 h1        1 52D      0.043700
     37 H22         6.0810    0.5250   -8.6890 h1        1 52D      0.043700
     38 H22A        5.2780    2.1200   -8.3570 h1        1 52D      0.043700
     39 H21         7.2610    3.1850   -8.9050 hc        1 52D      0.047950
     40 H21A        8.0840    1.5960   -9.1360 hc        1 52D      0.047950
     41 H20         8.3840    3.4670   -6.8880 hc        1 52D      0.047950
     42 H20A        9.1920    1.8690   -7.1090 hc        1 52D      0.047950
@<TRIPOS>BOND
     1    1    2 2   
     2    2    3 1   
     3    2    9 1   
     4    3    4 ar  
     5    3    8 ar  
     6    4    5 ar  
     7    4   23 1   
     8    5    6 ar  
     9    5   24 1   
    10    6    7 ar  
    11    7    8 ar  
    12    7   25 1   
    13    8   26 1   
    14    9   10 ar  
    15    9   11 ar  
    16   10   14 ar  
    17   10   27 1   
    18   11   12 ar  
    19   11   28 1   
    20   12   13 ar  
    21   12   29 1   
    22   13   14 ar  
    23   13   15 1   
    24   14   30 1   
    25   15   16 1   
    26   16   17 1   
    27   16   31 1   
    28   16   32 1   
    29   17   18 1   
    30   17   33 1   
    31   17   34 1   
    32   18   19 1   
    33   18   20 1   
    34   19   22 1   
    35   19   35 1   
    36   19   36 1   
    37   20   21 1   
    38   20   37 1   
    39   20   38 1   
    40   21   22 1   
    41   21   39 1   
    42   21   40 1   
    43   22   41 1   
    44   22   42 1   
@<TRIPOS>SUBSTRUCTURE
     1 52D         1 TEMP              0 ****  ****    0 ROOT
