@<TRIPOS>MOLECULE
52D
   42    39     1     0     0
SMALL
bcc


@<TRIPOS>ATOM
      1 O8         -3.3050   -0.2830    3.9860 o         1 52D     -0.286000
      2 C7         -2.4640    0.5620    3.7670 c1        1 52D      0.310000
      3 C9         -2.1900    1.6420    4.7950 c2        1 52D     -0.103000
      4 C14        -2.8830    1.6500    5.9820 c2        1 52D     -0.136000
      5 C13        -2.7010    2.6910    6.8850 c1        1 52D     -0.079000
      6 N12        -1.8340    3.7050    6.5930 n1        1 52D     -0.124000
      7 C11        -1.1440    3.6970    5.4120 c1        1 52D     -0.080000
      8 C10        -1.3250    2.6540    4.5050 c1        1 52D     -0.152000
      9 C6         -1.6840    0.5510    2.4290 c1        1 52D     -0.194000
     10 C1         -2.2110    1.1880    1.3100 c1        1 52D     -0.034000
     11 C5         -0.4990   -0.1660    2.3240 c2        1 52D     -0.057000
     12 C4          0.1620   -0.2470    1.0990 c1        1 52D     -0.177000
     13 C3         -0.3640    0.3880   -0.0160 c1        1 52D      0.116000
     14 C2         -1.5520    1.1070    0.0880 c1        1 52D     -0.222000
     15 O15         0.3310    0.3270   -1.2700 os        1 52D     -0.217000
     16 C16        -0.0960   -0.7540   -2.1240 c3        1 52D     -0.026000
     17 C17         0.7450   -0.7470   -3.4280 c3        1 52D     -0.073000
     18 N23         1.5700   -1.9240   -3.4750 n3        1 52D     -0.249000
     19 C19         3.0550   -1.5170   -3.3320 c3        1 52D     -0.083500
     20 C22         1.4550   -2.5790   -4.8720 c3        1 52D     -0.083500
     21 C21         2.5950   -2.2990   -5.4810 c3        1 52D     -0.175000
     22 C20         3.6770   -2.1160   -4.3340 c3        1 52D     -0.175000
     23 H14        -3.5130    0.9130    6.1950 ha        1 52D      0.160000
     24 H13        -3.1950    2.6970    7.7330 ha        1 52D      0.164000
     25 H11        -0.5200    4.4270    5.2020 ha        1 52D      0.163000
     26 H10        -0.8320    2.6490    3.6610 ha        1 52D      0.153000
     27 H1         -3.0510    1.6970    1.3840 ha        1 52D      0.155000
     28 H5         -0.1270   -0.6150    3.1130 ha        1 52D      0.144000
     29 H4          0.9960   -0.7510    1.0260 ha        1 52D      0.153000
     30 H2         -1.9220    1.5550   -0.6980 ha        1 52D      0.145000
     31 H16         0.0310   -1.6120   -1.6560 h1        1 52D      0.092500
     32 H16A       -1.0580   -0.6390   -2.3490 h1        1 52D      0.092500
     33 H17         0.1470   -0.7380   -4.2010 h1        1 52D      0.087000
     34 H17A        1.3130    0.0510   -3.4460 h1        1 52D      0.087000
     35 H19         3.1500   -0.5500   -3.4060 h1        1 52D      0.089500
     36 H19A        3.4120   -1.8280   -2.4760 h1        1 52D      0.089500
     37 H22         0.7060   -2.1960   -5.3650 h1        1 52D      0.089500
     38 H22A        1.3450   -3.5510   -4.7860 h1        1 52D      0.089500
     39 H21         2.8500   -3.0360   -6.0710 hc        1 52D      0.086500
     40 H21A        2.5060   -1.4600   -6.0020 hc        1 52D      0.086500
     41 H20         4.4120   -1.5600   -4.6520 hc        1 52D      0.086500
     42 H20A        4.0120   -2.9810   -4.0500 hc        1 52D      0.086500
@<TRIPOS>BOND
     1    1    2 1   
     2    2    3 1   
     3    3    4 1   
     4    3    8 1   
     5    4    5 1   
     6    4   23 1   
     7    5   24 1   
     8    6    7 1   
     9    7   25 1   
    10    8   26 1   
    11    9   10 1   
    12    9   11 1   
    13   10   27 1   
    14   11   12 1   
    15   11   28 1   
    16   12   29 1   
    17   13   14 1   
    18   13   15 1   
    19   14   30 1   
    20   15   16 1   
    21   16   17 1   
    22   16   31 1   
    23   16   32 1   
    24   17   18 1   
    25   17   33 1   
    26   17   34 1   
    27   18   19 1   
    28   18   20 1   
    29   19   22 1   
    30   19   35 1   
    31   19   36 1   
    32   20   21 1   
    33   20   37 1   
    34   20   38 1   
    35   21   22 1   
    36   21   39 1   
    37   21   40 1   
    38   22   41 1   
    39   22   42 1   
@<TRIPOS>SUBSTRUCTURE
     1 52D         1 TEMP              0 ****  ****    0 ROOT
