@<TRIPOS>MOLECULE
52D
   42    44     1     0     0
SMALL
bcc


@<TRIPOS>ATOM
      1 O8         -0.0990   -0.3420    0.0590 o         1 52D     -0.525100
      2 C7          1.1320   -0.2090    0.0680 c         1 52D      0.590300
      3 C9          1.8660   -0.0740    1.3510 ca        1 52D     -0.123600
      4 C14         2.8890    0.8670    1.5150 ca        1 52D     -0.209300
      5 C13         3.5180    0.9600    2.7700 ca        1 52D      0.384700
      6 N12         3.1950    0.1870    3.8250 nb        1 52D     -0.651000
      7 C11         2.2070   -0.7110    3.6520 ca        1 52D      0.384700
      8 C10         1.5080   -0.8750    2.4420 ca        1 52D     -0.209300
      9 C6          1.9190   -0.1770   -1.1790 ca        1 52D     -0.215600
     10 C1          3.2780   -0.5030   -1.2020 ca        1 52D     -0.046000
     11 C5          1.2710    0.1630   -2.3790 ca        1 52D     -0.046000
     12 C4          1.9680    0.1970   -3.5770 ca        1 52D     -0.200000
     13 C3          3.3400   -0.1310   -3.5850 ca        1 52D      0.163100
     14 C2          3.9940   -0.4860   -2.3970 ca        1 52D     -0.200000
     15 O15         3.9360   -0.0830   -4.8230 os        1 52D     -0.314900
     16 C16         5.3480   -0.3310   -4.8570 c3        1 52D      0.127400
     17 C17         5.7690   -0.1310   -6.3190 c3        1 52D      0.166800
     18 N23         6.0840    1.2460   -6.6440 n3        1 52D     -0.721600
     19 C19         7.3040    1.7560   -6.0140 c3        1 52D      0.159300
     20 C22         6.1590    1.5090   -8.0840 c3        1 52D      0.159300
     21 C21         7.4870    2.2090   -8.4100 c3        1 52D     -0.094900
     22 C20         8.2250    2.3580   -7.0870 c3        1 52D     -0.094900
     23 H14         3.1920    1.5230    0.6870 ha        1 52D      0.156500
     24 H13         4.3250    1.6950    2.9420 h4        1 52D      0.026100
     25 H11         1.9580   -1.3280    4.5350 h4        1 52D      0.026100
     26 H10         0.6930   -1.6070    2.3550 ha        1 52D      0.156500
     27 H1          3.7920   -0.7860   -0.2700 ha        1 52D      0.148500
     28 H5          0.1940    0.4020   -2.3570 ha        1 52D      0.148500
     29 H4          1.4740    0.4700   -4.5190 ha        1 52D      0.149000
     30 H2          5.0590   -0.7540   -2.3930 ha        1 52D      0.149000
     31 H16         5.5380   -1.3930   -4.5510 h1        1 52D      0.045200
     32 H16A        5.8750    0.3690   -4.1580 h1        1 52D      0.045200
     33 H17         4.9100   -0.4540   -6.9750 h1        1 52D      0.048700
     34 H17A        6.6370   -0.8300   -6.5080 h1        1 52D      0.048700
     35 H19         7.8490    0.9580   -5.4390 h1        1 52D      0.043700
     36 H19A        6.9880    2.5490   -5.2830 h1        1 52D      0.043700
     37 H22         6.0570    0.5710   -8.6950 h1        1 52D      0.043700
     38 H22A        5.2910    2.1780   -8.3360 h1        1 52D      0.043700
     39 H21         8.0820    1.6030   -9.1360 hc        1 52D      0.047950
     40 H21A        7.2950    3.2060   -8.8770 hc        1 52D      0.047950
     41 H20         8.4330    3.4320   -6.8610 hc        1 52D      0.047950
     42 H20A        9.2040    1.8200   -7.1090 hc        1 52D      0.047950
@<TRIPOS>BOND
     1    1    2 2   
     2    2    3 1   
     3    2    9 1   
     4    3    4 ar  
     5    3    8 ar  
     6    4    5 ar  
     7    4   23 1   
     8    5    6 ar  
     9    5   24 1   
    10    6    7 ar  
    11    7    8 ar  
    12    7   25 1   
    13    8   26 1   
    14    9   10 ar  
    15    9   11 ar  
    16   10   14 ar  
    17   10   27 1   
    18   11   12 ar  
    19   11   28 1   
    20   12   13 ar  
    21   12   29 1   
    22   13   14 ar  
    23   13   15 1   
    24   14   30 1   
    25   15   16 1   
    26   16   17 1   
    27   16   31 1   
    28   16   32 1   
    29   17   18 1   
    30   17   33 1   
    31   17   34 1   
    32   18   19 1   
    33   18   20 1   
    34   19   22 1   
    35   19   35 1   
    36   19   36 1   
    37   20   21 1   
    38   20   37 1   
    39   20   38 1   
    40   21   22 1   
    41   21   39 1   
    42   21   40 1   
    43   22   41 1   
    44   22   42 1   
@<TRIPOS>SUBSTRUCTURE
     1 52D         1 TEMP              0 ****  ****    0 ROOT
