@<TRIPOS>MOLECULE
52D
   42    44     1     0     0
SMALL
bcc


@<TRIPOS>ATOM
      1 O8         -0.0950   -0.3560    0.0600 o         1 52D     -0.525100
      2 C7          1.1360   -0.2130    0.0700 c         1 52D      0.590300
      3 C9          1.8670   -0.0630    1.3530 ca        1 52D     -0.123600
      4 C14         2.8820    0.8880    1.5120 ca        1 52D     -0.209300
      5 C13         3.5090    0.9950    2.7660 ca        1 52D      0.384700
      6 N12         3.1920    0.2260    3.8260 nb        1 52D     -0.651000
      7 C11         2.2110   -0.6820    3.6590 ca        1 52D      0.384700
      8 C10         1.5150   -0.8600    2.4490 ca        1 52D     -0.209300
      9 C6          1.9230   -0.1840   -1.1760 ca        1 52D     -0.215600
     10 C1          3.2850   -0.4990   -1.1960 ca        1 52D     -0.046000
     11 C5          1.2740    0.1420   -2.3800 ca        1 52D     -0.046000
     12 C4          1.9720    0.1720   -3.5770 ca        1 52D     -0.200000
     13 C3          3.3470   -0.1440   -3.5810 ca        1 52D      0.163100
     14 C2          4.0020   -0.4850   -2.3900 ca        1 52D     -0.200000
     15 O15         3.9430   -0.1000   -4.8190 os        1 52D     -0.314900
     16 C16         5.3570   -0.3360   -4.8500 c3        1 52D      0.127400
     17 C17         5.7780   -0.1430   -6.3140 c3        1 52D      0.166800
     18 N23         6.0810    1.2350   -6.6480 n3        1 52D     -0.721600
     19 C19         7.2960    1.7590   -6.0210 c3        1 52D      0.159300
     20 C22         6.1540    1.4880   -8.0890 c3        1 52D      0.159300
     21 C21         7.4760    2.2000   -8.4190 c3        1 52D     -0.094900
     22 C20         8.2110    2.3650   -7.0960 c3        1 52D     -0.094900
     23 H14         3.1800    1.5400    0.6790 ha        1 52D      0.156500
     24 H13         4.3100    1.7370    2.9340 h4        1 52D      0.026100
     25 H11         1.9670   -1.2950    4.5450 h4        1 52D      0.026100
     26 H10         0.7060   -1.5990    2.3660 ha        1 52D      0.156500
     27 H1          3.8010   -0.7710   -0.2610 ha        1 52D      0.148500
     28 H5          0.1950    0.3720   -2.3600 ha        1 52D      0.148500
     29 H4          1.4760    0.4340   -4.5220 ha        1 52D      0.149000
     30 H2          5.0700   -0.7440   -2.3840 ha        1 52D      0.149000
     31 H16         5.8780    0.3730   -4.1560 h1        1 52D      0.045200
     32 H16A        5.5550   -1.3950   -4.5370 h1        1 52D      0.045200
     33 H17         4.9220   -0.4780   -6.9670 h1        1 52D      0.048700
     34 H17A        6.6520   -0.8360   -6.4970 h1        1 52D      0.048700
     35 H19         7.8480    0.9690   -5.4410 h1        1 52D      0.043700
     36 H19A        6.9720    2.5530   -5.2930 h1        1 52D      0.043700
     37 H22         5.2800    2.1460   -8.3470 h1        1 52D      0.043700
     38 H22A        6.0630    0.5440   -8.6940 h1        1 52D      0.043700
     39 H21         8.0770    1.5950   -9.1410 hc        1 52D      0.047950
     40 H21A        7.2730    3.1920   -8.8920 hc        1 52D      0.047950
     41 H20         8.4070    3.4430   -6.8770 hc        1 52D      0.047950
     42 H20A        9.1950    1.8370   -7.1150 hc        1 52D      0.047950
@<TRIPOS>BOND
     1    1    2 2   
     2    2    3 1   
     3    2    9 1   
     4    3    4 ar  
     5    3    8 ar  
     6    4    5 ar  
     7    4   23 1   
     8    5    6 ar  
     9    5   24 1   
    10    6    7 ar  
    11    7    8 ar  
    12    7   25 1   
    13    8   26 1   
    14    9   10 ar  
    15    9   11 ar  
    16   10   14 ar  
    17   10   27 1   
    18   11   12 ar  
    19   11   28 1   
    20   12   13 ar  
    21   12   29 1   
    22   13   14 ar  
    23   13   15 1   
    24   14   30 1   
    25   15   16 1   
    26   16   17 1   
    27   16   31 1   
    28   16   32 1   
    29   17   18 1   
    30   17   33 1   
    31   17   34 1   
    32   18   19 1   
    33   18   20 1   
    34   19   22 1   
    35   19   35 1   
    36   19   36 1   
    37   20   21 1   
    38   20   37 1   
    39   20   38 1   
    40   21   22 1   
    41   21   39 1   
    42   21   40 1   
    43   22   41 1   
    44   22   42 1   
@<TRIPOS>SUBSTRUCTURE
     1 52D         1 TEMP              0 ****  ****    0 ROOT
