@<TRIPOS>MOLECULE
52D
   42    44     1     0     0
SMALL
bcc


@<TRIPOS>ATOM
      1 O8          4.0600    2.3570   -0.3030 o         1 52D     -0.525100
      2 C7          3.5010    1.2630   -0.1460 c         1 52D      0.590300
      3 C9          4.2910    0.0060   -0.1510 ca        1 52D     -0.123600
      4 C14         3.8510   -1.1340   -0.8340 ca        1 52D     -0.209300
      5 C13         4.6680   -2.2790   -0.8220 ca        1 52D      0.384700
      6 N12         5.8520   -2.3430   -0.1820 nb        1 52D     -0.651000
      7 C11         6.2630   -1.2370    0.4680 ca        1 52D      0.384700
      8 C10         5.5270   -0.0390    0.5070 ca        1 52D     -0.209300
      9 C6          2.0440    1.1560    0.0490 ca        1 52D     -0.215600
     10 C1          1.4630    0.0540    0.6840 ca        1 52D     -0.046000
     11 C5          1.2230    2.2100   -0.3900 ca        1 52D     -0.046000
     12 C4         -0.1510    2.1580   -0.2180 ca        1 52D     -0.200000
     13 C3         -0.7240    1.0370    0.4200 ca        1 52D      0.163100
     14 C2          0.0850   -0.0130    0.8750 ca        1 52D     -0.200000
     15 O15        -2.0910    1.0890    0.5550 os        1 52D     -0.314900
     16 C16        -2.7150   -0.0690    1.1260 c3        1 52D      0.127400
     17 C17        -4.2240    0.2090    1.0820 c3        1 52D      0.166800
     18 N23        -4.8430   -0.1740   -0.1720 n3        1 52D     -0.721600
     19 C19        -4.9000   -1.6190   -0.4050 c3        1 52D      0.159300
     20 C22        -6.1860    0.3810   -0.3590 c3        1 52D      0.159300
     21 C21        -7.1640   -0.7490   -0.7190 c3        1 52D     -0.094900
     22 C20        -6.3420   -2.0310   -0.7390 c3        1 52D     -0.094900
     23 H14         2.8930   -1.1350   -1.3730 ha        1 52D      0.156500
     24 H13         4.3590   -3.1960   -1.3540 h4        1 52D      0.026100
     25 H11         7.2390   -1.3150    0.9790 h4        1 52D      0.026100
     26 H10         5.9130    0.8460    1.0320 ha        1 52D      0.156500
     27 H1          2.0980   -0.7700    1.0460 ha        1 52D      0.148500
     28 H5          1.6900    3.0850   -0.8730 ha        1 52D      0.148500
     29 H4         -0.8030    2.9720   -0.5650 ha        1 52D      0.149000
     30 H2         -0.3490   -0.8850    1.3830 ha        1 52D      0.149000
     31 H16        -2.4290   -0.9830    0.5440 h1        1 52D      0.045200
     32 H16A       -2.3820   -0.1730    2.1920 h1        1 52D      0.045200
     33 H17        -4.6810   -0.3200    1.9690 h1        1 52D      0.048700
     34 H17A       -4.3760    1.3180    1.2190 h1        1 52D      0.048700
     35 H19        -4.2220   -1.8370   -1.2760 h1        1 52D      0.043700
     36 H19A       -4.5230   -2.2050    0.4770 h1        1 52D      0.043700
     37 H22        -6.5520    0.9320    0.5500 h1        1 52D      0.043700
     38 H22A       -6.1160    1.1210   -1.2020 h1        1 52D      0.043700
     39 H21        -7.9860   -0.8100    0.0340 hc        1 52D      0.047950
     40 H21A       -7.6290   -0.5550   -1.7160 hc        1 52D      0.047950
     41 H20        -6.3840   -2.5200   -1.7420 hc        1 52D      0.047950
     42 H20A       -6.7240   -2.7640    0.0130 hc        1 52D      0.047950
@<TRIPOS>BOND
     1    1    2 2   
     2    2    3 1   
     3    2    9 1   
     4    3    4 ar  
     5    3    8 ar  
     6    4    5 ar  
     7    4   23 1   
     8    5    6 ar  
     9    5   24 1   
    10    6    7 ar  
    11    7    8 ar  
    12    7   25 1   
    13    8   26 1   
    14    9   10 ar  
    15    9   11 ar  
    16   10   14 ar  
    17   10   27 1   
    18   11   12 ar  
    19   11   28 1   
    20   12   13 ar  
    21   12   29 1   
    22   13   14 ar  
    23   13   15 1   
    24   14   30 1   
    25   15   16 1   
    26   16   17 1   
    27   16   31 1   
    28   16   32 1   
    29   17   18 1   
    30   17   33 1   
    31   17   34 1   
    32   18   19 1   
    33   18   20 1   
    34   19   22 1   
    35   19   35 1   
    36   19   36 1   
    37   20   21 1   
    38   20   37 1   
    39   20   38 1   
    40   21   22 1   
    41   21   39 1   
    42   21   40 1   
    43   22   41 1   
    44   22   42 1   
@<TRIPOS>SUBSTRUCTURE
     1 52D         1 TEMP              0 ****  ****    0 ROOT
