@<TRIPOS>MOLECULE
52H
   57    55     1     0     0
SMALL
bcc


@<TRIPOS>ATOM
      1 C4         13.9390   15.8250  424.0380 c2        1 52H      0.125000
      2 C5         14.7790   16.0130  425.2120 c2        1 52H     -0.209000
      3 C6         14.4920   15.1890  426.3270 c2        1 52H      0.078000
      4 C8         15.5130   17.4360  423.7270 c2        1 52H      0.019000
      5 N1         13.5020   14.2840  426.3060 n2        1 52H     -0.200000
      6 N3         12.9390   14.8970  424.0440 nh        1 52H     -0.127000
      7 CBB       -13.0170  -18.9140 -459.8580 c2        1 52H      0.076000
      8 CAB       -12.3030  -20.2090 -459.8790 c3        1 52H     -0.233000
      9 CAC        -0.6480    2.6420  -23.9920 c3        1 52H     -0.266000
     10 CAX       -13.9970  -18.6460 -460.7710 c2        1 52H     -0.142000
     11 OAH       -14.4260  -19.5540 -461.7300 oh        1 52H     -0.296000
     12 CAT       -14.7650  -17.4030 -460.7630 c2        1 52H      0.316000
     13 OAE       -14.5810  -16.4050 -460.0760 o         1 52H     -0.195000
     14 NAQ       -15.9450  -17.3370 -461.6980 n4        1 52H     -0.548000
     15 SBE       -17.4530  -18.2780 -461.1500 s6        1 52H      2.744000
     16 OAF       -17.7530  -19.0810 -462.2100 o         1 52H     -0.838500
     17 OAG       -17.2290  -18.6250 -459.8560 o         1 52H     -0.838500
     18 O5'       -18.4530  -17.0000 -461.1950 os        1 52H     -0.718000
     19 C4'        11.7540   17.4080  416.2710 c1        1 52H      0.260000
     20 O4'        12.3660   17.6890  417.2340 o         1 52H     -0.258000
     21 C3'        13.0840   18.5520  420.2470 c3        1 52H     -0.021000
     22 O3'        13.5510   19.5190  419.3360 oh        1 52H     -0.322000
     23 C2'        14.2990   17.7570  420.7740 c3        1 52H     -0.062000
     24 O2'        15.3500   18.6240  421.1730 oh        1 52H     -0.373000
     25 C1'        13.8530   16.8450  421.8530 c1        1 52H      0.011000
     26 N9         14.4120   16.7520  423.0630 na        1 52H     -0.121000
     27 N7         15.7400   17.0230  424.9690 n2        1 52H     -0.125000
     28 C2         12.7330   14.1330  425.1870 c1        1 52H      0.092000
     29 N6         15.3290   15.3570  427.5360 n4        1 52H     -0.026000
     30 H8         16.0720   18.2240  423.1810 h5        1 52H      0.269000
     31 HAA       -12.2970  -16.9650 -459.3200 hc        1 52H      0.126667
     32 HAAA      -13.4720  -17.6930 -458.1580 hc        1 52H      0.126667
     33 HAAB      -11.7600  -18.3080 -458.2170 hc        1 52H      0.126667
     34 HAB       -11.9940  -20.5030 -458.8420 hc        1 52H      0.126667
     35 HABA      -12.9350  -21.0320 -460.2990 hc        1 52H      0.126667
     36 HABB      -11.3740  -20.1160 -460.5010 hc        1 52H      0.126667
     37 HAC        -1.4220    3.3410  -24.3750 hc        1 52H      0.066000
     38 HACA       -0.8770    1.6110  -24.3370 hc        1 52H      0.066000
     39 HACB       -0.6420    2.6680  -22.8810 hc        1 52H      0.066000
     40 HAX         0.3500    2.9480  -24.3750 hc        1 52H      0.066000
     41 HOAH      -13.6420  -19.9970 -462.0940 ho        1 52H      0.258000
     42 HNAQ      -15.6330  -17.7110 -462.6000 hn        1 52H      0.274000
     43 H5'       -19.9670  -15.9070 -461.9580 h1        1 52H      0.121333
     44 H5'A      -19.6450  -17.5000 -462.8400 h1        1 52H      0.121333
     45 H4'       -20.4610  -17.5040 -461.1790 h1        1 52H      0.121333
     46 H3'        12.6100   19.1360  421.0800 h1        1 52H      0.115500
     47 HO3'       13.6080   19.1040  418.4640 ho        1 52H      0.226000
     48 H2'        12.3430   17.8530  419.7820 h1        1 52H      0.115500
     49 HO2'       15.3520   19.3880  420.5750 ho        1 52H      0.252000
     50 H1'        14.6860   17.0790  419.9490 h1        1 52H      0.144000
     51 H2         12.3540   14.7600  423.2360 hn        1 52H      0.308000
     52 HN6        16.3090   15.1730  427.2880 hn        1 52H      0.276000
     53 HN6A       15.2410   16.3260  427.8660 hn        1 52H      0.276000
     54 HAQ2      -16.1850  -16.3480 -461.8290 hn        1 52H      0.274000
     55 H63        15.0330   14.7090  428.2800 hn        1 52H      0.276000
     56 C5'       -19.7200  -16.9950 -461.8450 c3        1 52H     -0.025000
     57 CAA       -12.6090  -17.9290 -458.8380 c3        1 52H     -0.233000
@<TRIPOS>BOND
     1    1    2 1   
     2    1    6 1   
     3    1   26 1   
     4    2    3 1   
     5    2   27 1   
     6    3    5 1   
     7    3   29 1   
     8    4   26 1   
     9    4   27 1   
    10    4   30 1   
    11    5   28 1   
    12    6   28 1   
    13    6   51 1   
    14    7    8 1   
    15    7   10 1   
    16    7   57 1   
    17    8   34 1   
    18    8   35 1   
    19    8   36 1   
    20    9   37 1   
    21    9   38 1   
    22    9   39 1   
    23    9   40 1   
    24   10   11 1   
    25   10   12 1   
    26   11   41 1   
    27   12   13 1   
    28   12   14 1   
    29   14   15 1   
    30   14   42 1   
    31   14   54 1   
    32   15   16 1   
    33   15   17 1   
    34   15   18 1   
    35   18   56 1   
    36   19   20 1   
    37   21   22 1   
    38   21   23 1   
    39   21   46 1   
    40   21   48 1   
    41   22   47 1   
    42   23   24 1   
    43   23   25 1   
    44   23   50 1   
    45   24   49 1   
    46   25   26 1   
    47   29   52 1   
    48   29   53 1   
    49   29   55 1   
    50   31   57 1   
    51   32   57 1   
    52   33   57 1   
    53   43   56 1   
    54   44   56 1   
    55   45   56 1   
@<TRIPOS>SUBSTRUCTURE
     1 52H         1 TEMP              0 ****  ****    0 ROOT
