@<TRIPOS>MOLECULE
52H
   56    55     1     0     0
SMALL
bcc


@<TRIPOS>ATOM
      1 C4         -0.8140   -0.4990    1.0050 c2        1 52H      0.124000
      2 C5         -0.8690    0.5960    1.9420 c2        1 52H     -0.273000
      3 C6         -0.1880    0.4370    3.2130 c2        1 52H      0.285000
      4 C8         -2.0100    1.2570    0.1960 c2        1 52H     -0.101000
      5 N1          0.4830   -0.7450    3.4460 n2        1 52H     -0.295000
      6 N3         -0.1380   -1.6450    1.3030 nu        1 52H     -0.193000
      7 CBB         2.6350    0.2840   -9.2260 c2        1 52H      0.084000
      8 CAB         2.6260    0.6490  -10.6590 c3        1 52H     -0.237000
      9 CAC         5.3040   -2.4030   -6.6690 c3        1 52H     -0.274000
     10 CAX         1.5290   -0.2620   -8.6390 c2        1 52H     -0.147000
     11 OAH         0.3250   -0.4620   -9.3010 oh        1 52H     -0.299000
     12 CAT         1.4730   -0.5950   -7.2180 c2        1 52H      0.314000
     13 OAE         2.3750   -0.5460   -6.3900 o         1 52H     -0.193000
     14 NAQ         0.1310   -1.0380   -6.6870 ny        1 52H     -0.553000
     15 SBE        -1.1320    0.3020   -6.4870 s6        1 52H      2.721000
     16 OAF        -0.4660    1.4820   -6.5780 o         1 52H     -0.814000
     17 OAG        -2.2100   -0.1600   -7.1750 o         1 52H     -0.814000
     18 O5'        -1.3700   -0.0470   -4.8280 os        1 52H     -0.559000
     19 C4'        -2.6420    0.6430   -2.9240 c3        1 52H     -0.136000
     20 O4'        -2.1440   -0.6100   -2.4130 os        1 52H     -0.189000
     21 C3'        -4.1750    0.7090   -2.7330 c3        1 52H      0.007000
     22 O3'        -4.4810    0.2830   -1.4210 oh        1 52H     -0.320000
     23 C2'        -4.6620    2.1610   -2.8490 c3        1 52H     -0.018000
     24 O2'        -4.1510    2.9410   -1.7920 oh        1 52H     -0.326000
     25 C1'        -1.6550   -0.8840   -1.2320 c1        1 52H      0.153000
     26 N9         -1.5440   -0.0730   -0.1530 na        1 52H     -0.232000
     27 N7         -1.6260    1.6550    1.4010 n2        1 52H     -0.051000
     28 C2          0.5060   -1.7260    2.5490 c1        1 52H      0.016000
     29 N6         -0.2200    1.4400    4.1280 n8        1 52H     -0.329000
     30 H8         -2.6750    1.8180   -0.4770 h5        1 52H      0.223000
     31 HAA         3.7130    1.2350   -7.6380 hc        1 52H      0.128667
     32 HAAA        4.2530   -0.4470   -8.0140 hc        1 52H      0.128667
     33 HAAB        4.6920    0.9160   -9.1390 hc        1 52H      0.128667
     34 HAB         3.0630   -0.1900  -11.2620 hc        1 52H      0.128667
     35 HABA        3.2560    1.5600  -10.8330 hc        1 52H      0.128667
     36 HABB        1.5950    0.8640  -11.0350 hc        1 52H      0.128667
     37 HAC         5.0650   -2.8080   -7.6770 hc        1 52H      0.068750
     38 HACA        6.1190   -1.6510   -6.7550 hc        1 52H      0.068750
     39 HACB        5.6380   -3.2330   -6.0080 hc        1 52H      0.068750
     40 HAX         4.4000   -1.9230   -6.2330 hc        1 52H      0.068750
     41 HOAH        0.5240   -0.8300  -10.1780 ho        1 52H      0.260000
     42 HNAQ        0.2910   -1.5100   -5.7890 hn        1 52H      0.278500
     43 H5'        -0.6740    2.4730   -4.2570 ha        1 52H      0.003000
     44 H5'A       -0.4900    3.0720   -4.5190 ha        1 52H      0.003000
     45 H4'        -2.1600    1.5260   -2.4030 h1        1 52H      0.179000
     46 H3'        -4.6840    0.0620   -3.4980 h1        1 52H      0.106000
     47 HO3'       -4.4520   -0.6830   -1.4110 ho        1 52H      0.227000
     48 H2'        -5.7830    2.1730   -2.8610 h1        1 52H      0.113000
     49 HO2'       -4.6720    2.7340   -1.0030 ho        1 52H      0.226000
     50 H1'        -4.2550    2.6220   -3.7880 h1        1 52H      0.113000
     51 H2         -0.1110   -2.4150    0.6730 hn        1 52H      0.264000
     52 HN6        -0.7240    2.2700    3.9340 hn        1 52H      0.254000
     53 HN6A        0.2350    1.3380    5.0050 hn        1 52H      0.254000
     54 HAQ2       -0.2320   -1.7370   -7.3460 hn        1 52H      0.278500
     55 C5'        -2.2990    0.7710   -4.3600 c1        1 52H      0.055000
     56 CAA         3.8870    0.5100   -8.4770 c3        1 52H     -0.237000
@<TRIPOS>BOND
     1    1    2 1   
     2    1    6 1   
     3    1   26 1   
     4    2    3 1   
     5    2   27 1   
     6    3    5 1   
     7    3   29 1   
     8    4   26 1   
     9    4   27 1   
    10    4   30 1   
    11    5   28 1   
    12    6   28 1   
    13    6   51 1   
    14    7    8 1   
    15    7   10 1   
    16    7   56 1   
    17    8   34 1   
    18    8   35 1   
    19    8   36 1   
    20    9   37 1   
    21    9   38 1   
    22    9   39 1   
    23    9   40 1   
    24   10   11 1   
    25   10   12 1   
    26   11   41 1   
    27   12   13 1   
    28   12   14 1   
    29   14   15 1   
    30   14   42 1   
    31   14   54 1   
    32   15   16 1   
    33   15   17 1   
    34   15   18 1   
    35   18   55 1   
    36   19   20 1   
    37   19   21 1   
    38   19   45 1   
    39   19   55 1   
    40   20   25 1   
    41   21   22 1   
    42   21   23 1   
    43   21   46 1   
    44   22   47 1   
    45   23   24 1   
    46   23   48 1   
    47   23   50 1   
    48   24   49 1   
    49   25   26 1   
    50   29   52 1   
    51   29   53 1   
    52   31   56 1   
    53   32   56 1   
    54   33   56 1   
    55   43   44 1   
@<TRIPOS>SUBSTRUCTURE
     1 52H         1 TEMP              0 ****  ****    0 ROOT
