@<TRIPOS>MOLECULE
52H
   56    55     1     0     0
SMALL
bcc


@<TRIPOS>ATOM
      1 C4          0.7350    0.5970    1.6130 c2        1 52H      0.128000
      2 C5          1.1380   -0.3400    2.6320 c2        1 52H     -0.277000
      3 C6          1.6230    0.1950    3.8920 c2        1 52H      0.287000
      4 C8          0.4900   -1.5690    0.9430 c2        1 52H     -0.099000
      5 N1          1.6670    1.5660    4.0390 n2        1 52H     -0.292000
      6 N3          0.8050    1.9390    1.8220 nh        1 52H     -0.186000
      7 CBB         2.9990    0.8460   -9.8300 c2        1 52H     -0.174000
      8 CAB         4.3950    0.9460  -10.2920 c3        1 52H     -0.205000
      9 CAC        -0.4720   -1.6500   -5.0980 c3        1 52H     -0.021500
     10 CAX         2.6200    0.1280   -8.7560 c2        1 52H     -0.026000
     11 OAH         3.4420   -0.6360   -7.9590 oh        1 52H     -0.238000
     12 CAT         1.2200    0.0510   -8.2510 c2        1 52H      0.415000
     13 OAE         0.9260    0.1100   -7.0430 o         1 52H     -0.370000
     14 NAQ         0.1880   -0.1090   -9.1840 n         1 52H     -0.874000
     15 SBE        -1.3960   -0.2930   -8.8170 s6        1 52H      2.808000
     16 OAF        -2.1140   -0.5960   -9.9570 o         1 52H     -0.928500
     17 OAG        -1.5600   -0.9860   -7.6180 o         1 52H     -0.928500
     18 O5'        -1.8870    1.2250   -8.3400 os        1 52H     -0.718000
     19 C4'        -1.5930   -0.9220   -2.1260 c1        1 52H      0.034000
     20 O4'        -0.4330   -0.5610   -1.6940 os        1 52H     -0.175000
     21 C3'        -2.8700   -0.6130   -1.4040 c3        1 52H     -0.125000
     22 O3'        -2.5860    0.1330   -0.2290 oh        1 52H     -0.355000
     23 C2'        -3.8060    0.1830   -2.3250 c3        1 52H     -0.027000
     24 O2'        -3.1850    1.3600   -2.7950 oh        1 52H     -0.343000
     25 C1'        -0.1470    0.3430   -0.6500 c1        1 52H      0.176000
     26 N9          0.3020   -0.1960    0.4920 na        1 52H     -0.198000
     27 N7          0.9700   -1.6650    2.1720 n2        1 52H     -0.037000
     28 C2          1.2840    2.3880    3.0680 c1        1 52H      0.023000
     29 N6          2.0150   -0.6480    4.8800 n3        1 52H     -0.325000
     30 H8          0.2490   -2.4040    0.2750 h5        1 52H      0.213000
     31 HAA         2.2560    1.4270  -10.3990 ha        1 52H      0.144000
     32 HAAA       -1.6210    0.5720   -4.1360 hc        1 52H      0.157667
     33 HAAB        0.0140    0.9540   -4.9790 hc        1 52H      0.157667
     34 HAB         4.8650   -0.0670  -10.3830 hc        1 52H      0.104667
     35 HABA        4.4450    1.4440  -11.2920 hc        1 52H      0.104667
     36 HABB        5.0040    1.5520   -9.5720 hc        1 52H      0.104667
     37 HAC         0.6060   -1.5220   -5.3210 hc        1 52H      0.157667
     38 HACA       -0.9960   -0.5570   -5.5390 DU        1 52H      0.079000
     39 HACB       -0.7470   -1.7160   -4.0200 hc        1 52H      0.157667
     40 HAX        -1.0170   -2.3370   -5.7830 hc        1 52H      0.157667
     41 HOAH        4.3620   -0.4070   -8.1700 ho        1 52H      0.241000
     42 HNAQ        0.4920   -0.1330  -10.1370 hn        1 52H      0.276000
     43 H5'        -3.0520    2.8560   -8.6060 h1        1 52H      0.100000
     44 H5'A       -1.6070    2.7250   -9.7340 h1        1 52H      0.100000
     45 H4'        -3.0830    1.6510   -9.9970 h1        1 52H      0.100000
     46 H3'        -3.3570   -1.5990   -1.1440 h1        1 52H      0.136000
     47 HO3'       -3.3750    0.1360    0.3280 ho        1 52H      0.233000
     48 H2'        -4.7500    0.4290   -1.7700 h1        1 52H      0.108500
     49 HO2'       -3.0090    1.9210   -2.0270 ho        1 52H      0.226000
     50 H1'        -4.0460   -0.4120   -3.2460 h1        1 52H      0.108500
     51 H2          0.5300    2.5960    1.1260 hn        1 52H      0.268000
     52 HN6         1.9740   -1.6280    4.7410 hn        1 52H      0.256000
     53 HN6A        2.3500   -0.2910    5.7450 hn        1 52H      0.256000
     54 HAQ2       -1.5790    1.0870   -5.9470 hc        1 52H      0.157667
     55 C5'        -2.4380    2.1640   -9.2380 c3        1 52H     -0.033000
     56 CAA        -1.0410    0.6340   -5.0830 c3        1 52H     -0.021500
@<TRIPOS>BOND
     1    1    2 1   
     2    1    6 1   
     3    1   26 1   
     4    2    3 1   
     5    2   27 1   
     6    3    5 1   
     7    3   29 1   
     8    4   26 1   
     9    4   27 1   
    10    4   30 1   
    11    5   28 1   
    12    6   28 1   
    13    6   51 1   
    14    7    8 1   
    15    7   10 1   
    16    7   31 1   
    17    8   34 1   
    18    8   35 1   
    19    8   36 1   
    20    9   37 1   
    21    9   38 1   
    22    9   39 1   
    23    9   40 1   
    24   10   11 1   
    25   10   12 1   
    26   11   41 1   
    27   12   13 1   
    28   12   14 1   
    29   14   15 1   
    30   14   42 1   
    31   15   16 1   
    32   15   17 1   
    33   15   18 1   
    34   18   55 1   
    35   19   20 1   
    36   19   21 1   
    37   20   25 1   
    38   21   22 1   
    39   21   23 1   
    40   21   46 1   
    41   22   47 1   
    42   23   24 1   
    43   23   48 1   
    44   23   50 1   
    45   24   49 1   
    46   25   26 1   
    47   29   52 1   
    48   29   53 1   
    49   32   56 1   
    50   33   56 1   
    51   38   56 1   
    52   43   55 1   
    53   44   55 1   
    54   45   55 1   
    55   54   56 1   
@<TRIPOS>SUBSTRUCTURE
     1 52H         1 TEMP              0 ****  ****    0 ROOT
