@<TRIPOS>MOLECULE
52H
   55    50     1     0     0
SMALL
bcc


@<TRIPOS>ATOM
      1 C4         -0.6380    5.1270    2.8670 c1        1 52H      0.055000
      2 C5         -1.0590    6.2390    2.2320 c1        1 52H     -0.236000
      3 C6         -1.2480    7.4140    2.9440 c1        1 52H      0.245000
      4 C8         -1.0520    4.5920    0.7780 c1        1 52H     -0.028000
      5 N1         -1.0120    7.4420    4.2630 n1        1 52H     -0.270000
      6 N3         -0.3980    5.1590    4.2090 n1        1 52H     -0.238000
      7 CAA         0.2670   -5.1470   -5.1160 c3        1 52H     -0.215667
      8 CBB         0.2240   -5.0510   -3.6020 c3        1 52H     -0.081000
      9 CAB        -0.6830   -3.9000   -3.1920 c3        1 52H     -0.215667
     10 CAC        -0.3210   -6.3660   -3.0210 c3        1 52H     -0.215667
     11 CAX         1.6380   -4.8040   -3.0660 c3        1 52H      0.025000
     12 OAH         2.2800   -3.8670   -3.8660 oh        1 52H     -0.328000
     13 CAT         1.5570   -4.2800   -1.6340 c2        1 52H      0.349000
     14 OAE         1.0500   -4.9620   -0.7660 o         1 52H     -0.335000
     15 NAQ         2.1300   -2.9820   -1.2980 n         1 52H     -0.873000
     16 SBE         1.5740   -2.1420    0.0420 s4        1 52H      2.033800
     17 OAF         0.0700   -2.1640    0.1160 o         1 52H     -0.518400
     18 OAG         1.9400   -2.8540    1.3260 o         1 52H     -0.518400
     19 O5'         2.1110   -0.7020    0.0290 o         1 52H     -0.705000
     20 C5'         1.1240    0.3380   -0.0720 c3        1 52H      0.009000
     21 C4'         0.8950    0.9720    1.3220 c3        1 52H     -0.033000
     22 O4'         0.8970    2.2710    1.2340 os        1 52H     -0.269000
     23 C3'        -0.4990    0.6090    1.8490 c3        1 52H      0.028000
     24 O3'        -0.3990   -0.2480    2.8830 oh        1 52H     -0.314000
     25 C2'        -1.1300    1.9540    2.3200 c3        1 52H     -0.032000
     26 O2'        -1.6920    1.8070    3.6910 oh        1 52H     -0.325000
     27 C1'        -0.1570    2.7940    2.3250 c3        1 52H      0.144000
     28 N9         -0.6330    4.1030    1.9650 n2        1 52H     -0.217000
     29 N7         -1.3160    5.9110    0.9370 n1        1 52H     -0.119000
     30 C2         -0.5850    6.3140    4.9070 c1        1 52H      0.028000
     31 N6         -1.6500    8.7210    2.5720 n3        1 52H     -0.356000
     32 H8         -1.1090    4.0950   -0.0550 DU        1 52H      0.236000
     33 HAA         0.9730   -5.7710   -5.3840 hc        1 52H      0.085444
     34 HAAA       -0.6020   -5.4700   -5.4490 hc        1 52H      0.085444
     35 HAAB        0.4520   -4.2630   -5.4940 hc        1 52H      0.085444
     36 HAB        -0.2190   -3.0470   -3.3440 hc        1 52H      0.085444
     37 HABA       -0.9080   -3.9840   -2.2470 hc        1 52H      0.085444
     38 HABB       -1.5080   -3.9250   -3.7300 hc        1 52H      0.085444
     39 HAC        -0.4990   -6.2520   -2.0650 hc        1 52H      0.085444
     40 HACA        0.3430   -7.0810   -3.1480 hc        1 52H      0.085444
     41 HACB       -1.1590   -6.6080   -3.4850 hc        1 52H      0.085444
     42 HAX         2.1450   -5.6450   -3.0790 h1        1 52H      0.117000
     43 HOAH        3.0570   -4.1990   -4.1460 ho        1 52H      0.223000
     44 HNAQ        2.7690   -2.6130   -1.8350 hn        1 52H      0.287000
     45 H5'         0.2840   -0.0410   -0.4000 h1        1 52H      0.114500
     46 H5'A        1.4370    1.0270   -0.6970 h1        1 52H      0.114500
     47 H4'         1.5860    0.6720    1.9490 h1        1 52H      0.149000
     48 H3'        -1.0380    0.2150    1.1340 h1        1 52H      0.102000
     49 HO3'       -1.1690   -0.6840    2.9830 ho        1 52H      0.234000
     50 H2'        -1.8240    2.2410    1.6950 h1        1 52H      0.114000
     51 HO2'       -2.5550    1.6000    3.6360 ho        1 52H      0.240000
     52 H1'         0.2610    2.8200    3.2120 h2        1 52H      0.148000
     53 H2         -0.4130    6.3360    5.8660 ha        1 52H      0.188000
     54 HN6        -1.7820    9.3590    3.2130 hn        1 52H      0.247000
     55 HN6A       -1.8070    8.9170    1.6940 hn        1 52H      0.247000
@<TRIPOS>BOND
     1    1    6 1   
     2    2    3 1   
     3    3   31 1   
     4    4   28 1   
     5    4   29 1   
     6    5   30 1   
     7    7    8 1   
     8    7   33 1   
     9    7   34 1   
    10    7   35 1   
    11    8    9 1   
    12    8   10 1   
    13    8   11 1   
    14    9   36 1   
    15    9   37 1   
    16    9   38 1   
    17   10   39 1   
    18   10   40 1   
    19   10   41 1   
    20   11   12 1   
    21   11   13 1   
    22   11   42 1   
    23   12   43 1   
    24   13   14 1   
    25   13   15 1   
    26   15   16 1   
    27   15   44 1   
    28   16   17 1   
    29   16   18 1   
    30   19   20 1   
    31   20   21 1   
    32   20   45 1   
    33   20   46 1   
    34   21   22 1   
    35   21   23 1   
    36   21   47 1   
    37   22   27 1   
    38   23   24 1   
    39   23   25 1   
    40   23   48 1   
    41   24   49 1   
    42   25   26 1   
    43   25   27 1   
    44   25   50 1   
    45   26   51 1   
    46   27   28 1   
    47   27   52 1   
    48   30   53 1   
    49   31   54 1   
    50   31   55 1   
@<TRIPOS>SUBSTRUCTURE
     1 52H         1 TEMP              0 ****  ****    0 ROOT
