@<TRIPOS>MOLECULE
52H
   55    57     1     0     0
SMALL
bcc


@<TRIPOS>ATOM
      1 C4          3.9400    0.1770   -0.5700 ca        1 52H      0.452800
      2 C5          4.4500   -0.0940   -1.9080 ca        1 52H     -0.231200
      3 C6          5.8750   -0.1550   -2.0660 ca        1 52H      0.762200
      4 C8          2.2760   -0.0810   -2.0720 cc        1 52H      0.420700
      5 N1          6.6730    0.0330   -0.9600 nb        1 52H     -0.796000
      6 N3          4.7380    0.3740    0.5230 nb        1 52H     -0.742000
      7 CBB        -2.8730   -2.7700    0.5730 c3        1 52H     -0.079000
      8 CAB        -2.5400   -1.9950    1.8370 c3        1 52H     -0.098433
      9 CAC        -1.6200   -2.9270   -0.2730 c3        1 52H     -0.098433
     10 CAX        -3.9690   -2.0470   -0.2410 c3        1 52H      0.092100
     11 OAH        -5.1140   -1.7580    0.5290 oh        1 52H     -0.574800
     12 CAT        -3.4400   -0.7330   -0.8350 c         1 52H      0.667100
     13 OAE        -3.4430    0.3150   -0.1690 o         1 52H     -0.572100
     14 NAQ        -2.9720   -0.7300   -2.1510 n         1 52H     -0.684300
     15 SBE        -2.4330    0.5190   -3.0560 s6        1 52H      1.697100
     16 OAF        -2.2130    0.0490   -4.3430 o         1 52H     -0.630300
     17 OAG        -3.0880    1.7150   -2.8370 o         1 52H     -0.630300
     18 O5'        -0.8720    0.7870   -2.4990 os        1 52H     -0.571500
     19 C4'        -0.4060    1.4150   -0.2110 c3        1 52H      0.056100
     20 O4'         0.2570    0.1460   -0.1030 os        1 52H     -0.404600
     21 C3'         0.3780    2.4370    0.6360 c3        1 52H      0.094100
     22 O3'        -0.3710    2.9110    1.7300 oh        1 52H     -0.581800
     23 C2'         1.6470    1.6870    1.1080 c3        1 52H      0.077100
     24 O2'         1.5500    1.4000    2.4900 oh        1 52H     -0.588800
     25 C1'         1.5950    0.3060    0.3810 c3        1 52H      0.261800
     26 N9          2.5420    0.1910   -0.7050 na        1 52H     -0.301000
     27 N7          3.3830   -0.2480   -2.8070 nd        1 52H     -0.548100
     28 C2          6.0560    0.2800    0.2250 ca        1 52H      0.684900
     29 N6          6.4230   -0.3810   -3.3010 nh        1 52H     -0.960500
     30 H8          1.2370   -0.1280   -2.4390 h5        1 52H      0.104800
     31 HAA        -4.4040   -4.0420    1.4500 hc        1 52H      0.046589
     32 HAAA       -3.5300   -4.7800    0.0390 hc        1 52H      0.046589
     33 HAAB       -2.7030   -4.6520    1.6480 hc        1 52H      0.046589
     34 HAB        -1.6500   -2.4480    2.3370 hc        1 52H      0.046589
     35 HABA       -2.3080   -0.9290    1.5920 hc        1 52H      0.046589
     36 HABB       -3.3980   -2.0240    2.5520 hc        1 52H      0.046589
     37 HAC        -1.8690   -3.3520   -1.2750 hc        1 52H      0.046589
     38 HACA       -1.1050   -1.9430   -0.4050 hc        1 52H      0.046589
     39 HACB       -0.9090   -3.6240    0.2340 hc        1 52H      0.046589
     40 HAX        -4.3510   -2.7340   -1.0510 h1        1 52H      0.093700
     41 HOAH       -4.8640   -1.1090    1.2030 ho        1 52H      0.426000
     42 HNAQ       -2.9290   -1.6460   -2.5520 hn        1 52H      0.347500
     43 H5'         0.5170    2.1750   -2.0540 h1        1 52H      0.075200
     44 H5'A       -1.2250    2.7090   -1.7610 h1        1 52H      0.075200
     45 H4'        -1.4370    1.2350    0.2090 h1        1 52H      0.110700
     46 H3'         0.6350    3.3580    0.0470 h1        1 52H      0.098700
     47 HO3'       -0.5790    2.1530    2.2960 ho        1 52H      0.420000
     48 H2'         2.5810    2.2620    0.8840 h1        1 52H      0.088700
     49 HO2'        1.7610    2.2200    2.9580 ho        1 52H      0.424000
     50 H1'         1.7610   -0.5410    1.1130 h2        1 52H      0.119700
     51 H2          6.7470    0.4270    1.0830 h5        1 52H      0.051100
     52 HN6         5.8210   -0.5690   -4.0630 hn        1 52H      0.449800
     53 HN6A        7.4020   -0.4710   -3.4110 hn        1 52H      0.449800
     54 C5'        -0.4940    1.8590   -1.6720 c3        1 52H      0.168400
     55 CAA        -3.4100   -4.1450    0.9500 c3        1 52H     -0.098433
@<TRIPOS>BOND
     1    1    2 ar  
     2    1    6 ar  
     3    1   26 1   
     4    2    3 ar  
     5    2   27 1   
     6    3    5 ar  
     7    3   29 1   
     8    4   26 1   
     9    4   27 2   
    10    4   30 1   
    11    5   28 ar  
    12    6   28 ar  
    13    7    8 1   
    14    7    9 1   
    15    7   10 1   
    16    7   55 1   
    17    8   34 1   
    18    8   35 1   
    19    8   36 1   
    20    9   37 1   
    21    9   38 1   
    22    9   39 1   
    23   10   11 1   
    24   10   12 1   
    25   10   40 1   
    26   11   41 1   
    27   12   13 2   
    28   12   14 1   
    29   14   15 1   
    30   14   42 1   
    31   15   16 2   
    32   15   17 2   
    33   15   18 1   
    34   18   54 1   
    35   19   20 1   
    36   19   21 1   
    37   19   45 1   
    38   19   54 1   
    39   20   25 1   
    40   21   22 1   
    41   21   23 1   
    42   21   46 1   
    43   22   47 1   
    44   23   24 1   
    45   23   25 1   
    46   23   48 1   
    47   24   49 1   
    48   25   26 1   
    49   25   50 1   
    50   28   51 1   
    51   29   52 1   
    52   29   53 1   
    53   31   55 1   
    54   32   55 1   
    55   33   55 1   
    56   43   54 1   
    57   44   54 1   
@<TRIPOS>SUBSTRUCTURE
     1 52H         1 TEMP              0 ****  ****    0 ROOT
