@<TRIPOS>MOLECULE
52I
   69    58     1     0     0
SMALL
bcc


@<TRIPOS>ATOM
      1 C10         0.7650    1.4740   -1.0740 c1        1 52I      0.043000
      2 C12        -0.0860    1.9340   -3.2500 c3        1 52I     -0.075500
      3 N01         3.1950    4.1610    4.7470 n3        1 52I     -0.339000
      4 C02         3.6690    4.5690    3.4870 c1        1 52I      0.183000
      5 C03         3.5910    3.7110    2.4180 c1        1 52I     -0.281000
      6 C04         2.9540    2.3070    2.6020 c2        1 52I     -0.057000
      7 C05         2.1720    1.9180    1.3230 c1        1 52I     -0.053000
      8 C06         2.8700    1.6080    0.1450 c1        1 52I     -0.185000
      9 C07         2.1680    1.3860   -1.0550 c1        1 52I      0.052000
     10 O08         2.9030    1.1670   -2.3030 o         1 52I     -0.212000
     11 C09         3.9410    2.1150   -2.5420 c3        1 52I     -0.075500
     12 O11         0.6930    1.0650   -2.4210 o         1 52I     -0.212000
     13 C13         0.0630    1.7860    0.1080 c1        1 52I     -0.044000
     14 C31         0.7720    2.0070    1.3080 c1        1 52I     -0.132000
     15 C32         3.9380    4.1440    1.1670 c1        1 52I      0.025000
     16 N33         4.3540    5.4110    0.9870 n1        1 52I     -0.250000
     17 C34         4.4320    6.2640    2.0510 c1        1 52I      0.169000
     18 N35         4.8450    7.6350    1.8470 n2        1 52I     -0.322000
     19 N36         4.0850    5.8300    3.3050 n2        1 52I     -0.291000
     20 C14        -1.4720    2.1170    0.0360 c1        1 52I     -0.061000
     21 O30        -0.7560   -0.6100   -0.6330 o         1 52I     -0.350000
     22 C16        -1.9220   -0.3830   -0.3610 c1        1 52I      0.372000
     23 N17        -2.8590   -1.4780   -0.2320 n2        1 52I     -0.270000
     24 N18        -4.1710   -1.2290    0.1830 n2        1 52I     -0.014000
     25 C19        -4.8380   -2.1710    0.9520 c1        1 52I     -0.119000
     26 C25        -4.1850   -3.4600    1.2580 c1        1 52I     -0.076000
     27 C26        -4.6980   -4.2590    2.2750 c1        1 52I     -0.115750
     28 C27        -3.9850   -5.3620    2.7140 c1        1 52I     -0.115750
     29 C28        -2.7650   -5.6690    2.1430 c1        1 52I     -0.115750
     30 C29        -2.2550   -4.8760    1.1340 c1        1 52I     -0.115750
     31 C24        -2.9730   -3.7630    0.6900 c1        1 52I     -0.073000
     32 C20        -2.4000   -2.8660   -0.4290 c3        1 52I      0.043000
     33 C21        -2.8670   -3.3780   -1.7640 c3        1 52I     -0.159000
     34 C15        -2.4080    1.0850   -0.1870 c2        1 52I     -0.173000
     35 C22        -1.6200   -3.8950   -2.5980 c3        1 52I     -0.106000
     36 C23        -1.4420   -5.3700   -2.3830 c3        1 52I     -0.209500
     37 C37        -1.8580   -3.6300   -4.0440 c3        1 52I     -0.209500
     38 H1         -1.0120    1.5700   -3.3360 h1        1 52I      0.084667
     39 H2          0.3200    1.9930   -4.1270 h1        1 52I      0.084667
     40 H3         -0.1210    2.8150   -2.8510 h1        1 52I      0.084667
     41 H4          2.9940    3.2770    4.8970 hn        1 52I      0.214500
     42 H5          3.1290    4.7670    5.4300 hn        1 52I      0.214500
     43 H6          3.6580    1.6480    2.7680 ha        1 52I      0.092000
     44 H7          2.3180    2.3270    3.3920 ha        1 52I      0.092000
     45 H8          3.8490    1.5450    0.1590 ha        1 52I      0.145000
     46 H9          4.7520    1.8190   -2.1130 h1        1 52I      0.084667
     47 H10         3.6830    2.9740   -2.1870 h1        1 52I      0.084667
     48 H11         4.0910    2.1930   -3.4980 h1        1 52I      0.084667
     49 H12         0.2920    2.2220    2.1240 ha        1 52I      0.167000
     50 H13         3.8820    3.5350    0.4050 ha        1 52I      0.171000
     51 H14         5.0240    8.1660    2.5640 hn        1 52I      0.218000
     52 H15         4.8660    7.9840    1.0040 hn        1 52I      0.218000
     53 H16        -1.7740    3.0260    0.1430 ha        1 52I      0.152000
     54 H19        -5.7950   -2.0240    1.2050 ha        1 52I      0.170000
     55 H20        -5.5780   -4.0400    2.6870 ha        1 52I      0.136500
     56 H21        -4.3530   -5.9350    3.4400 ha        1 52I      0.136500
     57 H22        -2.2640   -6.4460    2.4530 ha        1 52I      0.136500
     58 H23        -1.3920   -5.0950    0.7280 ha        1 52I      0.136500
     59 H24        -1.4370   -2.8880   -0.4000 h1        1 52I      0.137000
     60 H25        -3.5300   -4.1530   -1.6220 hc        1 52I      0.090000
     61 H26        -3.3080   -2.6610   -2.2530 hc        1 52I      0.090000
     62 H27        -3.3750    1.2940   -0.2320 ha        1 52I      0.157000
     63 H28        -0.8090   -3.4220   -2.3040 hc        1 52I      0.100000
     64 H29        -2.2850   -5.8380   -2.5910 hc        1 52I      0.073833
     65 H30        -1.1980   -5.5370   -1.4490 hc        1 52I      0.073833
     66 H31        -0.7500   -5.6920   -2.9550 hc        1 52I      0.073833
     67 H32        -2.1160   -4.4590   -4.4900 hc        1 52I      0.073833
     68 H33        -1.0390   -3.2810   -4.4520 hc        1 52I      0.073833
     69 H34        -2.5710   -2.9760   -4.1390 hc        1 52I      0.073833
@<TRIPOS>BOND
     1    1    9 1   
     2    1   13 1   
     3    2   12 1   
     4    2   38 1   
     5    2   39 1   
     6    2   40 1   
     7    3    4 1   
     8    3   41 1   
     9    3   42 1   
    10    4   19 1   
    11    5   15 1   
    12    6    7 1   
    13    6   43 1   
    14    6   44 1   
    15    7    8 1   
    16    8   45 1   
    17   10   11 1   
    18   11   46 1   
    19   11   47 1   
    20   11   48 1   
    21   13   14 1   
    22   14   49 1   
    23   15   50 1   
    24   16   17 1   
    25   17   19 1   
    26   18   51 1   
    27   18   52 1   
    28   20   34 1   
    29   20   53 1   
    30   21   22 1   
    31   22   34 1   
    32   23   24 1   
    33   23   32 1   
    34   24   25 1   
    35   25   54 1   
    36   26   31 1   
    37   27   28 1   
    38   27   55 1   
    39   28   56 1   
    40   29   30 1   
    41   29   57 1   
    42   30   58 1   
    43   31   32 1   
    44   32   33 1   
    45   32   59 1   
    46   33   35 1   
    47   33   60 1   
    48   33   61 1   
    49   34   62 1   
    50   35   36 1   
    51   35   37 1   
    52   35   63 1   
    53   36   64 1   
    54   36   65 1   
    55   36   66 1   
    56   37   67 1   
    57   37   68 1   
    58   37   69 1   
@<TRIPOS>SUBSTRUCTURE
     1 52I         1 TEMP              0 ****  ****    0 ROOT
