@<TRIPOS>MOLECULE
52I
   69    72     1     0     0
SMALL
bcc


@<TRIPOS>ATOM
      1 C10         2.3520    2.3000   -0.2570 ca        1 52I      0.094100
      2 C12         2.2810    4.0830    1.2960 c3        1 52I      0.115700
      3 C02         4.5130   -2.5980    0.6200 ca        1 52I      0.716200
      4 C03         4.7500   -2.1720   -0.7330 ca        1 52I     -0.428900
      5 C04         3.6960   -1.5650   -1.5780 c3        1 52I      0.032200
      6 C05         3.2350   -0.2300   -1.0920 ca        1 52I     -0.069300
      7 C06         4.1630    0.8020   -0.9060 ca        1 52I     -0.173000
      8 C07         3.7270    2.0620   -0.4920 ca        1 52I      0.100100
      9 O08         4.5650    3.1380   -0.2730 os        1 52I     -0.321900
     10 C09         5.9380    2.9410   -0.5940 c3        1 52I      0.110700
     11 O11         1.8770    3.5680    0.0250 os        1 52I     -0.329900
     12 C13         1.4210    1.2550   -0.4270 ca        1 52I     -0.055800
     13 C31         1.8800    0.0000   -0.8530 ca        1 52I     -0.148000
     14 C32         6.0380   -2.4040   -1.2400 ca        1 52I      0.487200
     15 N33         7.0370   -2.9680   -0.5500 nb        1 52I     -0.780000
     16 C34         6.7410   -3.3200    0.7660 ca        1 52I      0.895900
     17 N35         7.7870   -3.8060    1.5580 nh        1 52I     -0.927500
     18 N36         5.5080   -3.1650    1.3730 nb        1 52I     -0.818000
     19 C14         0.0120    1.5120   -0.1770 ce        1 52I     -0.034200
     20 C16        -2.3230    0.9400    0.2700 c         1 52I      0.691300
     21 N17        -3.3630    0.0280   -0.0590 n         1 52I     -0.240800
     22 N18        -3.0840   -1.0490   -0.8110 n2        1 52I     -0.440300
     23 C19        -4.0170   -1.6090   -1.5360 ce        1 52I      0.380800
     24 C25        -5.3800   -1.1020   -1.6570 ca        1 52I     -0.159900
     25 C26        -6.2900   -1.5830   -2.6020 ca        1 52I     -0.099000
     26 C27        -7.5510   -0.9970   -2.7040 ca        1 52I     -0.131000
     27 C28        -7.8990    0.0690   -1.8730 ca        1 52I     -0.116000
     28 C29        -6.9960    0.5500   -0.9250 ca        1 52I     -0.120000
     29 C24        -5.7370   -0.0390   -0.8060 ca        1 52I     -0.080300
     30 C20        -4.7590    0.4250    0.2490 c3        1 52I      0.126000
     31 C21        -5.2400   -0.1300    1.6050 c3        1 52I     -0.080400
     32 C15        -0.9170    0.5590    0.0050 cf        1 52I     -0.214200
     33 C22        -4.5950    0.5350    2.8100 c3        1 52I     -0.066700
     34 C23        -5.0680    1.9630    2.9830 c3        1 52I     -0.092100
     35 C37        -4.8980   -0.2730    4.0570 c3        1 52I     -0.092100
     36 H1          1.7940    5.0900    1.3330 h1        1 52I      0.046700
     37 H2          1.9010    3.4280    2.1170 h1        1 52I      0.046700
     38 H3          3.3920    4.1760    1.3490 h1        1 52I      0.046700
     39 H4          2.6580   -1.7980    0.7760 hn        1 52I      0.422800
     40 H5          3.1470   -2.6500    2.1460 hn        1 52I      0.422800
     41 H6          4.0850   -1.4380   -2.6270 hc        1 52I      0.059200
     42 H7          2.8200   -2.2700   -1.6430 hc        1 52I      0.059200
     43 H8          5.2280    0.6030   -1.0930 ha        1 52I      0.149000
     44 H9          6.3970    3.9410   -0.3860 h1        1 52I      0.048033
     45 H10         6.3870    2.1560    0.0630 h1        1 52I      0.048033
     46 H11         6.0580    2.6690   -1.6710 h1        1 52I      0.048033
     47 H12         1.1540   -0.8110   -1.0210 ha        1 52I      0.143000
     48 H13         6.2880   -2.1230   -2.2810 h4        1 52I      0.021100
     49 H14         8.5810   -4.1560    1.0740 hn        1 52I      0.426300
     50 H15         7.5310   -4.2850    2.3900 hn        1 52I      0.426300
     51 H16        -0.2700    2.5830   -0.1290 ha        1 52I      0.167000
     52 H19        -3.7230   -2.5130   -2.0980 h4        1 52I      0.040800
     53 H20        -6.0070   -2.4160   -3.2630 ha        1 52I      0.137000
     54 H21        -8.2710   -1.3740   -3.4440 ha        1 52I      0.136000
     55 H22        -8.8930    0.5320   -1.9640 ha        1 52I      0.136000
     56 H23        -7.2740    1.3900   -0.2700 ha        1 52I      0.140000
     57 H24        -4.7850    1.5570    0.2960 h1        1 52I      0.099700
     58 H25        -6.3520    0.0250    1.6530 hc        1 52I      0.050700
     59 H26        -5.0530   -1.2350    1.6460 hc        1 52I      0.050700
     60 H27        -0.6800   -0.5160   -0.0150 ha        1 52I      0.155000
     61 H28        -3.4780    0.5540    2.6610 hc        1 52I      0.059700
     62 H29        -4.6910    2.3780    3.9490 hc        1 52I      0.034867
     63 H30        -4.6770    2.6020    2.1530 hc        1 52I      0.034867
     64 H31        -6.1830    2.0150    2.9880 hc        1 52I      0.034867
     65 H32        -4.4180    0.1980    4.9480 hc        1 52I      0.034867
     66 H33        -6.0000   -0.3220    4.2340 hc        1 52I      0.034867
     67 H34        -4.5090   -1.3150    3.9540 hc        1 52I      0.034867
     68 N01         3.2390   -2.5060    1.1660 nh        1 52I     -0.937500
     69 O30        -2.6300    2.0260    0.7970 o         1 52I     -0.590100
@<TRIPOS>BOND
     1    1    8 ar  
     2    1   11 1   
     3    1   12 ar  
     4    2   11 1   
     5    2   36 1   
     6    2   37 1   
     7    2   38 1   
     8    3    4 ar  
     9    3   18 ar  
    10    3   68 1   
    11    4    5 1   
    12    4   14 ar  
    13    5    6 1   
    14    5   41 1   
    15    5   42 1   
    16    6    7 ar  
    17    6   13 ar  
    18    7    8 ar  
    19    7   43 1   
    20    8    9 1   
    21    9   10 1   
    22   10   44 1   
    23   10   45 1   
    24   10   46 1   
    25   12   13 ar  
    26   12   19 1   
    27   13   47 1   
    28   14   15 ar  
    29   14   48 1   
    30   15   16 ar  
    31   16   17 1   
    32   16   18 ar  
    33   17   49 1   
    34   17   50 1   
    35   19   32 2   
    36   19   51 1   
    37   20   21 1   
    38   20   32 1   
    39   20   69 2   
    40   21   22 1   
    41   21   30 1   
    42   22   23 2   
    43   23   24 1   
    44   23   52 1   
    45   24   25 ar  
    46   24   29 ar  
    47   25   26 ar  
    48   25   53 1   
    49   26   27 ar  
    50   26   54 1   
    51   27   28 ar  
    52   27   55 1   
    53   28   29 ar  
    54   28   56 1   
    55   29   30 1   
    56   30   31 1   
    57   30   57 1   
    58   31   33 1   
    59   31   58 1   
    60   31   59 1   
    61   32   60 1   
    62   33   34 1   
    63   33   35 1   
    64   33   61 1   
    65   34   62 1   
    66   34   63 1   
    67   34   64 1   
    68   35   65 1   
    69   35   66 1   
    70   35   67 1   
    71   39   68 1   
    72   40   68 1   
@<TRIPOS>SUBSTRUCTURE
     1 52I         1 TEMP              0 ****  ****    0 ROOT
