@<TRIPOS>MOLECULE
52I
   69    69     1     0     0
SMALL
bcc


@<TRIPOS>ATOM
      1 C10        -1.3700    0.4480    0.4020 ca        1 52I      0.096000
      2 C12        -1.9550   -0.1280   -1.8380 c3        1 52I     -0.073000
      3 C02         0.2050    1.6060    5.6220 c2        1 52I      0.182000
      4 C03         1.2650    1.0990    4.7960 c2        1 52I     -0.291000
      5 C04         1.1010   -0.0660    3.9000 c3        1 52I     -0.056000
      6 C05         0.2230    0.1410    2.7110 ca        1 52I     -0.087000
      7 C06        -0.0790   -0.9670    1.9130 ca        1 52I     -0.139000
      8 C07        -0.8740   -0.8110    0.7780 ca        1 52I     -0.125000
      9 O08        -1.1300   -1.9240   -0.0710 os        1 52I     -0.038000
     10 C09        -1.3660   -3.1020    0.3640 c1        1 52I     -0.016000
     11 O11        -2.1940    0.6730   -0.6800 os        1 52I     -0.208000
     12 C13        -1.0690    1.5690    1.2110 ca        1 52I     -0.035000
     13 C31        -0.2780    1.3950    2.3510 ca        1 52I     -0.099000
     14 C32         2.5130    1.7320    4.9310 c2        1 52I      0.026000
     15 N33         2.7670    2.7410    5.7730 n2        1 52I     -0.251000
     16 C34         1.6950    3.1550    6.5620 c2        1 52I      0.179000
     17 N35         1.9440    4.1260    7.5350 nv        1 52I     -0.327000
     18 N36         0.4100    2.6470    6.4880 n2        1 52I     -0.288000
     19 C14        -1.5020    2.9080    0.8360 c2        1 52I     -0.116000
     20 C16        -3.8390    2.9490    1.7270 c2        1 52I     -0.120000
     21 N17        -3.7550    2.1670    2.9100 n3        1 52I     -0.147000
     22 N18        -3.9660    2.8150    4.0680 n2        1 52I     -0.016000
     23 C19        -4.0780    2.1280    5.1780 c2        1 52I     -0.176000
     24 C25        -4.1010    0.6720    5.2320 c2        1 52I     -0.167000
     25 C26        -3.5360   -2.8410    7.3900 c1        1 52I     -0.225000
     26 C27        -2.7450   -1.9550    7.2530 c1        1 52I     -0.225000
     27 C28        -4.3950   -2.2490    2.9980 c1        1 52I      0.207000
     28 C29        -4.1270   -1.4540    4.0140 c2        1 52I     -0.450000
     29 C24        -4.1210   -0.0100    4.0640 c2        1 52I     -0.023000
     30 C20        -4.1320    0.7350    2.7410 c3        1 52I      0.023000
     31 C21        -5.4510    0.4740    2.0010 c3        1 52I     -0.180000
     32 C15        -2.6940    3.4850    1.0400 c2        1 52I     -0.066000
     33 C22        -6.6790    0.9450    2.7470 c3        1 52I     -0.164000
     34 C23        -5.3640    4.0620    0.3520 c2        1 52I     -0.258000
     35 C37        -7.9430    0.5160    2.0460 c3        1 52I     -0.209000
     36 H1         -0.8650   -0.3020   -1.9980 h1        1 52I      0.090333
     37 H2         -2.3920    0.4780   -2.6710 h1        1 52I      0.090333
     38 H3         -2.4920   -1.1030   -1.7310 h1        1 52I      0.090333
     39 H4         -1.8000    1.5030    6.0170 hn        1 52I      0.211500
     40 H5         -1.2860    0.5940    4.7110 hn        1 52I      0.211500
     41 H6          0.6980   -0.9330    4.4960 hc        1 52I      0.097500
     42 H7          2.1160   -0.3840    3.5220 hc        1 52I      0.097500
     43 H8          0.3160   -1.9630    2.1710 ha        1 52I      0.142000
     44 H9          0.9410   -3.7380    0.7760 ha        1 52I      0.004500
     45 H10         0.8240   -4.0570    0.1880 ha        1 52I      0.004500
     46 H11        -1.3970   -3.3160    1.4530 ha        1 52I      0.036000
     47 H12        -0.0390    2.2750    2.9710 ha        1 52I      0.153000
     48 H13         3.3740    1.4070    4.3150 h4        1 52I      0.160000
     49 H14         1.1550    4.5880    7.9240 hn        1 52I      0.223500
     50 H15         2.7680    4.6700    7.4220 hn        1 52I      0.223500
     51 H16        -0.7160    3.4880    0.3150 ha        1 52I      0.133000
     52 H19        -4.1620    2.7090    6.1120 h4        1 52I      0.172000
     53 H20        -4.0920    0.1810    6.2150 ha        1 52I      0.151000
     54 H21        -4.2370   -3.6270    7.5220 ha        1 52I      0.227000
     55 H22        -2.0350   -1.1720    7.1340 ha        1 52I      0.227000
     56 H23        -3.8740   -1.9570    4.9820 ha        1 52I      0.209000
     57 H24        -3.2980    0.3210    2.0890 h1        1 52I      0.123000
     58 H25        -5.5270   -0.6320    1.8100 hc        1 52I      0.097500
     59 H26        -5.4070    0.9760    0.9970 hc        1 52I      0.097500
     60 H27        -2.8510    4.5160    0.6580 ha        1 52I      0.124000
     61 H28        -6.6680    0.5320    3.7910 hc        1 52I      0.086500
     62 H29        -6.4280    4.3160    0.2760 h4        1 52I      0.159500
     63 H30        -6.6570    2.0650    2.8300 hc        1 52I      0.086500
     64 H31        -4.6200    4.3310   -0.3970 h4        1 52I      0.159500
     65 H32        -7.9750    0.9220    1.0060 hc        1 52I      0.073000
     66 H33        -8.0050   -0.5970    1.9890 hc        1 52I      0.073000
     67 H34        -8.8370    0.8920    2.5990 hc        1 52I      0.073000
     68 N01        -1.0500    0.9960    5.5940 nv        1 52I     -0.324000
     69 O30        -5.0900    3.3800    1.4350 os        1 52I      0.078000
@<TRIPOS>BOND
     1    1    8 1   
     2    1   11 1   
     3    1   12 1   
     4    2   11 1   
     5    2   36 1   
     6    2   37 1   
     7    2   38 1   
     8    3    4 1   
     9    3   18 1   
    10    3   68 1   
    11    4    5 1   
    12    4   14 1   
    13    5    6 1   
    14    5   41 1   
    15    5   42 1   
    16    6    7 1   
    17    6   13 1   
    18    7    8 1   
    19    7   43 1   
    20    8    9 1   
    21    9   10 1   
    22   10   46 1   
    23   12   13 1   
    24   12   19 1   
    25   13   47 1   
    26   14   15 1   
    27   14   48 1   
    28   15   16 1   
    29   16   17 1   
    30   16   18 1   
    31   17   49 1   
    32   17   50 1   
    33   19   32 1   
    34   19   51 1   
    35   20   21 1   
    36   20   32 1   
    37   20   69 1   
    38   21   22 1   
    39   21   30 1   
    40   22   23 1   
    41   23   24 1   
    42   23   52 1   
    43   24   29 1   
    44   24   53 1   
    45   25   26 1   
    46   25   54 1   
    47   26   55 1   
    48   27   28 1   
    49   28   29 1   
    50   28   56 1   
    51   29   30 1   
    52   30   31 1   
    53   30   57 1   
    54   31   33 1   
    55   31   58 1   
    56   31   59 1   
    57   32   60 1   
    58   33   35 1   
    59   33   61 1   
    60   33   63 1   
    61   34   62 1   
    62   34   64 1   
    63   34   69 1   
    64   35   65 1   
    65   35   66 1   
    66   35   67 1   
    67   39   68 1   
    68   40   68 1   
    69   44   45 1   
@<TRIPOS>SUBSTRUCTURE
     1 52I         1 TEMP              0 ****  ****    0 ROOT
