@<TRIPOS>MOLECULE
52I
   69    67     1     0     0
SMALL
bcc


@<TRIPOS>ATOM
      1 C10        -0.8790    0.5360    0.3610 ca        1 52I     -0.043000
      2 C12        -2.0590    1.8320   -1.2690 c1        1 52I     -0.012000
      3 C02         1.9230    1.5830    4.9510 c2        1 52I      0.208000
      4 C03         2.6710    0.8590    3.9560 c2        1 52I     -0.310000
      5 C04         2.1490   -0.3500    3.2780 c3        1 52I     -0.058000
      6 C05         1.0970   -0.0410    2.2620 ca        1 52I     -0.058000
      7 C06         1.4210    0.7060    1.1260 ca        1 52I     -0.125000
      8 C07         0.4340    0.9810    0.1790 ca        1 52I     -0.091000
      9 O08         0.7060    1.7590   -0.9800 os        1 52I     -0.049000
     10 C09         1.8350    1.7910   -1.5750 c1        1 52I      0.003000
     11 O11        -1.9100    0.7630   -0.5900 os        1 52I     -0.030000
     12 C13        -1.2140   -0.2180    1.5010 ca        1 52I     -0.042000
     13 C31        -0.2120   -0.5070    2.4340 ca        1 52I     -0.089000
     14 C32         3.9570    1.3420    3.6700 c2        1 52I      0.025000
     15 N33         4.5190    2.4070    4.2540 n2        1 52I     -0.261000
     16 C34         3.7400    3.0470    5.2180 c2        1 52I      0.184000
     17 N35         4.3250    4.0990    5.9270 nh        1 52I     -0.329000
     18 N36         2.4490    2.6950    5.5620 n2        1 52I     -0.299000
     19 C14        -2.5670   -0.7380    1.6470 c2        1 52I     -0.028000
     20 C16        -3.1580    0.1290    3.9320 c2        1 52I      0.370000
     21 N17        -4.2930    0.6170    4.6660 n         1 52I     -0.206000
     22 N18        -4.1160    0.9080    5.9770 n2        1 52I      0.004000
     23 C19        -5.0700    0.6410    6.8350 c2        1 52I     -0.129000
     24 C25        -6.2950   -0.0630    6.4890 c2        1 52I     -0.164000
     25 C26        -9.4410   -1.2230    7.8340 c1        1 52I     -0.221000
     26 C27        -9.5210   -2.3970    7.6220 c1        1 52I     -0.221000
     27 C28        -8.0170   -1.5240    3.5440 c1        1 52I      0.214000
     28 C29        -7.6770   -1.0530    4.7260 c2        1 52I     -0.453000
     29 C24        -6.5480   -0.2750    5.1700 c2        1 52I      0.023000
     30 C20        -5.6320    0.3570    4.1840 c2        1 52I     -0.026000
     31 C21        -6.1250    0.8200    3.0130 c2        1 52I     -0.142000
     32 C15        -3.4170   -0.6080    2.6740 c2        1 52I     -0.213000
     33 C22        -5.4400    1.6410    1.9800 c3        1 52I     -0.079000
     34 C23        -5.6300    1.0220    0.6070 c3        1 52I     -0.209500
     35 C37        -6.0070    3.0510    2.0040 c3        1 52I     -0.209500
     36 H1         -1.3650    2.6910   -1.1930 ha        1 52I      0.067000
     37 H2         -3.1390    3.5280    0.1570 ha        1 52I      0.005500
     38 H3         -3.4810    2.9680    0.3330 ha        1 52I      0.005500
     39 H4          0.1240    1.7250    5.9300 hn        1 52I      0.230500
     40 H5          0.1780    0.5710    4.7060 hn        1 52I      0.230500
     41 H6          1.7420   -1.0700    4.0410 hc        1 52I      0.098500
     42 H7          2.9950   -0.8800    2.7570 hc        1 52I      0.098500
     43 H8          2.4470    1.0820    0.9900 ha        1 52I      0.150000
     44 H9          1.4140    0.3940   -3.4460 ha        1 52I      0.005500
     45 H10         1.6440   -0.1060   -3.0480 ha        1 52I      0.005500
     46 H11         2.7010    1.2020   -1.2060 ha        1 52I      0.039000
     47 H12        -0.4700   -1.1010    3.3270 ha        1 52I      0.161000
     48 H13         4.5870    0.8360    2.9140 h4        1 52I      0.152000
     49 H14         3.7160    4.6970    6.4330 hn        1 52I      0.222500
     50 H15         5.1270    4.5210    5.5200 hn        1 52I      0.222500
     51 H16        -2.9140   -1.2930    0.7500 ha        1 52I      0.152000
     52 H19        -4.8930    0.9570    7.8780 h4        1 52I      0.178000
     53 H20        -6.9430   -0.4360    7.2930 ha        1 52I      0.153000
     54 H21        -9.3820   -0.1810    8.0290 ha        1 52I      0.223500
     55 H22        -9.5920   -3.4410    7.4410 ha        1 52I      0.223500
     56 H23        -8.3980   -1.3250    5.5440 ha        1 52I      0.211000
     57 H24        -6.4600   -2.0790    1.7860 ha        1 52I      0.005500
     58 H25        -7.1830    0.5990    2.7720 ha        1 52I      0.141000
     59 H26        -6.4690   -1.4030    1.7160 ha        1 52I      0.005500
     60 H27        -4.4110   -1.0900    2.5960 ha        1 52I      0.156000
     61 H28        -6.7140    0.8890    0.3780 hc        1 52I      0.080333
     62 H29        -5.1770    1.6790   -0.1760 hc        1 52I      0.080333
     63 H30        -4.3330    1.7060    2.1880 hc        1 52I      0.099000
     64 H31        -5.1300    0.0230    0.5620 hc        1 52I      0.080333
     65 H32        -5.4810    3.6790    1.2450 hc        1 52I      0.080333
     66 H33        -7.0970    3.0410    1.7650 hc        1 52I      0.080333
     67 H34        -5.8660    3.5110    3.0110 hc        1 52I      0.080333
     68 N01         0.6800    1.1330    5.3560 nh        1 52I     -0.328000
     69 O30        -2.0080    0.3360    4.3540 o         1 52I     -0.331000
@<TRIPOS>BOND
     1    1    8 1   
     2    1   11 1   
     3    1   12 1   
     4    2   11 1   
     5    2   36 1   
     6    3    4 1   
     7    3   18 1   
     8    3   68 1   
     9    4    5 1   
    10    4   14 1   
    11    5    6 1   
    12    5   41 1   
    13    5   42 1   
    14    6    7 1   
    15    6   13 1   
    16    7    8 1   
    17    7   43 1   
    18    8    9 1   
    19    9   10 1   
    20   10   46 1   
    21   12   13 1   
    22   12   19 1   
    23   13   47 1   
    24   14   15 1   
    25   14   48 1   
    26   15   16 1   
    27   16   17 1   
    28   16   18 1   
    29   17   49 1   
    30   17   50 1   
    31   19   32 1   
    32   19   51 1   
    33   20   21 1   
    34   20   32 1   
    35   20   69 1   
    36   21   22 1   
    37   21   30 1   
    38   22   23 1   
    39   23   24 1   
    40   23   52 1   
    41   24   29 1   
    42   24   53 1   
    43   25   26 1   
    44   25   54 1   
    45   26   55 1   
    46   27   28 1   
    47   28   29 1   
    48   28   56 1   
    49   29   30 1   
    50   30   31 1   
    51   31   33 1   
    52   31   58 1   
    53   32   60 1   
    54   33   34 1   
    55   33   35 1   
    56   33   63 1   
    57   34   61 1   
    58   34   62 1   
    59   34   64 1   
    60   35   65 1   
    61   35   66 1   
    62   35   67 1   
    63   37   38 1   
    64   39   68 1   
    65   40   68 1   
    66   44   45 1   
    67   57   59 1   
@<TRIPOS>SUBSTRUCTURE
     1 52I         1 TEMP              0 ****  ****    0 ROOT
