@<TRIPOS>MOLECULE
52J
   71    74     1     0     0
SMALL
bcc


@<TRIPOS>ATOM
      1 N01         3.8840   -0.7800    3.5600 n4        1 52J     -0.838300
      2 C02         3.3190    0.2050    2.6300 ca        1 52J      0.525200
      3 C03         1.9190    0.3610    2.4690 ca        1 52J     -0.165900
      4 C04         0.8490   -0.3580    3.2080 c3        1 52J     -0.014800
      5 C05         1.0400   -1.8240    3.3680 ca        1 52J     -0.189300
      6 C06         0.7470   -2.7090    2.3210 ca        1 52J     -0.150000
      7 C07         0.8420   -4.0870    2.5190 ca        1 52J      0.072100
      8 O08         0.5940   -5.0050    1.5220 os        1 52J     -0.323900
      9 C09        -0.2510   -4.5740    0.4540 c3        1 52J      0.107700
     10 C10         1.2620   -4.6070    3.7750 ca        1 52J      0.182100
     11 O11         1.4520   -5.9220    4.0880 os        1 52J     -0.310900
     12 C12         0.9320   -6.9300    3.2150 c3        1 52J      0.118700
     13 C13         1.5770   -3.7030    4.8170 ca        1 52J     -0.104800
     14 O30         3.6290   -1.5020    6.1670 o         1 52J     -0.673100
     15 C31         1.4060   -2.3300    4.6160 ca        1 52J     -0.132000
     16 C32         1.5200    1.3690    1.5300 ca        1 52J      0.473200
     17 N33         2.3740    2.1290    0.8430 nb        1 52J     -0.616000
     18 C34         3.7140    1.8880    1.0870 ca        1 52J      0.713900
     19 N35         4.6810    2.7370    0.3350 n4        1 52J     -0.813300
     20 N36         4.2310    0.9640    1.9380 nb        1 52J     -0.660000
     21 C14         2.0490   -4.1970    6.1060 ce        1 52J     -0.020200
     22 C15         3.1460   -3.7620    6.7390 cf        1 52J     -0.218200
     23 C16         4.0280   -2.6940    6.2020 c         1 52J      0.686300
     24 N17         5.2610   -3.0590    5.6150 n         1 52J     -0.221800
     25 N18         6.0680   -2.0680    5.1350 n2        1 52J     -0.590300
     26 C19         7.3360   -2.0430    5.4530 ce        1 52J      0.497800
     27 C20         5.8870   -4.3570    6.0070 c3        1 52J      0.121000
     28 C21         6.0790   -5.2870    4.7940 c3        1 52J     -0.082400
     29 C22         4.7890   -5.9460    4.3340 c3        1 52J     -0.067700
     30 C23         4.8930   -6.3350    2.8730 c3        1 52J     -0.092100
     31 C24         7.2340   -4.1560    6.6640 ca        1 52J     -0.087300
     32 C25         7.9800   -3.0050    6.3400 ca        1 52J     -0.211900
     33 C26         9.2510   -2.8100    6.8830 ca        1 52J     -0.070000
     34 C27         9.7740   -3.7620    7.7600 ca        1 52J     -0.118000
     35 C28         9.0320   -4.8970    8.0900 ca        1 52J     -0.077000
     36 C29         7.7610   -5.0980    7.5440 ca        1 52J     -0.118000
     37 C37         4.4640   -7.1680    5.1710 c3        1 52J     -0.092100
     38 H1          3.9310   -0.3910    4.5320 hn        1 52J      0.506467
     39 H2          3.2780   -1.6230    3.5960 hn        1 52J      0.506467
     40 H3          0.7590    0.1270    4.2270 hc        1 52J      0.111200
     41 H4         -0.1390   -0.1810    2.6880 hc        1 52J      0.111200
     42 H5          0.4150   -2.3170    1.3470 ha        1 52J      0.148000
     43 H6         -1.1820   -4.0990    0.8440 h1        1 52J      0.059367
     44 H7         -0.4840   -5.5290   -0.0860 h1        1 52J      0.059367
     45 H8          0.3070   -3.8740   -0.2130 h1        1 52J      0.059367
     46 H9         -0.1520   -6.7620    3.0170 h1        1 52J      0.068700
     47 H10         1.5170   -6.9460    2.2630 h1        1 52J      0.068700
     48 H11         1.0970   -7.8690    3.8050 h1        1 52J      0.068700
     49 H12         1.5420   -1.6510    5.4780 ha        1 52J      0.177000
     50 H13         0.4390    1.5640    1.3350 h4        1 52J      0.104100
     51 H14         5.6510    2.4680    0.5530 hn        1 52J      0.496133
     52 H15         4.5310    3.7250    0.5950 hn        1 52J      0.496133
     53 H16         1.4370   -5.0100    6.5450 ha        1 52J      0.178000
     54 H17         3.4330   -4.1490    7.7320 ha        1 52J      0.181000
     55 H19         7.9480   -1.2380    5.0020 h4        1 52J      0.041800
     56 H21         5.2040   -4.8780    6.7420 h1        1 52J      0.091700
     57 H22         6.5440   -4.7200    3.9460 hc        1 52J      0.063700
     58 H23         6.8110   -6.0840    5.0980 hc        1 52J      0.063700
     59 H24         3.9360   -5.2140    4.4450 hc        1 52J      0.034700
     60 H25         3.9410   -6.8170    2.5390 hc        1 52J      0.040200
     61 H26         5.7300   -7.0590    2.7180 hc        1 52J      0.040200
     62 H27         5.0800   -5.4370    2.2370 hc        1 52J      0.040200
     63 H28         9.8330   -1.9120    6.6290 ha        1 52J      0.147000
     64 H29        10.7760   -3.6150    8.1930 ha        1 52J      0.161000
     65 H30         9.4500   -5.6430    8.7860 ha        1 52J      0.161000
     66 H31         7.1850   -6.0000    7.8050 ha        1 52J      0.152000
     67 H32         4.4660   -6.9150    6.2580 hc        1 52J      0.040200
     68 H33         3.4500   -7.5520    4.8980 hc        1 52J      0.040200
     69 H34         5.2120   -7.9780    4.9950 hc        1 52J      0.040200
     70 H013        4.8380   -1.0640    3.2870 hn        1 52J      0.506467
     71 H353        4.5110    2.6260   -0.6770 hn        1 52J      0.496133
@<TRIPOS>BOND
     1    1    2 1   
     2    1   38 1   
     3    1   39 1   
     4    1   70 1   
     5    2    3 ar  
     6    2   20 ar  
     7    3    4 1   
     8    3   16 ar  
     9    4    5 1   
    10    4   40 1   
    11    4   41 1   
    12    5    6 ar  
    13    5   15 ar  
    14    6    7 ar  
    15    6   42 1   
    16    7    8 1   
    17    7   10 ar  
    18    8    9 1   
    19    9   43 1   
    20    9   44 1   
    21    9   45 1   
    22   10   11 1   
    23   10   13 ar  
    24   11   12 1   
    25   12   46 1   
    26   12   47 1   
    27   12   48 1   
    28   13   15 ar  
    29   13   21 1   
    30   14   23 2   
    31   15   49 1   
    32   16   17 ar  
    33   16   50 1   
    34   17   18 ar  
    35   18   19 1   
    36   18   20 ar  
    37   19   51 1   
    38   19   52 1   
    39   19   71 1   
    40   21   22 2   
    41   21   53 1   
    42   22   23 1   
    43   22   54 1   
    44   23   24 1   
    45   24   25 1   
    46   24   27 1   
    47   25   26 2   
    48   26   32 1   
    49   26   55 1   
    50   27   28 1   
    51   27   31 1   
    52   27   56 1   
    53   28   29 1   
    54   28   57 1   
    55   28   58 1   
    56   29   30 1   
    57   29   37 1   
    58   29   59 1   
    59   30   60 1   
    60   30   61 1   
    61   30   62 1   
    62   31   32 ar  
    63   31   36 ar  
    64   32   33 ar  
    65   33   34 ar  
    66   33   63 1   
    67   34   35 ar  
    68   34   64 1   
    69   35   36 ar  
    70   35   65 1   
    71   36   66 1   
    72   37   67 1   
    73   37   68 1   
    74   37   69 1   
@<TRIPOS>SUBSTRUCTURE
     1 52J         1 TEMP              0 ****  ****    0 ROOT
