@<TRIPOS>MOLECULE
52J
   69    61     1     0     0
SMALL
bcc


@<TRIPOS>ATOM
      1 N01        -2.8330    5.4450   -3.8600 n3        1 52J     -0.335000
      2 C02        -3.5250    4.2820   -4.3250 c2        1 52J      0.180000
      3 C03        -3.3700    3.0860   -3.6740 c2        1 52J     -0.285000
      4 C04        -2.5860    3.0300   -2.3520 c3        1 52J     -0.055000
      5 C05        -2.1990    1.5690   -2.0450 c2        1 52J     -0.055000
      6 C06        -3.1960    0.6110   -1.8670 c1        1 52J     -0.185000
      7 C07        -2.8620   -0.6700   -1.4230 c1        1 52J      0.052000
      8 O08        -3.8640   -1.6750   -1.3380 os        1 52J     -0.209500
      9 C09        -4.8510   -1.4210   -0.3480 c3        1 52J     -0.075000
     10 C10        -1.5330   -0.9910   -1.1580 c1        1 52J      0.052000
     11 O11        -1.1810   -2.3250   -0.8160 os        1 52J     -0.209500
     12 C12        -1.2640   -3.2420   -1.9040 c3        1 52J     -0.075000
     13 C13        -0.5360   -0.0330   -1.3360 c1        1 52J     -0.034000
     14 O30         1.6170   -0.7780   -0.0040 o         1 52J     -0.342000
     15 C31        -0.8680    1.2450   -1.7790 c2        1 52J     -0.135000
     16 C32        -4.0280    1.9740   -4.1260 c1        1 52J      0.028000
     17 N33        -4.8240    2.0560   -5.2060 n1        1 52J     -0.249000
     18 C34        -4.9780    3.2500   -5.8540 c1        1 52J      0.176000
     19 N35        -5.8680    3.3470   -6.9700 n3        1 52J     -0.327000
     20 N36        -4.3220    4.3610   -5.4050 n1        1 52J     -0.292000
     21 C14        -0.2890    1.2950   -0.5830 c1        1 52J     -0.118500
     22 C15         0.6450    1.3500    0.4360 c1        1 52J     -0.118500
     23 C16         1.4320    0.1000    0.8190 c1        1 52J      0.386000
     24 N17         2.0410    0.0040    2.1250 n2        1 52J     -0.262000
     25 N18         1.7220    0.9500    3.1170 n2        1 52J     -0.010000
     26 C19         1.6210    0.5540    4.4400 c1        1 52J     -0.127000
     27 C20         2.8710   -1.1370    2.4540 c3        1 52J      0.044000
     28 C21         4.2920   -0.7290    2.4580 c3        1 52J     -0.158000
     29 C22         5.0720   -1.5660    1.4230 c3        1 52J     -0.106000
     30 C23         6.3330   -0.7970    0.9850 c3        1 52J     -0.209000
     31 C24         2.4780   -1.6830    3.8730 c1        1 52J     -0.068000
     32 C25         1.9680   -0.8290    4.8160 c1        1 52J     -0.071000
     33 C26         1.6430   -1.3110    6.1040 c1        1 52J     -0.103000
     34 C27         1.8400   -2.6510    6.4150 c1        1 52J     -0.118500
     35 C28         2.3570   -3.5190    5.4580 c1        1 52J     -0.118500
     36 C29         2.6780   -3.0440    4.1890 c1        1 52J     -0.119000
     37 C37         5.4840   -2.9090    2.0530 c3        1 52J     -0.209000
     38 H1         -2.1270    5.3570   -3.2860 hn        1 52J      0.211000
     39 H2         -3.0930    6.2780   -4.1450 hn        1 52J      0.211000
     40 H3         -1.7710    3.5750   -2.4310 hc        1 52J      0.088500
     41 H4         -3.1470    3.3810   -1.6240 hc        1 52J      0.088500
     42 H5         -4.1380    0.8510   -2.0110 ha        1 52J      0.146000
     43 H6         -5.0910   -0.4670   -0.3610 h1        1 52J      0.086667
     44 H7         -4.4960   -1.6580    0.5380 h1        1 52J      0.086667
     45 H8         -5.6520   -1.9630   -0.5360 h1        1 52J      0.086667
     46 H9         -1.2750   -2.7450   -2.7490 h1        1 52J      0.086667
     47 H10        -2.0880   -3.7720   -1.8240 h1        1 52J      0.086667
     48 H11        -0.4870   -3.8410   -1.8870 h1        1 52J      0.086667
     49 H12        -0.1610    1.9230   -1.9050 ha        1 52J      0.138000
     50 H13        -3.9190    1.1210   -3.6640 ha        1 52J      0.170000
     51 H14        -6.0040    4.1570   -7.3780 hn        1 52J      0.222000
     52 H15        -6.3160    2.6030   -7.2650 hn        1 52J      0.222000
     53 H16        -0.7940    2.0990   -0.8280 ha        1 52J      0.136500
     54 H17         0.8010    2.1950    0.9150 ha        1 52J      0.136500
     55 H19         1.4170    1.2150    5.1360 ha        1 52J      0.167000
     56 H21         2.7360   -1.8420    1.7840 h1        1 52J      0.139000
     57 H22         4.6720   -0.8780    3.3510 hc        1 52J      0.088500
     58 H23         4.3600    0.2260    2.2270 hc        1 52J      0.088500
     59 H24         4.5030   -1.7320    0.6400 hc        1 52J      0.102000
     60 H25         6.9160   -0.6530    1.7640 hc        1 52J      0.073000
     61 H26         6.0710    0.0740    0.6060 hc        1 52J      0.073000
     62 H27         6.8160   -1.3180    0.3060 hc        1 52J      0.073000
     63 H28         1.2780   -0.6990    6.7790 ha        1 52J      0.134000
     64 H29         1.6160   -2.9840    7.3050 ha        1 52J      0.136500
     65 H30         2.4960   -4.4640    5.6770 ha        1 52J      0.136500
     66 H31         3.0410   -3.6540    3.5170 ha        1 52J      0.139000
     67 H32         5.6390   -2.7860    3.0110 hc        1 52J      0.073000
     68 H33         6.3070   -3.2320    1.6270 hc        1 52J      0.073000
     69 H34         4.7670   -3.5670    1.9190 hc        1 52J      0.073000
@<TRIPOS>BOND
     1    1    2 1   
     2    1   38 1   
     3    1   39 1   
     4    2    3 1   
     5    2   20 1   
     6    3    4 1   
     7    3   16 1   
     8    4    5 1   
     9    4   40 1   
    10    4   41 1   
    11    5    6 1   
    12    5   15 1   
    13    6   42 1   
    14    7    8 1   
    15    7   10 1   
    16    8    9 1   
    17    9   43 1   
    18    9   44 1   
    19    9   45 1   
    20   10   11 1   
    21   11   12 1   
    22   12   46 1   
    23   12   47 1   
    24   12   48 1   
    25   13   15 1   
    26   14   23 1   
    27   15   49 1   
    28   16   50 1   
    29   17   18 1   
    30   18   19 1   
    31   19   51 1   
    32   19   52 1   
    33   21   22 1   
    34   21   53 1   
    35   22   54 1   
    36   24   25 1   
    37   24   27 1   
    38   25   26 1   
    39   26   55 1   
    40   27   28 1   
    41   27   31 1   
    42   27   56 1   
    43   28   29 1   
    44   28   57 1   
    45   28   58 1   
    46   29   30 1   
    47   29   37 1   
    48   29   59 1   
    49   30   60 1   
    50   30   61 1   
    51   30   62 1   
    52   31   36 1   
    53   32   33 1   
    54   33   63 1   
    55   34   35 1   
    56   34   64 1   
    57   35   65 1   
    58   36   66 1   
    59   37   67 1   
    60   37   68 1   
    61   37   69 1   
@<TRIPOS>SUBSTRUCTURE
     1 52J         1 TEMP              0 ****  ****    0 ROOT
