@<TRIPOS>MOLECULE
52J
   69    72     1     0     0
SMALL
bcc


@<TRIPOS>ATOM
      1 N01         5.4740    1.0090    0.8660 nh        1 52J     -0.935500
      2 C02         4.6400    2.0470    0.4630 ca        1 52J      0.714200
      3 C03         4.0360    2.0210   -0.8400 ca        1 52J     -0.428900
      4 C04         4.2310    0.9040   -1.7940 c3        1 52J      0.033200
      5 C05         3.6250   -0.3850   -1.3440 ca        1 52J     -0.069300
      6 C06         4.4200   -1.5340   -1.2600 ca        1 52J     -0.195000
      7 C07         3.8430   -2.7510   -0.8880 ca        1 52J      0.097100
      8 O08         4.5520   -3.9300   -0.7540 os        1 52J     -0.323900
      9 C09         5.8590   -3.9430   -1.3170 c3        1 52J      0.112700
     10 C10         2.4630   -2.8260   -0.5890 ca        1 52J      0.093100
     11 O11         1.8460   -4.0400   -0.3460 os        1 52J     -0.329900
     12 C12         2.2240   -4.6600    0.8850 c3        1 52J      0.115700
     13 C13         1.6700   -1.6630   -0.6510 ca        1 52J     -0.052800
     14 O30        -2.3810   -1.9830    0.7690 o         1 52J     -0.590100
     15 C31         2.2650   -0.4560   -1.0420 ca        1 52J     -0.123000
     16 C32         3.2700    3.1450   -1.1920 ca        1 52J      0.490200
     17 N33         3.0830    4.2130   -0.4080 nb        1 52J     -0.778000
     18 C34         3.7170    4.1710    0.8340 ca        1 52J      0.899900
     19 N35         3.6360    5.3090    1.6400 nh        1 52J     -0.929500
     20 N36         4.4600    3.1070    1.3120 nb        1 52J     -0.819000
     21 C14         0.2530   -1.7510   -0.3340 ce        1 52J     -0.038200
     22 C15        -0.5200   -0.7010   -0.0140 cf        1 52J     -0.208200
     23 C16        -1.9520   -0.9090    0.3070 c         1 52J      0.691300
     24 N17        -2.8690    0.1590    0.1080 n         1 52J     -0.241800
     25 N18        -2.4780    1.2470   -0.5750 n2        1 52J     -0.438300
     26 C19        -3.3580    1.9890   -1.1960 ce        1 52J      0.379800
     27 C20        -4.2890   -0.0660    0.4740 c3        1 52J      0.126000
     28 C21        -4.6150    0.4350    1.8960 c3        1 52J     -0.080400
     29 C22        -4.0100   -0.4100    3.0050 c3        1 52J     -0.066700
     30 C23        -4.1310    0.3250    4.3250 c3        1 52J     -0.091600
     31 C24        -5.2440    0.6150   -0.4790 ca        1 52J     -0.080300
     32 C25        -4.7850    1.6860   -1.2680 ca        1 52J     -0.159900
     33 C26        -5.6640    2.3650   -2.1140 ca        1 52J     -0.100000
     34 C27        -6.9990    1.9690   -2.1800 ca        1 52J     -0.131000
     35 C28        -7.4520    0.8960   -1.4120 ca        1 52J     -0.117000
     36 C29        -6.5790    0.2160   -0.5630 ca        1 52J     -0.120000
     37 C37        -4.6710   -1.7690    3.0980 c3        1 52J     -0.091600
     38 H1          5.7340    0.9800    1.8260 hn        1 52J      0.418800
     39 H2          5.2800    0.1260    0.4480 hn        1 52J      0.418800
     40 H3          3.7720    1.1760   -2.7860 hc        1 52J      0.058200
     41 H4          5.3340    0.7640   -1.9760 hc        1 52J      0.058200
     42 H5          5.4900   -1.4750   -1.5060 ha        1 52J      0.143000
     43 H6          6.5430   -3.2830   -0.7270 h1        1 52J      0.046033
     44 H7          6.1710   -5.0140   -1.2240 h1        1 52J      0.046033
     45 H8          5.8380   -3.6280   -2.3880 h1        1 52J      0.046033
     46 H9          3.3190   -4.8810    0.8930 h1        1 52J      0.046367
     47 H10         1.9480   -4.0070    1.7470 h1        1 52J      0.046367
     48 H11         1.6250   -5.6050    0.8930 h1        1 52J      0.046367
     49 H12         1.6510    0.4560   -1.1200 ha        1 52J      0.149000
     50 H13         2.7660    3.1910   -2.1760 h4        1 52J      0.022100
     51 H14         2.9090    5.9540    1.4310 hn        1 52J      0.427800
     52 H15         3.8730    5.2010    2.5980 hn        1 52J      0.427800
     53 H16        -0.1730   -2.7750   -0.3560 ha        1 52J      0.166000
     54 H17        -0.1340    0.3280    0.0430 ha        1 52J      0.159000
     55 H19        -2.9680    2.8870   -1.7050 h4        1 52J      0.041800
     56 H21        -4.4730   -1.1840    0.4380 h1        1 52J      0.098700
     57 H22        -4.2700    1.4960    2.0070 hc        1 52J      0.050700
     58 H23        -5.7330    0.4320    2.0020 hc        1 52J      0.050700
     59 H24        -2.9160   -0.5700    2.7850 hc        1 52J      0.060700
     60 H25        -5.2040    0.5110    4.5730 hc        1 52J      0.034700
     61 H26        -3.6780   -0.2800    5.1460 hc        1 52J      0.034700
     62 H27        -3.6040    1.3080    4.2770 hc        1 52J      0.034700
     63 H28        -5.3000    3.2040   -2.7260 ha        1 52J      0.137000
     64 H29        -7.6960    2.5030   -2.8430 ha        1 52J      0.136000
     65 H30        -8.5050    0.5830   -1.4750 ha        1 52J      0.136000
     66 H31        -6.9390   -0.6290    0.0430 ha        1 52J      0.140000
     67 H32        -5.7810   -1.6680    3.1690 hc        1 52J      0.034700
     68 H33        -4.4180   -2.3850    2.2000 hc        1 52J      0.034700
     69 H34        -4.3090   -2.3110    4.0050 hc        1 52J      0.034700
@<TRIPOS>BOND
     1    1    2 1   
     2    1   38 1   
     3    1   39 1   
     4    2    3 ar  
     5    2   20 ar  
     6    3    4 1   
     7    3   16 ar  
     8    4    5 1   
     9    4   40 1   
    10    4   41 1   
    11    5    6 ar  
    12    5   15 ar  
    13    6    7 ar  
    14    6   42 1   
    15    7    8 1   
    16    7   10 ar  
    17    8    9 1   
    18    9   43 1   
    19    9   44 1   
    20    9   45 1   
    21   10   11 1   
    22   10   13 ar  
    23   11   12 1   
    24   12   46 1   
    25   12   47 1   
    26   12   48 1   
    27   13   15 ar  
    28   13   21 1   
    29   14   23 2   
    30   15   49 1   
    31   16   17 ar  
    32   16   50 1   
    33   17   18 ar  
    34   18   19 1   
    35   18   20 ar  
    36   19   51 1   
    37   19   52 1   
    38   21   22 2   
    39   21   53 1   
    40   22   23 1   
    41   22   54 1   
    42   23   24 1   
    43   24   25 1   
    44   24   27 1   
    45   25   26 2   
    46   26   32 1   
    47   26   55 1   
    48   27   28 1   
    49   27   31 1   
    50   27   56 1   
    51   28   29 1   
    52   28   57 1   
    53   28   58 1   
    54   29   30 1   
    55   29   37 1   
    56   29   59 1   
    57   30   60 1   
    58   30   61 1   
    59   30   62 1   
    60   31   32 ar  
    61   31   36 ar  
    62   32   33 ar  
    63   33   34 ar  
    64   33   63 1   
    65   34   35 ar  
    66   34   64 1   
    67   35   36 ar  
    68   35   65 1   
    69   36   66 1   
    70   37   67 1   
    71   37   68 1   
    72   37   69 1   
@<TRIPOS>SUBSTRUCTURE
     1 52J         1 TEMP              0 ****  ****    0 ROOT
