@<TRIPOS>MOLECULE
52J
   69    72     1     0     0
SMALL
bcc


@<TRIPOS>ATOM
      1 N01         0.4520   -0.1230    2.0970 nv        1 52J     -0.934500
      2 C02         1.7030    0.1690    2.6340 ca        1 52J      0.710200
      3 C03         2.1460   -0.4900    3.8300 ca        1 52J     -0.421900
      4 C04         1.3400   -1.5130    4.5370 c3        1 52J      0.032200
      5 C05         1.1590   -2.7810    3.7680 ca        1 52J     -0.064300
      6 C06        -0.1280   -3.1970    3.4080 ca        1 52J     -0.196000
      7 C07        -0.3030   -4.3950    2.7100 ca        1 52J      0.095100
      8 O08        -1.5320   -4.8600    2.2800 os        1 52J     -0.327900
      9 C09        -2.6710   -4.2930    2.9210 c3        1 52J      0.113700
     10 C10         0.8150   -5.1860    2.3630 ca        1 52J      0.089100
     11 O11         0.6700   -6.4230    1.7570 os        1 52J     -0.327900
     12 C12         0.1510   -6.3710    0.4280 c3        1 52J      0.113700
     13 C13         2.1090   -4.7760    2.7430 ca        1 52J     -0.045800
     14 O30         4.1290   -5.3400    5.3670 o         1 52J     -0.575100
     15 C31         2.2620   -3.5730    3.4420 ca        1 52J     -0.111000
     16 C32         3.3890   -0.0770    4.3410 ca        1 52J      0.490200
     17 N33         4.1540    0.8780    3.8000 nb        1 52J     -0.775000
     18 C34         3.6460    1.4830    2.6510 ca        1 52J      0.894900
     19 N35         4.3610    2.5590    2.1150 nv        1 52J     -0.928500
     20 N36         2.4640    1.1330    2.0260 nb        1 52J     -0.819000
     21 C14         3.2400   -5.6140    2.3790 ce        1 52J     -0.042200
     22 C15         4.3990   -5.7850    3.0230 cf        1 52J     -0.190200
     23 C16         4.7870   -5.1920    4.3230 c         1 52J      0.691300
     24 N17         6.0160   -4.4780    4.3900 n         1 52J     -0.251800
     25 N18         6.6480   -4.1520    3.2510 n2        1 52J     -0.438300
     26 C19         7.4930   -3.1540    3.2310 ce        1 52J      0.380800
     27 C20         6.4800   -3.9940    5.7110 c3        1 52J      0.129000
     28 C21         7.4210   -4.9940    6.4120 c3        1 52J     -0.082400
     29 C22         6.7280   -6.2450    6.9270 c3        1 52J     -0.066700
     30 C23         7.7700   -7.2720    7.3270 c3        1 52J     -0.091600
     31 C24         7.2150   -2.6760    5.6090 ca        1 52J     -0.083300
     32 C25         7.7740   -2.2920    4.3760 ca        1 52J     -0.157900
     33 C26         8.5070   -1.1080    4.2740 ca        1 52J     -0.097000
     34 C27         8.6730   -0.3020    5.3990 ca        1 52J     -0.127000
     35 C28         8.1040   -0.6720    6.6190 ca        1 52J     -0.114000
     36 C29         7.3750   -1.8570    6.7270 ca        1 52J     -0.122000
     37 C37         5.8160   -5.9400    8.0970 c3        1 52J     -0.091600
     38 H1          0.2560    0.2300    1.1870 hn        1 52J      0.417800
     39 H2          0.1240   -1.0450    2.2750 hn        1 52J      0.417800
     40 H3          1.8370   -1.7690    5.5150 hc        1 52J      0.059700
     41 H4          0.3340   -1.0760    4.7900 hc        1 52J      0.059700
     42 H5         -0.9990   -2.5880    3.6940 ha        1 52J      0.142000
     43 H6         -2.8160   -3.2370    2.5880 h1        1 52J      0.045700
     44 H7         -2.5740   -4.3450    4.0320 h1        1 52J      0.045700
     45 H8         -3.5150   -4.9370    2.5660 h1        1 52J      0.045700
     46 H9          0.8450   -5.8010   -0.2360 h1        1 52J      0.044700
     47 H10         0.1040   -7.4470    0.1250 h1        1 52J      0.044700
     48 H11        -0.8670   -5.9120    0.4170 h1        1 52J      0.044700
     49 H12         3.2690   -3.2470    3.7450 ha        1 52J      0.146000
     50 H13         3.8020   -0.5480    5.2540 h4        1 52J      0.024100
     51 H14         5.3140    2.6340    2.3820 hn        1 52J      0.425300
     52 H15         4.1410    2.8220    1.1830 hn        1 52J      0.425300
     53 H16         3.0720   -6.1940    1.4480 ha        1 52J      0.143000
     54 H17         5.1710   -6.4510    2.5950 ha        1 52J      0.157000
     55 H19         7.9980   -2.9600    2.2690 h4        1 52J      0.040800
     56 H21         5.5600   -3.8530    6.3570 h1        1 52J      0.094700
     57 H22         8.2450   -5.2880    5.7100 hc        1 52J      0.051200
     58 H23         7.8940   -4.4560    7.2780 hc        1 52J      0.051200
     59 H24         6.0980   -6.6800    6.0990 hc        1 52J      0.059700
     60 H25         8.4160   -7.5350    6.4550 hc        1 52J      0.034867
     61 H26         7.2730   -8.2030    7.6920 hc        1 52J      0.034867
     62 H27         8.4190   -6.8740    8.1430 hc        1 52J      0.034867
     63 H28         8.9430   -0.8130    3.3080 ha        1 52J      0.135000
     64 H29         9.2480    0.6320    5.3230 ha        1 52J      0.135000
     65 H30         8.2300   -0.0260    7.5010 ha        1 52J      0.136000
     66 H31         6.9310   -2.1480    7.6910 ha        1 52J      0.139000
     67 H32         4.9360   -5.3410    7.7550 hc        1 52J      0.034867
     68 H33         6.3600   -5.3700    8.8880 hc        1 52J      0.034867
     69 H34         5.4360   -6.8900    8.5450 hc        1 52J      0.034867
@<TRIPOS>BOND
     1    1    2 1   
     2    1   38 1   
     3    1   39 1   
     4    2    3 ar  
     5    2   20 ar  
     6    3    4 1   
     7    3   16 ar  
     8    4    5 1   
     9    4   40 1   
    10    4   41 1   
    11    5    6 ar  
    12    5   15 ar  
    13    6    7 ar  
    14    6   42 1   
    15    7    8 1   
    16    7   10 ar  
    17    8    9 1   
    18    9   43 1   
    19    9   44 1   
    20    9   45 1   
    21   10   11 1   
    22   10   13 ar  
    23   11   12 1   
    24   12   46 1   
    25   12   47 1   
    26   12   48 1   
    27   13   15 ar  
    28   13   21 1   
    29   14   23 2   
    30   15   49 1   
    31   16   17 ar  
    32   16   50 1   
    33   17   18 ar  
    34   18   19 1   
    35   18   20 ar  
    36   19   51 1   
    37   19   52 1   
    38   21   22 2   
    39   21   53 1   
    40   22   23 1   
    41   22   54 1   
    42   23   24 1   
    43   24   25 1   
    44   24   27 1   
    45   25   26 2   
    46   26   32 1   
    47   26   55 1   
    48   27   28 1   
    49   27   31 1   
    50   27   56 1   
    51   28   29 1   
    52   28   57 1   
    53   28   58 1   
    54   29   30 1   
    55   29   37 1   
    56   29   59 1   
    57   30   60 1   
    58   30   61 1   
    59   30   62 1   
    60   31   32 ar  
    61   31   36 ar  
    62   32   33 ar  
    63   33   34 ar  
    64   33   63 1   
    65   34   35 ar  
    66   34   64 1   
    67   35   36 ar  
    68   35   65 1   
    69   36   66 1   
    70   37   67 1   
    71   37   68 1   
    72   37   69 1   
@<TRIPOS>SUBSTRUCTURE
     1 52J         1 TEMP              0 ****  ****    0 ROOT
