@<TRIPOS>MOLECULE
52J
   69    72     1     0     0
SMALL
bcc


@<TRIPOS>ATOM
      1 N01         0.7290    0.2440    2.0250 nh        1 52J     -0.934500
      2 C02         2.1020    0.4110    2.1900 ca        1 52J      0.711200
      3 C03         2.7770   -0.2130    3.2930 ca        1 52J     -0.419900
      4 C04         2.0810   -1.0710    4.2810 c3        1 52J      0.031200
      5 C05         1.6290   -2.3800    3.7190 ca        1 52J     -0.064300
      6 C06         0.2670   -2.6990    3.6870 ca        1 52J     -0.199000
      7 C07        -0.1480   -3.9280    3.1650 ca        1 52J      0.098100
      8 O08        -1.4740   -4.3040    3.0550 os        1 52J     -0.326900
      9 C09        -2.3940   -3.5860    3.8700 c3        1 52J      0.113700
     10 C10         0.8010   -4.8480    2.6650 ca        1 52J      0.092100
     11 O11         0.4360   -6.1070    2.2200 os        1 52J     -0.323900
     12 C12        -0.3670   -6.1060    1.0390 c3        1 52J      0.113700
     13 C13         2.1720   -4.5350    2.7240 ca        1 52J     -0.046800
     14 O30         4.1300   -6.1490    5.1970 o         1 52J     -0.568100
     15 C31         2.5690   -3.3000    3.2500 ca        1 52J     -0.125000
     16 C32         4.1490    0.0610    3.4140 ca        1 52J      0.488200
     17 N33         4.8400    0.8620    2.5930 nb        1 52J     -0.784000
     18 C34         4.1080    1.4530    1.5650 ca        1 52J      0.895900
     19 N35         4.7630    2.3860    0.7540 nh        1 52J     -0.928500
     20 N36         2.7690    1.2240    1.3110 nb        1 52J     -0.819000
     21 C14         3.1490   -5.4850    2.2070 ce        1 52J     -0.049200
     22 C15         4.2490   -5.9300    2.8170 cf        1 52J     -0.179200
     23 C16         4.6630   -5.6210    4.2070 c         1 52J      0.691300
     24 N17         5.7700   -4.7520    4.4040 n         1 52J     -0.249800
     25 N18         6.2590   -4.0670    3.3560 n2        1 52J     -0.439300
     26 C19         6.8490   -2.9150    3.5440 ce        1 52J      0.380800
     27 C20         6.1970   -4.4580    5.7950 c3        1 52J      0.125000
     28 C21         7.3770   -5.3450    6.2430 c3        1 52J     -0.081400
     29 C22         6.9440   -6.7370    6.6780 c3        1 52J     -0.073700
     30 C23         8.1130   -7.6970    6.5820 c3        1 52J     -0.088600
     31 C24         6.6030   -3.0130    5.9720 ca        1 52J     -0.083300
     32 C25         6.9730   -2.2580    4.8430 ca        1 52J     -0.167900
     33 C26         7.3800   -0.9300    4.9870 ca        1 52J     -0.098000
     34 C27         7.4200   -0.3570    6.2580 ca        1 52J     -0.132000
     35 C28         7.0470   -1.1020    7.3770 ca        1 52J     -0.117000
     36 C29         6.6350   -2.4280    7.2380 ca        1 52J     -0.124000
     37 C37         6.3960   -6.7240    8.0900 c3        1 52J     -0.088600
     38 H1          0.3680   -0.6170    2.3730 hn        1 52J      0.418300
     39 H2          0.3340    0.5550    1.1670 hn        1 52J      0.418300
     40 H3          1.2000   -0.5130    4.7040 hc        1 52J      0.059200
     41 H4          2.7740   -1.2820    5.1440 hc        1 52J      0.059200
     42 H5         -0.4700   -1.9900    4.0910 ha        1 52J      0.141000
     43 H6         -2.5320   -2.5490    3.4770 h1        1 52J      0.046033
     44 H7         -2.0550   -3.5600    4.9340 h1        1 52J      0.046033
     45 H8         -3.3420   -4.1730    3.7700 h1        1 52J      0.046033
     46 H9         -0.5470   -7.1930    0.8470 h1        1 52J      0.044033
     47 H10        -1.3300   -5.5690    1.2140 h1        1 52J      0.044033
     48 H11         0.1920   -5.6400    0.1910 h1        1 52J      0.044033
     49 H12         3.6390   -3.0440    3.2820 ha        1 52J      0.148000
     50 H13         4.7460   -0.4010    4.2260 h4        1 52J      0.027100
     51 H14         4.3250    2.6180   -0.1060 hn        1 52J      0.425800
     52 H15         5.7560    2.3500    0.7500 hn        1 52J      0.425800
     53 H16         2.8980   -5.8740    1.2000 ha        1 52J      0.141000
     54 H17         4.9360   -6.6300    2.3090 ha        1 52J      0.157000
     55 H19         7.2590   -2.4200    2.6460 h4        1 52J      0.044800
     56 H21         5.3120   -4.6740    6.4680 h1        1 52J      0.098700
     57 H22         7.8830   -4.8310    7.1040 hc        1 52J      0.052700
     58 H23         8.1300   -5.4240    5.4160 hc        1 52J      0.052700
     59 H24         6.1280   -7.0970    5.9880 hc        1 52J      0.070700
     60 H25         8.9600   -7.3490    7.2220 hc        1 52J      0.032867
     61 H26         8.4730   -7.7710    5.5280 hc        1 52J      0.032867
     62 H27         7.8040   -8.7140    6.9240 hc        1 52J      0.032867
     63 H28         7.6550   -0.3390    4.1000 ha        1 52J      0.147000
     64 H29         7.7420    0.6880    6.3760 ha        1 52J      0.139000
     65 H30         7.0780   -0.6430    8.3770 ha        1 52J      0.136000
     66 H31         6.3400   -3.0140    8.1220 ha        1 52J      0.141000
     67 H32         7.1770   -6.3900    8.8150 hc        1 52J      0.032867
     68 H33         6.0590   -7.7480    8.3800 hc        1 52J      0.032867
     69 H34         5.5210   -6.0330    8.1640 hc        1 52J      0.032867
@<TRIPOS>BOND
     1    1    2 1   
     2    1   38 1   
     3    1   39 1   
     4    2    3 ar  
     5    2   20 ar  
     6    3    4 1   
     7    3   16 ar  
     8    4    5 1   
     9    4   40 1   
    10    4   41 1   
    11    5    6 ar  
    12    5   15 ar  
    13    6    7 ar  
    14    6   42 1   
    15    7    8 1   
    16    7   10 ar  
    17    8    9 1   
    18    9   43 1   
    19    9   44 1   
    20    9   45 1   
    21   10   11 1   
    22   10   13 ar  
    23   11   12 1   
    24   12   46 1   
    25   12   47 1   
    26   12   48 1   
    27   13   15 ar  
    28   13   21 1   
    29   14   23 2   
    30   15   49 1   
    31   16   17 ar  
    32   16   50 1   
    33   17   18 ar  
    34   18   19 1   
    35   18   20 ar  
    36   19   51 1   
    37   19   52 1   
    38   21   22 2   
    39   21   53 1   
    40   22   23 1   
    41   22   54 1   
    42   23   24 1   
    43   24   25 1   
    44   24   27 1   
    45   25   26 2   
    46   26   32 1   
    47   26   55 1   
    48   27   28 1   
    49   27   31 1   
    50   27   56 1   
    51   28   29 1   
    52   28   57 1   
    53   28   58 1   
    54   29   30 1   
    55   29   37 1   
    56   29   59 1   
    57   30   60 1   
    58   30   61 1   
    59   30   62 1   
    60   31   32 ar  
    61   31   36 ar  
    62   32   33 ar  
    63   33   34 ar  
    64   33   63 1   
    65   34   35 ar  
    66   34   64 1   
    67   35   36 ar  
    68   35   65 1   
    69   36   66 1   
    70   37   67 1   
    71   37   68 1   
    72   37   69 1   
@<TRIPOS>SUBSTRUCTURE
     1 52J         1 TEMP              0 ****  ****    0 ROOT
