@<TRIPOS>MOLECULE
52K
   42    44     1     0     0
SMALL
bcc


@<TRIPOS>ATOM
      1 C1          0.1310   -0.2680   -0.0770 c3        1 52K      0.085400
      2 C2          1.6410    0.0400    0.1360 c3        1 52K      0.171500
      3 C5         -0.3330   -0.5410    2.2300 c3        1 52K      0.061100
      4 C6          1.0420    0.0810    2.4480 c2        1 52K      0.417200
      5 C8          2.4420   -1.2080   -0.2880 c3        1 52K     -0.091100
      6 C11         1.2640    1.7450   -1.7120 ca        1 52K     -0.153000
      7 C12         3.8550    2.7910   -1.3310 ca        1 52K      0.084600
      8 C16         5.6830    4.4670   -1.5380 c         1 52K      0.584600
      9 C18         7.1170    4.7720   -1.1810 ca        1 52K      0.337800
     10 C21         8.9870    4.4610    0.1370 ca        1 52K      0.401200
     11 C23         9.7170    5.4330   -0.5910 ca        1 52K     -0.077900
     12 CL         11.3110    5.7820   -0.1680 cl        1 52K     -0.040400
     13 N19         7.7200    4.1330   -0.1460 nb        1 52K     -0.660000
     14 C22         9.0890    6.0870   -1.6540 ca        1 52K     -0.095000
     15 C20         7.7650    5.7550   -1.9550 ca        1 52K     -0.168300
     16 O17         5.0270    5.2870   -2.2050 o         1 52K     -0.576100
     17 N15         5.1620    3.2500   -1.1170 n         1 52K     -0.459100
     18 C10         3.3800    1.7160   -0.5420 ca        1 52K     -0.166000
     19 C14         2.9980    3.3330   -2.3170 ca        1 52K     -0.130000
     20 C13         1.7270    2.8020   -2.4950 ca        1 52K     -0.095000
     21 C9          2.0920    1.2070   -0.7240 ca        1 52K     -0.083300
     22 N4          1.9250    0.3500    1.5520 n2        1 52K     -0.503900
     23 N7          1.3590    0.4100    3.8670 n4        1 52K     -0.804600
     24 O3         -0.3630   -1.1350    0.9450 os        1 52K     -0.368600
     25 H1         -0.4760    0.6750   -0.0920 h1        1 52K      0.095200
     26 H2         -0.0200   -0.8560   -1.0220 h1        1 52K      0.095200
     27 H3         -0.5400   -1.3880    2.9390 h1        1 52K      0.091700
     28 H4         -1.1210    0.2560    2.3140 h1        1 52K      0.091700
     29 H5          3.5300   -1.0800   -0.0720 hc        1 52K      0.068367
     30 H6          2.0570   -2.1140    0.2360 hc        1 52K      0.068367
     31 H7          2.3140   -1.3430   -1.3910 hc        1 52K      0.068367
     32 H8          0.2590    1.3480   -1.9120 ha        1 52K      0.135000
     33 H9          9.4490    3.9250    0.9860 h4        1 52K      0.043100
     34 H10         9.6190    6.8510   -2.2440 ha        1 52K      0.169000
     35 H11         7.2240    6.2540   -2.7760 ha        1 52K      0.180000
     36 H12         5.7290    2.6760   -0.5310 hn        1 52K      0.338500
     37 H13         4.0400    1.2660    0.2180 ha        1 52K      0.137000
     38 H14         3.3290    4.1750   -2.9500 ha        1 52K      0.187000
     39 H15         1.0730    3.2240   -3.2760 ha        1 52K      0.152000
     40 H16         1.3650   -0.4600    4.4100 hn        1 52K      0.469800
     41 H17         0.6300    1.0350    4.2270 hn        1 52K      0.469800
     42 H73         2.2750    0.8720    3.9570 hn        1 52K      0.469800
@<TRIPOS>BOND
     1    1    2 1   
     2    1   24 1   
     3    1   25 1   
     4    1   26 1   
     5    2    5 1   
     6    2   21 1   
     7    2   22 1   
     8    3    4 1   
     9    3   24 1   
    10    3   27 1   
    11    3   28 1   
    12    4   22 2   
    13    4   23 1   
    14    5   29 1   
    15    5   30 1   
    16    5   31 1   
    17    6   20 ar  
    18    6   21 ar  
    19    6   32 1   
    20    7   17 1   
    21    7   18 ar  
    22    7   19 ar  
    23    8    9 1   
    24    8   16 2   
    25    8   17 1   
    26    9   13 ar  
    27    9   15 ar  
    28   10   11 ar  
    29   10   13 ar  
    30   10   33 1   
    31   11   12 1   
    32   11   14 ar  
    33   14   15 ar  
    34   14   34 1   
    35   15   35 1   
    36   17   36 1   
    37   18   21 ar  
    38   18   37 1   
    39   19   20 ar  
    40   19   38 1   
    41   20   39 1   
    42   23   40 1   
    43   23   41 1   
    44   23   42 1   
@<TRIPOS>SUBSTRUCTURE
     1 52K         1 TEMP              0 ****  ****    0 ROOT
