@<TRIPOS>MOLECULE
52K
   42    44     1     0     0
SMALL
bcc


@<TRIPOS>ATOM
      1 C1          0.1170   -0.2470   -0.0670 c3        1 52K      0.085400
      2 C2          1.6310    0.0520    0.1340 c3        1 52K      0.171500
      3 C5         -0.3240   -0.5410    2.2420 c3        1 52K      0.061100
      4 C6          1.0560    0.0720    2.4520 c2        1 52K      0.417200
      5 C8          2.4210   -1.1960   -0.3120 c3        1 52K     -0.091100
      6 C11         1.2430    1.7770   -1.6930 ca        1 52K     -0.153000
      7 C12         3.8420    2.8070   -1.3290 ca        1 52K      0.084600
      8 C16         5.6770    4.4750   -1.5380 c         1 52K      0.584600
      9 C18         7.1160    4.7700   -1.1940 ca        1 52K      0.337800
     10 C21         8.9990    4.4340    0.0980 ca        1 52K      0.401200
     11 C23         9.7260    5.4120   -0.6260 ca        1 52K     -0.077900
     12 Cl         11.3260    5.7480   -0.2170 cl        1 52K     -0.040400
     13 N19         7.7280    4.1160   -0.1730 nb        1 52K     -0.660000
     14 C22         9.0880    6.0820   -1.6730 ca        1 52K     -0.095000
     15 C20         7.7590    5.7600   -1.9640 ca        1 52K     -0.168300
     16 O17         5.0170    5.3060   -2.1880 o         1 52K     -0.576100
     17 N15         5.1540    3.2560   -1.1250 ns        1 52K     -0.459100
     18 C10         3.3710    1.7250   -0.5460 ca        1 52K     -0.166000
     19 C14         2.9780    3.3630   -2.3000 ca        1 52K     -0.130000
     20 C13         1.7020    2.8400   -2.4700 ca        1 52K     -0.095000
     21 C9          2.0780    1.2250   -0.7190 ca        1 52K     -0.083300
     22 N4          1.9310    0.3460    1.5490 n2        1 52K     -0.503900
     23 N7          1.3900    0.3860    3.8710 nz        1 52K     -0.804600
     24 O3         -0.3700   -1.1220    0.9520 os        1 52K     -0.368600
     25 H1         -0.4860    0.6990   -0.0650 h1        1 52K      0.095200
     26 H2         -0.0470   -0.8240   -1.0160 h1        1 52K      0.095200
     27 H3         -0.5280   -1.3940    2.9450 h1        1 52K      0.091700
     28 H4         -1.1070    0.2590    2.3420 h1        1 52K      0.091700
     29 H5          2.0360   -2.1050    0.2070 hc        1 52K      0.068367
     30 H6          2.2810   -1.3190   -1.4140 hc        1 52K      0.068367
     31 H7          3.5120   -1.0750   -0.1060 hc        1 52K      0.068367
     32 H8          0.2330    1.3870   -1.8860 ha        1 52K      0.135000
     33 H9          9.4690    3.8850    0.9360 h4        1 52K      0.043100
     34 H10         9.6160    6.8500   -2.2600 ha        1 52K      0.169000
     35 H11         7.2120    6.2710   -2.7720 ha        1 52K      0.180000
     36 H12         5.7250    2.6740   -0.5510 hn        1 52K      0.338500
     37 H13         4.0360    1.2650    0.2020 ha        1 52K      0.137000
     38 H14         3.3060    4.2100   -2.9280 ha        1 52K      0.187000
     39 H15         1.0420    3.2740   -3.2400 ha        1 52K      0.152000
     40 H16         2.3090    0.8420    3.9560 hn        1 52K      0.469800
     41 H17         1.3980   -0.4900    4.4050 hn        1 52K      0.469800
     42 H73         0.6680    1.0100    4.2440 hn        1 52K      0.469800
@<TRIPOS>BOND
     1    1    2 1   
     2    1   24 1   
     3    1   25 1   
     4    1   26 1   
     5    2    5 1   
     6    2   21 1   
     7    2   22 1   
     8    3    4 1   
     9    3   24 1   
    10    3   27 1   
    11    3   28 1   
    12    4   22 2   
    13    4   23 1   
    14    5   29 1   
    15    5   30 1   
    16    5   31 1   
    17    6   20 ar  
    18    6   21 ar  
    19    6   32 1   
    20    7   17 1   
    21    7   18 ar  
    22    7   19 ar  
    23    8    9 1   
    24    8   16 2   
    25    8   17 1   
    26    9   13 ar  
    27    9   15 ar  
    28   10   11 ar  
    29   10   13 ar  
    30   10   33 1   
    31   11   12 1   
    32   11   14 ar  
    33   14   15 ar  
    34   14   34 1   
    35   15   35 1   
    36   17   36 1   
    37   18   21 ar  
    38   18   37 1   
    39   19   20 ar  
    40   19   38 1   
    41   20   39 1   
    42   23   40 1   
    43   23   41 1   
    44   23   42 1   
@<TRIPOS>SUBSTRUCTURE
     1 52K         1 TEMP              0 ****  ****    0 ROOT
