@<TRIPOS>MOLECULE
52M
   41    44     1     0     0
SMALL
bcc


@<TRIPOS>ATOM
      1 S1         -0.1820   -0.2460    0.4940 sh        1 52M     -0.420400
      2 C21         1.5070    0.3030    0.2720 c         1 52M      0.733700
      3 N1          2.4080   -0.5660    0.8330 ns        1 52M     -0.445100
      4 C17         3.8150   -0.4540    0.8390 ca        1 52M      0.050600
      5 C18         4.5130    0.6250    0.2750 ca        1 52M     -0.137000
      6 C19         5.9120    0.6810    0.3190 ca        1 52M     -0.055600
      7 C20         6.5750    1.9100   -0.3180 c         1 52M      0.910200
      8 O4          6.6160    2.9510    0.3940 o         1 52M     -0.802300
      9 O5          7.0040    1.7990   -1.4920 o         1 52M     -0.802300
     10 C16         4.5510   -1.4980    1.4560 ca        1 52M     -0.208000
     11 C15         5.9330   -1.4390    1.4870 ca        1 52M     -0.098000
     12 C14         6.6330   -0.3530    0.9280 ca        1 52M     -0.105000
     13 C10         8.0960   -0.3970    1.0130 cc        1 52M      0.172000
     14 C9          8.8120   -1.3880    0.3850 cd        1 52M     -0.237100
     15 C4         10.2370   -1.5420    0.6110 cd        1 52M      0.342700
     16 O2         10.9150   -0.6940    1.4780 os        1 52M     -0.397800
     17 C5         10.9880   -2.5240    0.0420 cc        1 52M     -0.332200
     18 C8          8.2240   -2.3330   -0.5420 cd        1 52M     -0.020200
     19 C7          8.9440   -3.3100   -1.1260 cc        1 52M     -0.269200
     20 C6         10.3770   -3.4910   -0.8640 c         1 52M      0.581500
     21 O3         11.0310   -4.4180   -1.3810 o         1 52M     -0.598100
     22 C11         8.8160    0.5330    1.8550 ca        1 52M     -0.217300
     23 C3         10.1970    0.3340    2.0600 ca        1 52M      0.396000
     24 C2         10.9540    1.1690    2.8970 ca        1 52M     -0.333300
     25 C12         8.2090    1.6460    2.4740 ca        1 52M      0.005000
     26 C13         8.9340    2.4870    3.3030 ca        1 52M     -0.188000
     27 C1         10.3040    2.2390    3.5160 ca        1 52M      0.167100
     28 O1         10.9620    3.1000    4.3630 oh        1 52M     -0.499100
     29 O6          1.7620    1.3570   -0.3270 o         1 52M     -0.559100
     30 H1         -0.7710    0.7680   -0.1330 hs        1 52M      0.254800
     31 H2          2.0380   -1.3790    1.2760 hn        1 52M      0.323500
     32 H3          3.9790    1.4590   -0.2140 ha        1 52M      0.181000
     33 H5          4.0390   -2.3580    1.9100 ha        1 52M      0.117000
     34 H6          6.4970   -2.2590    1.9600 ha        1 52M      0.126000
     35 H7         12.0630   -2.6170    0.2420 ha        1 52M      0.152000
     36 H9          7.1510   -2.1990   -0.7630 ha        1 52M      0.150000
     37 H10         8.4890   -4.0130   -1.8400 ha        1 52M      0.140000
     38 H11        12.0260    0.9810    3.0370 ha        1 52M      0.146000
     39 H12         7.1490    1.8810    2.2400 ha        1 52M      0.206000
     40 H13         8.4610    3.3610    3.7710 ha        1 52M      0.157000
     41 H14        11.9010    2.8640    4.3550 ho        1 52M      0.415000
@<TRIPOS>BOND
     1    1    2 1   
     2    1   30 1   
     3    2    3 1   
     4    2   29 2   
     5    3    4 1   
     6    3   31 1   
     7    4    5 ar  
     8    4   10 ar  
     9    5    6 ar  
    10    5   32 1   
    11    6    7 1   
    12    6   12 ar  
    13    7    8 1   
    14    7    9 1   
    15   10   11 ar  
    16   10   33 1   
    17   11   12 ar  
    18   11   34 1   
    19   12   13 1   
    20   13   14 2   
    21   13   22 1   
    22   14   15 1   
    23   14   18 1   
    24   15   16 1   
    25   15   17 2   
    26   16   23 1   
    27   17   20 1   
    28   17   35 1   
    29   18   19 2   
    30   18   36 1   
    31   19   20 1   
    32   19   37 1   
    33   20   21 2   
    34   22   23 ar  
    35   22   25 ar  
    36   23   24 ar  
    37   24   27 ar  
    38   24   38 1   
    39   25   26 ar  
    40   25   39 1   
    41   26   27 ar  
    42   26   40 1   
    43   27   28 1   
    44   28   41 1   
@<TRIPOS>SUBSTRUCTURE
     1 52M         1 TEMP              0 ****  ****    0 ROOT
