@<TRIPOS>MOLECULE
52M
   41    44     1     0     0
SMALL
bcc


@<TRIPOS>ATOM
      1 S1         -0.1880   -0.1980    0.5830 sh        1 52M     -0.420400
      2 C21         1.5050    0.3400    0.3620 c         1 52M      0.733700
      3 N1          2.4010   -0.5520    0.8930 n         1 52M     -0.445100
      4 C17         3.8090   -0.4540    0.8910 ca        1 52M      0.050600
      5 C18         4.5130    0.6320    0.3500 ca        1 52M     -0.137000
      6 C19         5.9140    0.6730    0.3850 ca        1 52M     -0.055600
      7 C20         6.5830    1.9110   -0.2260 c         1 52M      0.910200
      8 O4          7.0030    1.8270   -1.4060 o         1 52M     -0.802300
      9 O5          6.6400    2.9340    0.5110 o         1 52M     -0.802300
     10 C16         4.5390   -1.5200    1.4760 ca        1 52M     -0.208000
     11 C15         5.9220   -1.4760    1.4980 ca        1 52M     -0.098000
     12 C14         6.6280   -0.3830    0.9620 ca        1 52M     -0.105000
     13 C10         8.0920   -0.4440    1.0340 cc        1 52M      0.172000
     14 C9          8.7930   -1.4250    0.3750 cd        1 52M     -0.237100
     15 C4         10.2180   -1.5980    0.5870 cd        1 52M      0.343700
     16 O2         10.9110   -0.7790    1.4700 os        1 52M     -0.397800
     17 C5         10.9550   -2.5730   -0.0130 cc        1 52M     -0.332200
     18 C8          8.1890   -2.3400   -0.5710 cd        1 52M     -0.020200
     19 C7          8.8940   -3.3090   -1.1850 cc        1 52M     -0.269200
     20 C6         10.3280   -3.5110   -0.9380 c         1 52M      0.581500
     21 O3         10.9680   -4.4300   -1.4830 o         1 52M     -0.598100
     22 C11         8.8270    0.4580    1.8940 ca        1 52M     -0.217300
     23 C3         10.2070    0.2400    2.0830 ca        1 52M      0.396000
     24 C2         10.9790    1.0460    2.9350 ca        1 52M     -0.333300
     25 C12         8.2360    1.5610    2.5450 ca        1 52M      0.005000
     26 C13         8.9750    2.3730    3.3890 ca        1 52M     -0.188000
     27 C1         10.3440    2.1070    3.5860 ca        1 52M      0.167100
     28 O1         11.0170    2.9390    4.4490 oh        1 52M     -0.499100
     29 O6          1.7660    1.4070   -0.2120 o         1 52M     -0.559100
     30 H1         -0.7720    0.8380   -0.0140 hs        1 52M      0.254800
     31 H2          2.0260   -1.3730    1.3180 hn        1 52M      0.323500
     32 H3          3.9840    1.4830   -0.1140 ha        1 52M      0.181000
     33 H5          4.0210   -2.3870    1.9120 ha        1 52M      0.117000
     34 H6          6.4810   -2.3130    1.9450 ha        1 52M      0.126000
     35 H7         12.0300   -2.6810    0.1760 ha        1 52M      0.152000
     36 H9          7.1150   -2.1900   -0.7790 ha        1 52M      0.150000
     37 H10         8.4280   -3.9890   -1.9130 ha        1 52M      0.140000
     38 H11        12.0500    0.8440    3.0620 ha        1 52M      0.146000
     39 H12         7.1770    1.8120    2.3260 ha        1 52M      0.206000
     40 H13         8.5140    3.2400    3.8840 ha        1 52M      0.157000
     41 H14        11.9540    2.6950    4.4280 ho        1 52M      0.415000
@<TRIPOS>BOND
     1    1    2 1   
     2    1   30 1   
     3    2    3 1   
     4    2   29 2   
     5    3    4 1   
     6    3   31 1   
     7    4    5 ar  
     8    4   10 ar  
     9    5    6 ar  
    10    5   32 1   
    11    6    7 1   
    12    6   12 ar  
    13    7    8 1   
    14    7    9 1   
    15   10   11 ar  
    16   10   33 1   
    17   11   12 ar  
    18   11   34 1   
    19   12   13 1   
    20   13   14 2   
    21   13   22 1   
    22   14   15 1   
    23   14   18 1   
    24   15   16 1   
    25   15   17 2   
    26   16   23 1   
    27   17   20 1   
    28   17   35 1   
    29   18   19 2   
    30   18   36 1   
    31   19   20 1   
    32   19   37 1   
    33   20   21 2   
    34   22   23 ar  
    35   22   25 ar  
    36   23   24 ar  
    37   24   27 ar  
    38   24   38 1   
    39   25   26 ar  
    40   25   39 1   
    41   26   27 ar  
    42   26   40 1   
    43   27   28 1   
    44   28   41 1   
@<TRIPOS>SUBSTRUCTURE
     1 52M         1 TEMP              0 ****  ****    0 ROOT
