@<TRIPOS>MOLECULE
52P
   37    33     1     0     0
SMALL
bcc


@<TRIPOS>ATOM
      1 F1         -4.7660   -3.2300    4.9660 f         1 52P     -0.085500
      2 C2         -4.0200   -3.2720    3.8550 c2        1 52P      0.168500
      3 C3         -2.6790   -3.6160    3.9330 c1        1 52P     -0.273500
      4 C4         -1.8990   -3.6240    2.7880 c2        1 52P     -0.032000
      5 C5         -2.4580   -3.2890    1.5650 c1        1 52P     -0.273500
      6 S6         -1.4820   -3.3900    0.0870 s         1 52P      0.434000
      7 C7         -0.8040   -1.7920   -0.2830 c2        1 52P     -0.244000
      8 C8          0.6620   -1.6180   -0.3850 c2        1 52P     -0.120000
      9 C9          1.2070   -0.3450   -0.7910 c1        1 52P     -0.094000
     10 C10         0.2880    0.7930   -1.1060 c1        1 52P      0.081000
     11 C11         0.8420    2.1010   -1.5220 c1        1 52P     -0.202000
     12 C12         2.3390    2.3270   -1.5110 c2        1 52P     -0.008000
     13 C13         3.0740    2.1510   -2.6740 c2        1 52P     -0.036000
     14 CL14        2.2750    1.6570   -4.1430 cl        1 52P      0.002000
     15 C15         4.4330    2.4210   -2.6810 c1        1 52P     -0.129000
     16 C16         5.0580    2.8660   -1.5270 c2        1 52P     -0.108000
     17 C17         4.3240    3.0410   -0.3650 c1        1 52P     -0.129000
     18 C18         2.9640    2.7720   -0.3570 c1        1 52P     -0.036000
     19 CL19        2.0270    3.0620    1.0850 cl        1 52P     -0.000000
     20 C20        -0.0710    3.2210   -1.8310 c1        1 52P      0.306000
     21 O21         0.3800    4.3000   -2.1580 o         1 52P     -0.277000
     22 N22        -1.4910    3.0380   -1.7280 n2        1 52P     -0.224000
     23 C23        -2.0400    1.7380   -1.3140 c1        1 52P      0.119000
     24 N24        -1.1340    0.6170   -1.0050 n3        1 52P     -0.152000
     25 N25        -1.6900   -0.6810   -0.5910 n2        1 52P     -0.030000
     26 C26        -3.7990   -2.9460    1.4870 c2        1 52P      0.168500
     27 F27        -4.3500   -2.6670    0.2990 f         1 52P     -0.085500
     28 C28        -4.5800   -2.9370    2.6320 c2        1 52P     -0.223000
     29 H3         -2.2850   -3.8520    4.7940 DU        1 52P      0.173000
     30 H4         -0.9550   -3.8660    2.8430 ha        1 52P      0.157000
     31 H8          1.2550   -2.3820   -0.2490 ha        1 52P      0.166000
     32 H9          2.1740   -0.2260   -0.8590 ha        1 52P      0.171000
     33 H15         4.9510    2.2970   -3.5000 DU        1 52P      0.173000
     34 H16         6.0160    3.0560   -1.5330 ha        1 52P      0.144000
     35 H17         4.7640    3.3550    0.4480 ha        1 52P      0.152000
     36 H23        -3.0060    1.6170   -1.2450 DU        1 52P      0.173000
     37 H28        -5.5240   -2.6950    2.5770 ha        1 52P      0.173000
@<TRIPOS>BOND
     1    1    2 1   
     2    2    3 1   
     3    2   28 1   
     4    3    4 1   
     5    4    5 1   
     6    4   30 1   
     7    5   26 1   
     8    6    7 1   
     9    7    8 1   
    10    7   25 1   
    11    8    9 1   
    12    8   31 1   
    13    9   32 1   
    14   10   11 1   
    15   10   24 1   
    16   11   12 1   
    17   12   13 1   
    18   12   18 1   
    19   13   14 1   
    20   13   15 1   
    21   15   16 1   
    22   16   17 1   
    23   16   34 1   
    24   17   35 1   
    25   18   19 1   
    26   20   21 1   
    27   20   22 1   
    28   22   23 1   
    29   23   24 1   
    30   24   25 1   
    31   26   27 1   
    32   26   28 1   
    33   28   37 1   
@<TRIPOS>SUBSTRUCTURE
     1 52P         1 TEMP              0 ****  ****    0 ROOT
