@<TRIPOS>MOLECULE
52P
   37    40     1     0     0
SMALL
bcc


@<TRIPOS>ATOM
      1 F1         -7.6110   -1.5000   -0.1910 f         1 52P     -0.124900
      2 C2         -6.4920   -0.7450   -0.2330 ca        1 52P      0.188900
      3 C3         -6.1830   -0.0130   -1.3980 ca        1 52P     -0.194000
      4 C4         -5.0250    0.7490   -1.4310 ca        1 52P     -0.032000
      5 C5         -4.1620    0.8350   -0.3300 ca        1 52P     -0.126100
      6 S6         -2.8760    1.9330   -0.4800 ss        1 52P     -0.120200
      7 C7         -1.4220    1.0850   -0.2860 cc        1 52P      0.411600
      8 C8         -0.2470    1.9470   -0.3960 cc        1 52P     -0.185300
      9 C9          0.9720    1.3810   -0.2620 cd        1 52P     -0.094000
     10 C10         1.0860   -0.0560   -0.0140 cd        1 52P      0.056700
     11 C11         2.2930   -0.7010    0.1320 cc        1 52P     -0.209400
     12 C12         3.5620    0.0170    0.0470 ca        1 52P     -0.019800
     13 C13         4.1670    0.5550    1.1970 ca        1 52P      0.042400
     14 CL14        3.4040    0.4310    2.7110 cl        1 52P     -0.077400
     15 C15         5.4050    1.2010    1.1250 ca        1 52P     -0.129000
     16 C16         6.0540    1.3190   -0.1020 ca        1 52P     -0.108000
     17 C17         5.4730    0.7980   -1.2560 ca        1 52P     -0.129000
     18 C18         4.2350    0.1530   -1.1810 ca        1 52P      0.042400
     19 CL19        3.5570   -0.4690   -2.6100 cl        1 52P     -0.077400
     20 C20         2.3350   -2.1620    0.3840 c         1 52P      0.703700
     21 O21         3.3870   -2.8010    0.5200 o         1 52P     -0.516100
     22 N22         1.0810   -2.8370    0.4680 nc        1 52P     -0.651100
     23 C23        -0.0280   -2.1850    0.3230 cd        1 52P      0.574700
     24 N24        -0.1320   -0.7850    0.0730 na        1 52P      0.003300
     25 N25        -1.3400   -0.2180   -0.0610 nd        1 52P     -0.462800
     26 C26        -4.4820    0.0960    0.8310 ca        1 52P      0.217900
     27 F27        -3.6850    0.1330    1.9200 f         1 52P     -0.115900
     28 C28        -5.6420   -0.6990    0.8820 ca        1 52P     -0.223000
     29 H3         -6.8560   -0.0600   -2.2660 ha        1 52P      0.161000
     30 H4         -4.7720    1.3080   -2.3490 ha        1 52P      0.157000
     31 H8         -0.3970    3.0200   -0.5800 ha        1 52P      0.166000
     32 H9          1.9120    1.9500   -0.3280 ha        1 52P      0.171000
     33 H15         5.8690    1.6090    2.0370 ha        1 52P      0.152000
     34 H16         7.0320    1.8200   -0.1590 ha        1 52P      0.144000
     35 H17         5.9910    0.8870   -2.2240 ha        1 52P      0.152000
     36 H23        -0.9950   -2.7320    0.3930 h5        1 52P      0.076800
     37 H28        -5.8780   -1.2730    1.7900 ha        1 52P      0.173000
@<TRIPOS>BOND
     1    1    2 1   
     2    2    3 ar  
     3    2   28 ar  
     4    3    4 ar  
     5    3   29 1   
     6    4    5 ar  
     7    4   30 1   
     8    5    6 1   
     9    5   26 ar  
    10    6    7 1   
    11    7    8 1   
    12    7   25 2   
    13    8    9 2   
    14    8   31 1   
    15    9   10 1   
    16    9   32 1   
    17   10   11 2   
    18   10   24 1   
    19   11   12 1   
    20   11   20 1   
    21   12   13 ar  
    22   12   18 ar  
    23   13   14 1   
    24   13   15 ar  
    25   15   16 ar  
    26   15   33 1   
    27   16   17 ar  
    28   16   34 1   
    29   17   18 ar  
    30   17   35 1   
    31   18   19 1   
    32   20   21 2   
    33   20   22 1   
    34   22   23 2   
    35   23   24 1   
    36   23   36 1   
    37   24   25 1   
    38   26   27 1   
    39   26   28 ar  
    40   28   37 1   
@<TRIPOS>SUBSTRUCTURE
     1 52P         1 TEMP              0 ****  ****    0 ROOT
