@<TRIPOS>MOLECULE
52P
   37    40     1     0     0
SMALL
bcc


@<TRIPOS>ATOM
      1 F1         -0.0660   -0.7260    0.4350 f         1 52P     -0.124900
      2 C2          1.2510   -0.4590    0.2890 ca        1 52P      0.188900
      3 C3          2.1240   -0.6130    1.3850 ca        1 52P     -0.194000
      4 C4          3.4710   -0.3250    1.2240 ca        1 52P     -0.032000
      5 C5          3.9970    0.0920   -0.0070 ca        1 52P     -0.126100
      6 S6          5.6860    0.2490   -0.0750 ss        1 52P     -0.120200
      7 C7          6.0580    1.8440   -0.5100 cc        1 52P      0.411600
      8 C8          7.4960    2.0830   -0.6010 cc        1 52P     -0.185300
      9 C9          7.9160    3.3230   -0.9380 cd        1 52P     -0.094000
     10 C10         6.9370    4.3770   -1.2010 cd        1 52P      0.056700
     11 C11         7.2900    5.6610   -1.5480 cc        1 52P     -0.209400
     12 C12         8.6880    6.0640   -1.6780 ca        1 52P     -0.019800
     13 C13         9.3540    5.9760   -2.9130 ca        1 52P      0.042400
     14 Cl14        8.5610    5.3430   -4.2770 cl        1 52P     -0.077400
     15 C15        10.6770    6.4060   -3.0510 ca        1 52P     -0.129000
     16 C16        11.3530    6.9290   -1.9510 ca        1 52P     -0.108000
     17 C17        10.7170    7.0230   -0.7160 ca        1 52P     -0.129000
     18 C18         9.3940    6.5920   -0.5810 ca        1 52P      0.042400
     19 Cl19        8.6500    6.7210    0.9420 cl        1 52P     -0.077400
     20 C20         6.2440    6.6810   -1.8020 c         1 52P      0.703700
     21 O21         6.4960    7.8540   -2.1140 o         1 52P     -0.516100
     22 N22         4.8880    6.2590   -1.6730 nc        1 52P     -0.651100
     23 C23         4.6070    5.0390   -1.3450 cd        1 52P      0.574700
     24 N24         5.5670    4.0170   -1.0810 na        1 52P      0.003300
     25 N25         5.1560    2.7850   -0.7460 nd        1 52P     -0.462800
     26 C26         3.1120    0.2430   -1.0970 ca        1 52P      0.217900
     27 F27         3.5590    0.6490   -2.3050 f         1 52P     -0.115900
     28 C28         1.7380   -0.0260   -0.9520 ca        1 52P     -0.223000
     29 H3          1.7280   -0.9510    2.3540 ha        1 52P      0.161000
     30 H4          4.1520   -0.4270    2.0860 ha        1 52P      0.157000
     31 H8          8.1830    1.2500   -0.3940 ha        1 52P      0.166000
     32 H9          8.9780    3.5960   -1.0310 ha        1 52P      0.171000
     33 H15        11.1800    6.3390   -4.0280 ha        1 52P      0.152000
     34 H16        12.3920    7.2750   -2.0600 ha        1 52P      0.144000
     35 H17        11.2510    7.4420    0.1510 ha        1 52P      0.152000
     36 H23         3.5410    4.7310   -1.2510 h5        1 52P      0.076800
     37 H28         1.0580    0.1000   -1.8080 ha        1 52P      0.173000
@<TRIPOS>BOND
     1    1    2 1   
     2    2    3 ar  
     3    2   28 ar  
     4    3    4 ar  
     5    3   29 1   
     6    4    5 ar  
     7    4   30 1   
     8    5    6 1   
     9    5   26 ar  
    10    6    7 1   
    11    7    8 1   
    12    7   25 2   
    13    8    9 2   
    14    8   31 1   
    15    9   10 1   
    16    9   32 1   
    17   10   11 2   
    18   10   24 1   
    19   11   12 1   
    20   11   20 1   
    21   12   13 ar  
    22   12   18 ar  
    23   13   14 1   
    24   13   15 ar  
    25   15   16 ar  
    26   15   33 1   
    27   16   17 ar  
    28   16   34 1   
    29   17   18 ar  
    30   17   35 1   
    31   18   19 1   
    32   20   21 2   
    33   20   22 1   
    34   22   23 2   
    35   23   24 1   
    36   23   36 1   
    37   24   25 1   
    38   26   27 1   
    39   26   28 ar  
    40   28   37 1   
@<TRIPOS>SUBSTRUCTURE
     1 52P         1 TEMP              0 ****  ****    0 ROOT
