@<TRIPOS>MOLECULE
52P
   37    40     1     0     0
SMALL
bcc


@<TRIPOS>ATOM
      1 F1         -0.0690   -0.7260    0.4240 f         1 52P     -0.124900
      2 C2          1.2480   -0.4590    0.2780 ca        1 52P      0.188900
      3 C3          2.1220   -0.6170    1.3740 ca        1 52P     -0.194000
      4 C4          3.4680   -0.3290    1.2130 ca        1 52P     -0.032000
      5 C5          3.9950    0.0900   -0.0170 ca        1 52P     -0.126100
      6 S6          5.6840    0.2470   -0.0850 ss        1 52P     -0.120200
      7 C7          6.0570    1.8430   -0.5160 cc        1 52P      0.411600
      8 C8          7.4950    2.0820   -0.6050 cc        1 52P     -0.185300
      9 C9          7.9160    3.3220   -0.9380 cd        1 52P     -0.094000
     10 C10         6.9370    4.3780   -1.1990 cd        1 52P      0.056700
     11 C11         7.2910    5.6620   -1.5420 cc        1 52P     -0.209400
     12 C12         8.6900    6.0650   -1.6700 ca        1 52P     -0.019800
     13 C13         9.3560    5.9800   -2.9060 ca        1 52P      0.042400
     14 CL14        8.5640    5.3510   -4.2720 cl        1 52P     -0.077400
     15 C15        10.6800    6.4100   -3.0410 ca        1 52P     -0.129000
     16 C16        11.3550    6.9300   -1.9400 ca        1 52P     -0.108000
     17 C17        10.7180    7.0200   -0.7040 ca        1 52P     -0.129000
     18 C18         9.3950    6.5890   -0.5720 ca        1 52P      0.042400
     19 CL19        8.6500    6.7140    0.9520 cl        1 52P     -0.077400
     20 C20         6.2460    6.6840   -1.7950 c         1 52P      0.703700
     21 O21         6.4990    7.8560   -2.1030 o         1 52P     -0.516100
     22 N22         4.8900    6.2620   -1.6680 nc        1 52P     -0.651100
     23 C23         4.6080    5.0410   -1.3420 cd        1 52P      0.574700
     24 N24         5.5670    4.0170   -1.0810 na        1 52P      0.003300
     25 N25         5.1550    2.7850   -0.7490 nd        1 52P     -0.462800
     26 C26         3.1100    0.2450   -1.1070 ca        1 52P      0.217900
     27 F27         3.5580    0.6530   -2.3140 f         1 52P     -0.115900
     28 C28         1.7360   -0.0240   -0.9630 ca        1 52P     -0.223000
     29 H3          1.7260   -0.9560    2.3420 ha        1 52P      0.161000
     30 H4          4.1500   -0.4340    2.0750 ha        1 52P      0.157000
     31 H8          8.1810    1.2470   -0.3990 ha        1 52P      0.166000
     32 H9          8.9780    3.5950   -1.0300 ha        1 52P      0.171000
     33 H15        11.1840    6.3450   -4.0180 ha        1 52P      0.152000
     34 H16        12.3940    7.2760   -2.0470 ha        1 52P      0.144000
     35 H17        11.2520    7.4370    0.1640 ha        1 52P      0.152000
     36 H23         3.5420    4.7330   -1.2500 h5        1 52P      0.076800
     37 H28         1.0560    0.1050   -1.8180 ha        1 52P      0.173000
@<TRIPOS>BOND
     1    1    2 1   
     2    2    3 ar  
     3    2   28 ar  
     4    3    4 ar  
     5    3   29 1   
     6    4    5 ar  
     7    4   30 1   
     8    5    6 1   
     9    5   26 ar  
    10    6    7 1   
    11    7    8 1   
    12    7   25 2   
    13    8    9 2   
    14    8   31 1   
    15    9   10 1   
    16    9   32 1   
    17   10   11 2   
    18   10   24 1   
    19   11   12 1   
    20   11   20 1   
    21   12   13 ar  
    22   12   18 ar  
    23   13   14 1   
    24   13   15 ar  
    25   15   16 ar  
    26   15   33 1   
    27   16   17 ar  
    28   16   34 1   
    29   17   18 ar  
    30   17   35 1   
    31   18   19 1   
    32   20   21 2   
    33   20   22 1   
    34   22   23 2   
    35   23   24 1   
    36   23   36 1   
    37   24   25 1   
    38   26   27 1   
    39   26   28 ar  
    40   28   37 1   
@<TRIPOS>SUBSTRUCTURE
     1 52P         1 TEMP              0 ****  ****    0 ROOT
