@<TRIPOS>MOLECULE
52Q
   30    32     1     0     0
SMALL
bcc


@<TRIPOS>ATOM
      1 C7         -0.2850   -0.0170    0.1860 cx        1 52Q     -0.100700
      2 C6          1.2120   -0.0120    0.0410 cx        1 52Q     -0.220700
      3 C1         -3.0180    4.8690   -1.3950 cc        1 52Q      0.404400
      4 C5         -0.6790    2.0720    1.3890 c3        1 52Q     -0.076400
      5 C4          0.1330    1.2330    3.6660 c         1 52Q      0.936600
      6 C3          2.0150   -1.2450   -0.3800 c         1 52Q      0.940600
      7 C2         -1.3980    3.4230   -1.6190 cd        1 52Q      0.577300
      8 C8          0.5990   -0.0040    1.4220 cx        1 52Q     -0.124700
      9 C9         -1.0020    1.3080    0.1040 c3        1 52Q      0.014400
     10 C10         0.4800    1.3450    2.1100 c3        1 52Q      0.000200
     11 N11        -2.2340    5.1940   -2.5120 na        1 52Q     -0.172400
     12 N12        -1.2390    4.3120   -2.6590 nc        1 52Q     -0.525800
     13 N13        -2.5140    3.7630   -0.8130 nd        1 52Q     -0.691000
     14 N14         1.8000    2.0760    1.9780 nz        1 52Q     -0.842600
     15 O15         3.2700   -1.1130   -0.2980 o         1 52Q     -0.823300
     16 O16         0.9090    1.8580    4.4440 o         1 52Q     -0.781300
     17 O17         1.4080   -2.2740   -0.7700 o         1 52Q     -0.823300
     18 O18        -0.8820    0.5800    3.9700 o         1 52Q     -0.781300
     19 S19        -0.3840    2.0980   -1.3720 ss        1 52Q     -0.189400
     20 H1         -0.8500   -0.9130   -0.1190 hc        1 52Q      0.128700
     21 H2          1.6840    0.9040   -0.3700 hc        1 52Q      0.052700
     22 H4         -0.4640    3.1490    1.1850 hc        1 52Q      0.072700
     23 H5         -1.5710    2.0250    2.0730 hc        1 52Q      0.072700
     24 H6          0.6860   -0.8760    2.0890 hc        1 52Q      0.132700
     25 H7         -2.1060    1.1560    0.0200 h1        1 52Q      0.096700
     26 H8         -2.3520    5.9340   -3.1590 hn        1 52Q      0.317700
     27 H9          2.0250    2.4600    2.9170 hn        1 52Q      0.447133
     28 H10         2.5230    1.4060    1.6970 hn        1 52Q      0.447133
     29 H143        1.7400    2.8200    1.2910 hn        1 52Q      0.447133
     30 H3         -3.8900    5.4420   -1.0720 h5        1 52Q      0.064100
@<TRIPOS>BOND
     1    1    2 1   
     2    1    8 1   
     3    1    9 1   
     4    1   20 1   
     5    2    6 1   
     6    2    8 1   
     7    2   21 1   
     8    3   11 1   
     9    3   13 2   
    10    3   30 1   
    11    4    9 1   
    12    4   10 1   
    13    4   22 1   
    14    4   23 1   
    15    5   10 1   
    16    5   16 1   
    17    5   18 1   
    18    6   15 1   
    19    6   17 1   
    20    7   12 2   
    21    7   13 1   
    22    7   19 1   
    23    8   10 1   
    24    8   24 1   
    25    9   19 1   
    26    9   25 1   
    27   10   14 1   
    28   11   12 1   
    29   11   26 1   
    30   14   27 1   
    31   14   28 1   
    32   14   29 1   
@<TRIPOS>SUBSTRUCTURE
     1 52Q         1 TEMP              0 ****  ****    0 ROOT
