@<TRIPOS>MOLECULE
52Q
   30    32     1     0     0
SMALL
bcc


@<TRIPOS>ATOM
      1 C7         -0.2430   -0.0070    0.1370 cx        1 52Q     -0.100700
      2 C6          1.2550    0.0300    0.0090 cx        1 52Q     -0.220700
      3 C1         -3.0520    4.8680   -1.3410 cc        1 52Q      0.404400
      4 C5         -0.6890    2.0410    1.3920 c3        1 52Q     -0.076400
      5 C4          0.1140    1.1550    3.6540 c         1 52Q      0.936600
      6 C3          2.0860   -1.1750   -0.4370 c         1 52Q      0.940600
      7 C2         -1.4030    3.4590   -1.5870 cd        1 52Q      0.577300
      8 C8          0.6280   -0.0110    1.3830 cx        1 52Q     -0.124700
      9 C9         -0.9840    1.3060    0.0830 c3        1 52Q      0.014400
     10 C10         0.4760    1.3160    2.1060 c3        1 52Q      0.000200
     11 N11        -2.2640    5.2370   -2.4410 na        1 52Q     -0.172400
     12 N12        -1.2510    4.3780   -2.6010 nc        1 52Q     -0.525800
     13 N13        -2.5330    3.7570   -0.7830 nd        1 52Q     -0.691000
     14 N14         1.7830    2.0750    2.0090 n4        1 52Q     -0.842600
     15 O15         3.3380   -1.0220   -0.3370 o         1 52Q     -0.823300
     16 O16         0.8700    1.7730    4.4580 o         1 52Q     -0.781300
     17 O17         1.5030   -2.2040   -0.8610 o         1 52Q     -0.823300
     18 O18        -0.8920    0.4750    3.9290 o         1 52Q     -0.781300
     19 S19        -0.3660    2.1470   -1.3650 ss        1 52Q     -0.189400
     20 H1         -0.7870   -0.9050   -0.1980 hc        1 52Q      0.128700
     21 H2          1.7130    0.9660   -0.3710 hc        1 52Q      0.052700
     22 H4         -1.5870    1.9590    2.0640 hc        1 52Q      0.072700
     23 H5         -0.4920    3.1270    1.2190 hc        1 52Q      0.072700
     24 H6          0.7240   -0.8990    2.0270 hc        1 52Q      0.132700
     25 H7         -2.0840    1.1350   -0.0170 h1        1 52Q      0.096700
     26 H8         -2.3890    5.9930   -3.0690 hn        1 52Q      0.317700
     27 H9          1.7160    2.8360    1.3420 hn        1 52Q      0.447133
     28 H10         1.9910    2.4370    2.9610 hn        1 52Q      0.447133
     29 H143        2.5220    1.4270    1.7170 hn        1 52Q      0.447133
     30 H3         -3.9390    5.4160   -1.0110 h5        1 52Q      0.064100
@<TRIPOS>BOND
     1    1    2 1   
     2    1    8 1   
     3    1    9 1   
     4    1   20 1   
     5    2    6 1   
     6    2    8 1   
     7    2   21 1   
     8    3   11 1   
     9    3   13 2   
    10    3   30 1   
    11    4    9 1   
    12    4   10 1   
    13    4   22 1   
    14    4   23 1   
    15    5   10 1   
    16    5   16 1   
    17    5   18 1   
    18    6   15 1   
    19    6   17 1   
    20    7   12 2   
    21    7   13 1   
    22    7   19 1   
    23    8   10 1   
    24    8   24 1   
    25    9   19 1   
    26    9   25 1   
    27   10   14 1   
    28   11   12 1   
    29   11   26 1   
    30   14   27 1   
    31   14   28 1   
    32   14   29 1   
@<TRIPOS>SUBSTRUCTURE
     1 52Q         1 TEMP              0 ****  ****    0 ROOT
