@<TRIPOS>MOLECULE
52V
   55    58     1     0     0
SMALL
bcc


@<TRIPOS>ATOM
      1 C1          0.1600   -0.6920   -0.2090 ca        1 52V      0.745200
      2 C2         -1.1500   -2.3090   -5.1600 c3        1 52V      0.117700
      3 C3          0.2700   -0.6950    2.1290 ca        1 52V      0.916900
      4 C6          1.4710   -0.0910   -0.2570 ca        1 52V     -0.341600
      5 C12         3.1610    0.8690   -3.7910 c3        1 52V      0.025400
      6 C13         2.7010    2.2390   -4.2660 c3        1 52V     -0.091100
      7 C14         2.8990   -0.1940   -4.8760 c3        1 52V     -0.009500
      8 C15         1.4480   -0.4910   -5.0150 c2        1 52V     -0.159200
      9 C16         0.8590   -1.3130   -5.9010 c2        1 52V      0.049900
     10 C17         2.6040   -3.0330   -6.4220 c2        1 52V     -0.169200
     11 C18         4.9270   -2.2420   -6.1610 ce        1 52V     -0.110300
     12 C20         4.3400   -2.3000   -8.6210 ce        1 52V     -0.076300
     13 C21         3.1110   -1.5040   -8.8100 ce        1 52V     -0.131000
     14 C22         1.9520   -1.4780   -8.1310 c2        1 52V     -0.133200
     15 C23         1.4560   -2.2390   -6.9190 c3        1 52V      0.053900
     16 C24         3.5470   -2.5170   -5.6290 ce        1 52V     -0.091200
     17 C27         3.7230   -1.4360   -4.5880 cy        1 52V     -0.026500
     18 C25         4.9780   -2.2490   -7.4680 c1        1 52V     -0.023800
     19 C19         5.2430   -1.3220   -5.0140 cy        1 52V     -0.022200
     20 O17        -0.5440   -1.2910   -5.9490 os        1 52V     -0.363900
     21 C11         2.5580    0.5230   -2.5340 c1        1 52V     -0.153100
     22 C10         2.0660    0.2420   -1.4760 cg        1 52V     -0.088000
     23 C5          2.1200    0.1380    0.9830 ca        1 52V      0.538600
     24 C8          3.4890    0.7430    0.9690 c3        1 52V     -0.157400
     25 N4          1.5550   -0.1600    2.1680 nb        1 52V     -0.790000
     26 N7         -0.3730   -0.9020    3.3500 nv        1 52V     -0.932500
     27 N2         -0.4460   -0.9880    0.9830 nb        1 52V     -0.831000
     28 N9         -0.4890   -1.0270   -1.3810 nv        1 52V     -0.956500
     29 H2         -0.8120   -3.3210   -5.4910 h1        1 52V      0.037367
     30 H2A        -2.2450   -2.1790   -5.3430 h1        1 52V      0.037367
     31 H2B        -0.9060   -2.1570   -4.0800 h1        1 52V      0.037367
     32 H12         4.2830    0.9110   -3.6360 hc        1 52V      0.066700
     33 H13         1.6110    2.2290   -4.5040 hc        1 52V      0.042367
     34 H13A        3.2640    2.5300   -5.1850 hc        1 52V      0.042367
     35 H13B        2.8860    3.0040   -3.4740 hc        1 52V      0.042367
     36 H15         0.7910    0.0730   -4.3260 ha        1 52V      0.134000
     37 H17         2.8530   -3.9080   -7.0500 ha        1 52V      0.139000
     38 H26         5.1390   -2.3710  -10.6050 hc        1 52V      0.048367
     39 H26A        5.6430   -3.7490   -9.5360 hc        1 52V      0.048367
     40 H26B        3.9560   -3.6870  -10.2070 hc        1 52V      0.048367
     41 H21         3.1790   -0.8530   -9.7060 ha        1 52V      0.122000
     42 H22         1.1600   -0.8030   -8.5130 ha        1 52V      0.129000
     43 H23         0.6300   -2.9230   -7.2830 hc        1 52V      0.076700
     44 H27         3.5830   -1.7950   -3.5430 hc        1 52V      0.091700
     45 H27A        5.9340   -1.7490   -4.2570 hc        1 52V      0.064700
     46 H27B        3.2560    0.2420   -5.8570 hc        1 52V      0.071700
     47 H19         5.5700   -0.3040   -5.3110 hc        1 52V      0.064700
     48 H8          3.4030    1.8230    0.6930 hc        1 52V      0.061033
     49 H8A         3.9980    0.6660    1.9600 hc        1 52V      0.061033
     50 H8B         4.1140    0.2260    0.1990 hc        1 52V      0.061033
     51 HN7        -1.1720   -1.4900    3.3500 hn        1 52V      0.430800
     52 HN7A        0.1980   -0.9190    4.1630 hn        1 52V      0.430800
     53 HN9        -0.1320   -0.6460   -2.2240 hn        1 52V      0.435300
     54 HN9A       -1.4440   -1.2880   -1.3530 hn        1 52V      0.435300
     55 C26         4.7960   -3.0710   -9.8010 c3        1 52V     -0.051900
@<TRIPOS>BOND
     1    1    4 ar  
     2    1   27 ar  
     3    1   28 1   
     4    2   20 1   
     5    2   29 1   
     6    2   30 1   
     7    2   31 1   
     8    3   25 ar  
     9    3   26 1   
    10    3   27 ar  
    11    4   22 1   
    12    4   23 ar  
    13    5    6 1   
    14    5    7 1   
    15    5   21 1   
    16    5   32 1   
    17    6   33 1   
    18    6   34 1   
    19    6   35 1   
    20    7    8 1   
    21    7   17 1   
    22    7   46 1   
    23    8    9 2   
    24    8   36 1   
    25    9   15 1   
    26    9   20 1   
    27   10   15 1   
    28   10   16 2   
    29   10   37 1   
    30   11   16 1   
    31   11   18 2   
    32   11   19 1   
    33   12   13 1   
    34   12   18 2   
    35   12   55 1   
    36   13   14 2   
    37   13   41 1   
    38   14   15 1   
    39   14   42 1   
    40   15   43 1   
    41   16   17 1   
    42   17   19 1   
    43   17   44 1   
    44   19   45 1   
    45   19   47 1   
    46   21   22 3   
    47   23   24 1   
    48   23   25 ar  
    49   24   48 1   
    50   24   49 1   
    51   24   50 1   
    52   26   51 1   
    53   26   52 1   
    54   28   53 1   
    55   28   54 1   
    56   38   55 1   
    57   39   55 1   
    58   40   55 1   
@<TRIPOS>SUBSTRUCTURE
     1 52V         1 TEMP              0 ****  ****    0 ROOT
