@<TRIPOS>MOLECULE
52V
   55    57     1     0     0
SMALL
bcc


@<TRIPOS>ATOM
      1 C1          5.0830   -1.0850   -0.6730 ca        1 52V      0.742200
      2 C2         -2.2540    3.2870    2.5770 c3        1 52V      0.113700
      3 C3          6.4740    0.7970   -0.6480 ca        1 52V      0.913900
      4 C6          3.9970   -0.2740   -0.1810 ca        1 52V     -0.339600
      5 C12         0.3790   -1.8890    0.5840 c3        1 52V      0.069700
      6 C13         0.4080   -2.7390    1.8490 c3        1 52V     -0.086100
      7 C14        -0.6920   -0.8380    0.6940 ca        1 52V     -0.046300
      8 C15        -0.5020    0.2770    1.5100 ca        1 52V     -0.145000
      9 C16        -1.5260    1.2360    1.6100 ca        1 52V      0.122100
     10 C17        -2.7230    1.0900    0.9030 ca        1 52V     -0.194000
     11 C18        -2.9010   -0.0350    0.0870 cp        1 52V      0.002000
     12 C20        -5.1550   -1.0640   -0.1790 ca        1 52V     -0.054800
     13 C21        -6.3440   -1.2150   -0.9000 ca        1 52V     -0.140000
     14 C22        -6.5410   -0.5190   -2.0900 ca        1 52V     -0.119000
     15 C23        -5.5510    0.3340   -2.5700 ca        1 52V     -0.140000
     16 C24        -4.3540    0.5000   -1.8650 ca        1 52V     -0.054800
     17 C27        -3.3070    1.4030   -2.3990 c3        1 52V     -0.057300
     18 C25        -4.1540   -0.2020   -0.6620 cp        1 52V     -0.052000
     19 C19        -1.8890   -0.9940   -0.0150 ca        1 52V     -0.149000
     20 O17        -1.2370    2.3010    2.4440 os        1 52V     -0.327900
     21 C11         1.6690   -1.3080    0.3200 c1        1 52V     -0.152100
     22 C10         2.7430   -0.8290    0.0850 cg        1 52V     -0.083000
     23 C5          4.2600    1.1070    0.0130 ca        1 52V      0.539600
     24 C8          3.1460    1.9930    0.4750 c3        1 52V     -0.158400
     25 N4          5.4670    1.6580   -0.2190 nb        1 52V     -0.791000
     26 N7          7.7570    1.3320   -0.7810 nh        1 52V     -0.931500
     27 N2          6.3250   -0.5530   -0.9010 nb        1 52V     -0.830000
     28 N9          4.8700   -2.4160   -0.9730 nh        1 52V     -0.953500
     29 H2         -1.8070    4.0270    3.2890 h1        1 52V      0.044367
     30 H2A        -2.4690    3.7680    1.5920 h1        1 52V      0.044367
     31 H2B        -3.1840    2.8400    3.0060 h1        1 52V      0.044367
     32 H12         0.1250   -2.5680   -0.2880 hc        1 52V      0.067700
     33 H13        -0.5850   -3.2250    2.0000 hc        1 52V      0.042700
     34 H13A        1.1890   -3.5310    1.7610 hc        1 52V      0.042700
     35 H13B        0.6370   -2.1060    2.7400 hc        1 52V      0.042700
     36 H15         0.4350    0.4170    2.0680 ha        1 52V      0.154000
     37 H17        -3.5240    1.8380    0.9760 ha        1 52V      0.144000
     38 H26        -3.9430   -2.2550    1.1350 hc        1 52V      0.047533
     39 H26A       -5.0810   -1.1120    1.9600 hc        1 52V      0.047533
     40 H26B       -5.7200   -2.6260    1.1950 hc        1 52V      0.047533
     41 H21        -7.1270   -1.8890   -0.5220 ha        1 52V      0.132000
     42 H22        -7.4790   -0.6440   -2.6510 ha        1 52V      0.131000
     43 H23        -5.7080    0.8820   -3.5110 ha        1 52V      0.132000
     44 H27        -2.8910    2.0470   -1.5840 hc        1 52V      0.047533
     45 H27A       -2.4670    0.8010   -2.8290 hc        1 52V      0.047533
     46 H27B       -3.7140    2.0640   -3.2030 hc        1 52V      0.047533
     47 H19        -2.0360   -1.8730   -0.6610 ha        1 52V      0.139000
     48 H8          2.5060    1.4430    1.2110 hc        1 52V      0.062700
     49 H8A         3.5230    2.9300    0.9530 hc        1 52V      0.062700
     50 H8B         2.5160    2.2710   -0.4070 hc        1 52V      0.062700
     51 HN7         7.8280    2.3210   -0.8360 hn        1 52V      0.429800
     52 HN7A        8.4140    0.8060   -1.3090 hn        1 52V      0.429800
     53 HN9         4.0430   -2.8310   -0.6180 hn        1 52V      0.434300
     54 HN9A        5.6460   -3.0040   -1.1560 hn        1 52V      0.434300
     55 C26        -4.9680   -1.8070    1.0910 c3        1 52V     -0.057300
@<TRIPOS>BOND
     1    1    4 ar  
     2    1   27 ar  
     3    1   28 1   
     4    2   20 1   
     5    2   29 1   
     6    2   30 1   
     7    2   31 1   
     8    3   25 ar  
     9    3   26 1   
    10    3   27 ar  
    11    4   22 1   
    12    4   23 ar  
    13    5    6 1   
    14    5    7 1   
    15    5   21 1   
    16    5   32 1   
    17    6   33 1   
    18    6   34 1   
    19    6   35 1   
    20    7    8 ar  
    21    7   19 ar  
    22    8    9 ar  
    23    8   36 1   
    24    9   10 ar  
    25    9   20 1   
    26   10   11 ar  
    27   10   37 1   
    28   11   18 1   
    29   11   19 ar  
    30   12   13 ar  
    31   12   18 ar  
    32   12   55 1   
    33   13   14 ar  
    34   13   41 1   
    35   14   15 ar  
    36   14   42 1   
    37   15   16 ar  
    38   15   43 1   
    39   16   17 1   
    40   16   18 ar  
    41   17   44 1   
    42   17   45 1   
    43   17   46 1   
    44   19   47 1   
    45   21   22 3   
    46   23   24 1   
    47   23   25 ar  
    48   24   48 1   
    49   24   49 1   
    50   24   50 1   
    51   26   51 1   
    52   26   52 1   
    53   28   53 1   
    54   28   54 1   
    55   38   55 1   
    56   39   55 1   
    57   40   55 1   
@<TRIPOS>SUBSTRUCTURE
     1 52V         1 TEMP              0 ****  ****    0 ROOT
