@<TRIPOS>MOLECULE
52V
   55    49     1     0     0
SMALL
bcc


@<TRIPOS>ATOM
      1 C1         -4.5500    1.7150   -1.3950 c1        1 52V      0.224000
      2 C2          2.5420    3.9700    0.9630 c3        1 52V     -0.076000
      3 C3         -6.4430    0.4100   -1.9380 c1        1 52V      0.196000
      4 C6         -4.4390    1.0660   -0.2140 c1        1 52V     -0.207000
      5 C12        -0.9870   -1.0260    1.0530 c3        1 52V      0.050000
      6 C13        -1.0720   -1.2790    2.5800 c3        1 52V     -0.204000
      7 C14         0.2440   -0.1990    0.7420 c2        1 52V     -0.037000
      8 C15         0.3610    1.0820    1.2610 c1        1 52V     -0.153000
      9 C16         1.5510    1.8030    1.0900 c1        1 52V      0.076000
     10 C17         2.6180    1.2390    0.4000 c1        1 52V     -0.194000
     11 C18         2.5060   -0.0550   -0.1270 c1        1 52V      0.005000
     12 C26         3.2260    0.0400   -2.4410 c3        1 52V     -0.183000
     13 C20         4.0280   -0.7780   -1.4490 c2        1 52V     -0.047000
     14 C21         5.2260   -1.3720   -1.8520 c2        1 52V     -0.139000
     15 C22         5.9240   -2.1940   -0.9790 c1        1 52V     -0.119000
     16 C23         5.4320   -2.4270    0.2990 c1        1 52V     -0.139000
     17 C24         4.2260   -1.8300    0.7090 c1        1 52V     -0.048000
     18 C27         3.6600   -2.1290    2.0790 c2        1 52V     -0.182000
     19 C25         3.5300   -1.0100   -0.1640 c1        1 52V     -0.054000
     20 C19         1.3230   -0.7760    0.0420 c2        1 52V     -0.149000
     21 O17         1.7050    3.0460    1.7060 os        1 52V     -0.215000
     22 C11        -2.2140   -0.2840    0.6010 c1        1 52V     -0.180000
     23 C10        -3.1830    0.3040    0.2460 c1        1 52V     -0.086000
     24 C5         -5.3530    0.0620    0.1190 c2        1 52V      0.115000
     25 C8         -5.2600   -0.6390    1.4780 c3        1 52V     -0.181000
     26 N4         -6.3310   -0.2550   -0.7290 n2        1 52V     -0.265000
     27 N7         -7.4760    0.0340   -2.8770 n2        1 52V     -0.340000
     28 N2         -5.5530    1.3890   -2.2620 n2        1 52V     -0.305000
     29 N9         -3.5930    2.3040   -2.2750 n2        1 52V     -0.340000
     30 H2          2.8810    4.6570    1.5640 h1        1 52V      0.084333
     31 H2A         3.2950    3.4820    0.5660 h1        1 52V      0.084333
     32 H2B         2.0120    4.3900    0.2510 h1        1 52V      0.084333
     33 H12        -0.9340   -1.8630    0.5960 hc        1 52V      0.109000
     34 H13        -0.3200   -0.9120    3.0010 hc        1 52V      0.083000
     35 H13A       -1.9020   -0.8500    2.9450 hc        1 52V      0.083000
     36 H13B       -1.1010   -2.2320    2.7480 hc        1 52V      0.083000
     37 H15        -0.4030    1.4910    1.7570 ha        1 52V      0.151000
     38 H17         3.4400    1.7410    0.2840 ha        1 52V      0.144000
     39 H26         2.6310   -0.5310   -2.9180 hc        1 52V      0.087000
     40 H26A        2.7200    0.7120   -1.9710 hc        1 52V      0.087000
     41 H26B        3.8150    0.4600   -3.0490 hc        1 52V      0.087000
     42 H21         5.5870   -1.2030   -2.7880 ha        1 52V      0.132000
     43 H22         6.7990   -2.6270   -1.2780 ha        1 52V      0.131000
     44 H23         5.9380   -3.0220    0.9270 ha        1 52V      0.132000
     45 H27         4.1860   -1.6230    2.7790 ha        1 52V      0.086667
     46 H27A        2.6890   -1.8410    2.1130 ha        1 52V      0.086667
     47 H27B        3.7250   -3.1330    2.2630 ha        1 52V      0.086667
     48 H19         1.2420   -1.6890   -0.3310 ha        1 52V      0.141000
     49 H8         -5.6230   -0.0260    2.1990 hc        1 52V      0.100000
     50 H8A        -5.8080   -1.5020    1.4560 hc        1 52V      0.100000
     51 H8B        -4.3040   -0.8570    1.6760 hc        1 52V      0.100000
     52 HN7        -8.0930   -0.6210   -2.6510 hn        1 52V      0.228750
     53 HN7A       -7.5290    0.4470   -3.6800 hn        1 52V      0.228750
     54 HN9        -2.8330    2.6030   -1.9580 hn        1 52V      0.228750
     55 HN9A       -3.7540    2.3330   -3.1680 hn        1 52V      0.228750
@<TRIPOS>BOND
     1    1    4 1   
     2    1   28 1   
     3    2   21 1   
     4    2   30 1   
     5    2   31 1   
     6    2   32 1   
     7    3   26 1   
     8    3   28 1   
     9    4   24 1   
    10    5    6 1   
    11    5    7 1   
    12    5   22 1   
    13    5   33 1   
    14    6   34 1   
    15    6   35 1   
    16    6   36 1   
    17    7    8 1   
    18    7   20 1   
    19    8   37 1   
    20    9   10 1   
    21    9   21 1   
    22   10   38 1   
    23   11   20 1   
    24   12   13 1   
    25   12   39 1   
    26   12   40 1   
    27   12   41 1   
    28   13   14 1   
    29   13   19 1   
    30   14   15 1   
    31   14   42 1   
    32   15   43 1   
    33   16   17 1   
    34   16   44 1   
    35   17   19 1   
    36   18   45 1   
    37   18   46 1   
    38   18   47 1   
    39   20   48 1   
    40   22   23 1   
    41   24   25 1   
    42   24   26 1   
    43   25   49 1   
    44   25   50 1   
    45   25   51 1   
    46   27   52 1   
    47   27   53 1   
    48   29   54 1   
    49   29   55 1   
@<TRIPOS>SUBSTRUCTURE
     1 52V         1 TEMP              0 ****  ****    0 ROOT
