@<TRIPOS>MOLECULE
52X
   38    39     1     0     0
SMALL
bcc


@<TRIPOS>ATOM
      1 C1          0.1620   -0.0790    0.1430 ca        1 52X     -0.046200
      2 I1          4.2410    0.0480    1.0680 i         1 52X     -0.024800
      3 N1          1.5270   -0.1190   -0.1410 na        1 52X     -0.143400
      4 O1          0.7140   -3.7070    4.5910 o         1 52X     -0.422100
      5 C2         -0.9740   -0.2580   -0.6690 ca        1 52X     -0.089000
      6 N2          0.0560   -1.5090    4.2030 n4        1 52X     -0.679800
      7 O2         -5.0690   -0.7880    3.6240 os        1 52X     -0.411900
      8 C3         -2.2180   -0.2750   -0.0680 ca        1 52X     -0.128000
      9 N3         -3.6350   -0.1910    1.9410 n         1 52X     -0.439100
     10 O3         -2.8530   -1.0190    4.0170 o         1 52X     -0.694000
     11 C4         -2.3670   -0.0670    1.3370 ca        1 52X      0.054600
     12 C5         -1.2540    0.2360    2.1270 ca        1 52X     -0.162000
     13 C6          0.0150    0.1490    1.5580 ca        1 52X     -0.104800
     14 C7          1.3450    0.1980    2.1180 cc        1 52X     -0.173400
     15 C8          2.2390    0.0490    1.0450 cd        1 52X      0.066700
     16 C11         1.6310    0.3640    3.5460 c3        1 52X     -0.025200
     17 C12         1.4200   -0.9210    4.3510 c3        1 52X      0.109800
     18 C14        -0.0720   -2.8330    4.9230 c         1 52X      0.559100
     19 C15        -1.1570   -2.9080    5.9420 c3        1 52X     -0.192100
     20 C18        -3.7640   -0.6780    3.2230 c         1 52X      0.775100
     21 C33        -5.2740   -1.2350    4.9700 c3        1 52X      0.137700
     22 H2         -0.8760   -0.3960   -1.7570 ha        1 52X      0.161000
     23 HN2        -0.1340   -1.6550    3.1970 hn        1 52X      0.476800
     24 H3         -3.1120   -0.4480   -0.6900 ha        1 52X      0.157000
     25 HN3        -4.4550   -0.0260    1.3990 hn        1 52X      0.361500
     26 H5         -1.3760    0.5660    3.1700 ha        1 52X      0.146000
     27 H11         2.7030    0.6700    3.7100 hc        1 52X      0.090700
     28 H11A        0.9820    1.1830    3.9640 hc        1 52X      0.090700
     29 H12         1.5850   -0.7070    5.4450 hx        1 52X      0.105200
     30 H12A        2.1590   -1.7070    4.0170 hx        1 52X      0.105200
     31 H15        -0.9140   -2.2500    6.8150 hc        1 52X      0.115700
     32 H15A       -1.2430   -3.9670    6.2970 hc        1 52X      0.115700
     33 H15B       -2.1410   -2.5830    5.5050 hc        1 52X      0.115700
     34 H33        -4.8120   -2.2410    5.1120 h1        1 52X      0.062033
     35 H33A       -6.3900   -1.2760    5.0490 h1        1 52X      0.062033
     36 H33B       -4.8360   -0.4980    5.6840 h1        1 52X      0.062033
     37 HN1         1.9220   -0.2120   -1.0440 hn        1 52X      0.327700
     38 H22        -0.6670   -0.8590    4.5470 hn        1 52X      0.476800
@<TRIPOS>BOND
     1    1    3 1   
     2    1    5 ar  
     3    1   13 ar  
     4    2   15 1   
     5    3   15 1   
     6    3   37 1   
     7    4   18 2   
     8    5    8 ar  
     9    5   22 1   
    10    6   17 1   
    11    6   18 1   
    12    6   23 1   
    13    6   38 1   
    14    7   20 1   
    15    7   21 1   
    16    8   11 ar  
    17    8   24 1   
    18    9   11 1   
    19    9   20 1   
    20    9   25 1   
    21   10   20 2   
    22   11   12 ar  
    23   12   13 ar  
    24   12   26 1   
    25   13   14 1   
    26   14   15 2   
    27   14   16 1   
    28   16   17 1   
    29   16   27 1   
    30   16   28 1   
    31   17   29 1   
    32   17   30 1   
    33   18   19 1   
    34   19   31 1   
    35   19   32 1   
    36   19   33 1   
    37   21   34 1   
    38   21   35 1   
    39   21   36 1   
@<TRIPOS>SUBSTRUCTURE
     1 52X         1 TEMP              0 ****  ****    0 ROOT
