@<TRIPOS>MOLECULE
52X
   37    32     1     0     0
SMALL
bcc


@<TRIPOS>ATOM
      1 C1          0.2580    0.4070   -1.8700 c1        1 52X     -0.006000
      2 I1          4.0710    1.0680   -0.9950 i         1 52X      0.203000
      3 N1          1.6420    0.5280   -1.8780 n1        1 52X     -0.192000
      4 O1          4.7420   -1.5100    3.0640 o         1 52X     -0.363000
      5 C2         -0.6890    0.3670   -2.9040 c1        1 52X     -0.120000
      6 N2          3.2120    0.2060    3.2190 n         1 52X     -0.382000
      7 O2         -5.7360   -0.4120   -2.6560 os        1 52X     -0.288000
      8 C3         -2.0390    0.2640   -2.6040 c1        1 52X     -0.123000
      9 N3         -3.8330    0.5030   -1.3190 n         1 52X     -0.293000
     10 O3         -4.8980   -1.5270   -0.8070 o         1 52X     -0.386000
     11 C4         -2.4570    0.2000   -1.2680 c2        1 52X      0.050000
     12 C5         -1.5320    0.2390   -0.2560 c2        1 52X     -0.133000
     13 C6         -0.1560    0.3430   -0.5580 c1        1 52X     -0.066000
     14 C7          0.9700    0.4250    0.2530 c1        1 52X     -0.096000
     15 C8          2.0760    0.5390   -0.5660 c2        1 52X     -0.220000
     16 C11         1.3210    0.6660    1.7350 c2        1 52X     -0.125000
     17 C12         2.2930   -0.3820    2.1990 c3        1 52X     -0.028000
     18 C14         4.5180   -0.3850    3.4410 c2        1 52X      0.297000
     19 C15         5.5910    0.3930    4.1810 c3        1 52X     -0.244000
     20 C18        -4.8040   -0.5570   -1.5880 c2        1 52X      0.396000
     21 C33        -6.1590   -1.6490   -3.2270 c3        1 52X     -0.050000
     22 H2         -0.4010    0.4110   -3.8300 ha        1 52X      0.142000
     23 HN2         2.9560    1.0070    3.6960 hn        1 52X      0.214000
     24 H3         -2.7120    0.3610   -3.3240 ha        1 52X      0.175000
     25 HN3        -4.1070    1.3660   -1.2770 hn        1 52X      0.246000
     26 H5         -1.8370    0.1920    0.7080 ha        1 52X      0.135000
     27 H11         0.5150    0.6170    2.2700 ha        1 52X      0.095000
     28 H11A        1.7220    1.5440    1.8340 ha        1 52X      0.095000
     29 H12         2.8140   -0.7020    1.4390 h1        1 52X      0.108000
     30 H12A        1.8020   -1.1290    2.5950 h1        1 52X      0.108000
     31 H15         5.2430    0.6770    5.0660 hc        1 52X      0.104667
     32 H15A        5.8500    1.2090    3.6420 hc        1 52X      0.104667
     33 H15B        6.3870   -0.1840    4.3090 hc        1 52X      0.104667
     34 H33        -5.3940   -2.1910   -3.4140 h1        1 52X      0.093333
     35 H33A       -6.6600   -1.4700   -4.0800 h1        1 52X      0.093333
     36 H33B       -6.7420   -2.1150   -2.5990 h1        1 52X      0.093333
     37 HN1         2.1730    0.6830   -2.6310 DU        1 52X      0.260000
@<TRIPOS>BOND
     1    1    5 1   
     2    2   15 1   
     3    3   15 1   
     4    4   18 1   
     5    5   22 1   
     6    6   17 1   
     7    6   18 1   
     8    6   23 1   
     9    7   20 1   
    10    7   21 1   
    11    8   11 1   
    12    8   24 1   
    13    9   11 1   
    14    9   20 1   
    15    9   25 1   
    16   10   20 1   
    17   11   12 1   
    18   12   13 1   
    19   12   26 1   
    20   14   15 1   
    21   16   17 1   
    22   16   27 1   
    23   16   28 1   
    24   17   29 1   
    25   17   30 1   
    26   18   19 1   
    27   19   31 1   
    28   19   32 1   
    29   19   33 1   
    30   21   34 1   
    31   21   35 1   
    32   21   36 1   
@<TRIPOS>SUBSTRUCTURE
     1 52X         1 TEMP              0 ****  ****    0 ROOT
