@<TRIPOS>MOLECULE
52X
   38    39     1     0     0
SMALL
bcc


@<TRIPOS>ATOM
      1 C1          0.1400   -0.0590    0.1400 ca        1 52X     -0.046200
      2 I1          4.2210    0.1210    1.0480 i         1 52X     -0.024800
      3 N1          1.5050   -0.0800   -0.1500 na        1 52X     -0.143400
      4 O1          0.7570   -3.6880    4.5800 o         1 52X     -0.422100
      5 C2         -0.9970   -0.2510   -0.6680 ca        1 52X     -0.089000
      6 N2          0.0690   -1.4980    4.1970 ny        1 52X     -0.679800
      7 O2         -5.0670   -0.8440    3.6400 os        1 52X     -0.411900
      8 C3         -2.2380   -0.2860   -0.0620 ca        1 52X     -0.128000
      9 N3         -3.6480   -0.2250    1.9520 ns        1 52X     -0.439100
     10 O3         -2.8470   -1.0460    4.0240 o         1 52X     -0.694000
     11 C4         -2.3840   -0.0830    1.3440 ca        1 52X      0.054600
     12 C5         -1.2720    0.2340    2.1300 ca        1 52X     -0.162000
     13 C6         -0.0040    0.1640    1.5550 ca        1 52X     -0.104800
     14 C7          1.3280    0.2300    2.1100 cc        1 52X     -0.173400
     15 C8          2.2190    0.0950    1.0340 cd        1 52X      0.066700
     16 C11         1.6170    0.3970    3.5380 c3        1 52X     -0.025200
     17 C12         1.4260   -0.8920    4.3410 c3        1 52X      0.109800
     18 C14        -0.0390   -2.8240    4.9160 c         1 52X      0.559100
     19 C15        -1.1180   -2.9140    5.9390 c3        1 52X     -0.192100
     20 C18        -3.7640   -0.7160    3.2340 c         1 52X      0.775100
     21 C33        -5.2610   -1.2960    4.9860 c3        1 52X      0.137700
     22 H2         -0.9010   -0.3860   -1.7560 ha        1 52X      0.161000
     23 HN2        -0.1220   -1.6440    3.1920 hn        1 52X      0.476800
     24 H3         -3.1320   -0.4690   -0.6810 ha        1 52X      0.157000
     25 HN3        -4.4720   -0.0700    1.4150 hn        1 52X      0.361500
     26 H5         -1.3930    0.5600    3.1740 ha        1 52X      0.146000
     27 H11         2.6850    0.7170    3.6980 hc        1 52X      0.090700
     28 H11A        0.9590    1.2070    3.9600 hc        1 52X      0.090700
     29 H12         2.1750   -1.6680    4.0030 hx        1 52X      0.105200
     30 H12A        1.5930   -0.6770    5.4340 hx        1 52X      0.105200
     31 H15        -0.8790   -2.2550    6.8120 hc        1 52X      0.115700
     32 H15A       -1.1890   -3.9760    6.2930 hc        1 52X      0.115700
     33 H15B       -2.1070   -2.6020    5.5080 hc        1 52X      0.115700
     34 H33        -4.8300   -0.5540    5.7000 h1        1 52X      0.062033
     35 H33A       -4.7850   -2.2960    5.1250 h1        1 52X      0.062033
     36 H33B       -6.3760   -1.3520    5.0700 h1        1 52X      0.062033
     37 HN1         1.8970   -0.1660   -1.0550 hn        1 52X      0.327700
     38 H22        -0.6600   -0.8580    4.5450 hn        1 52X      0.476800
@<TRIPOS>BOND
     1    1    3 1   
     2    1    5 ar  
     3    1   13 ar  
     4    2   15 1   
     5    3   15 1   
     6    3   37 1   
     7    4   18 2   
     8    5    8 ar  
     9    5   22 1   
    10    6   17 1   
    11    6   18 1   
    12    6   23 1   
    13    6   38 1   
    14    7   20 1   
    15    7   21 1   
    16    8   11 ar  
    17    8   24 1   
    18    9   11 1   
    19    9   20 1   
    20    9   25 1   
    21   10   20 2   
    22   11   12 ar  
    23   12   13 ar  
    24   12   26 1   
    25   13   14 1   
    26   14   15 2   
    27   14   16 1   
    28   16   17 1   
    29   16   27 1   
    30   16   28 1   
    31   17   29 1   
    32   17   30 1   
    33   18   19 1   
    34   19   31 1   
    35   19   32 1   
    36   19   33 1   
    37   21   34 1   
    38   21   35 1   
    39   21   36 1   
@<TRIPOS>SUBSTRUCTURE
     1 52X         1 TEMP              0 ****  ****    0 ROOT
