@<TRIPOS>MOLECULE
52X
   39    40     1     0     0
SMALL
bcc


@<TRIPOS>ATOM
      1 C1         -0.2340   -0.3250    0.2290 ca        1 52X      0.001800
      2 I1          3.6160   -0.7890    1.7740 i         1 52X     -0.002800
      3 N1          1.1250   -0.6010    0.1710 na        1 52X     -0.129400
      4 O1          0.2010   -2.9950    6.7120 o         1 52X     -0.390100
      5 C2         -1.2040   -0.2810   -0.7910 ca        1 52X     -0.091000
      6 N2          1.3380   -1.0970    5.9940 n4        1 52X     -0.691800
      7 O2         -5.9470   -0.8410    1.3930 os        1 52X     -0.387900
      8 C3         -2.5000    0.0470   -0.4460 ca        1 52X     -0.088000
      9 N3         -4.2190    0.7310    1.2060 n4        1 52X     -0.497200
     10 O3         -4.5850   -0.5230    3.2130 o         1 52X     -0.433000
     11 C4         -2.8370    0.3370    0.9040 ca        1 52X     -0.079400
     12 C5         -1.8950    0.2790    1.9380 ca        1 52X     -0.034000
     13 C6         -0.5820   -0.0540    1.6110 ca        1 52X     -0.089800
     14 C7          0.6430   -0.1850    2.3710 cc        1 52X     -0.130400
     15 C8          1.6590   -0.5060    1.4550 cd        1 52X      0.059700
     16 C11         0.8020    0.0510    3.8140 c3        1 52X     -0.027200
     17 C12         0.9590   -1.2780    4.5610 c3        1 52X      0.098800
     18 C14         1.2720   -2.4190    6.7670 c         1 52X      0.562100
     19 C15         2.5190   -2.7980    7.4830 c3        1 52X     -0.191100
     20 C18        -4.9210   -0.2830    2.0620 c         1 52X      0.619100
     21 C33        -6.7280   -1.8220    2.1250 c3        1 52X      0.131700
     22 H2         -0.9400   -0.4980   -1.8390 ha        1 52X      0.185000
     23 HN2         0.6880   -0.4310    6.4280 hn        1 52X      0.458300
     24 H3         -3.2680    0.0840   -1.2400 ha        1 52X      0.169000
     25 HN3        -4.2080    1.6240    1.7190 hn        1 52X      0.483300
     26 H5         -2.1740    0.4830    2.9850 ha        1 52X      0.162000
     27 H11        -0.0980    0.5990    4.2050 hc        1 52X      0.078700
     28 H11A        1.7000    0.7080    3.9880 hc        1 52X      0.078700
     29 H12         1.7600   -1.9050    4.0720 hx        1 52X      0.117700
     30 H12A       -0.0130   -1.8510    4.5320 hx        1 52X      0.117700
     31 H15         2.7930   -2.0280    8.2500 hc        1 52X      0.124033
     32 H15A        2.3420   -3.7770    8.0090 hc        1 52X      0.124033
     33 H15B        3.3720   -2.9270    6.7670 hc        1 52X      0.124033
     34 H33        -7.1770   -1.3400    3.0260 h1        1 52X      0.094700
     35 H33A       -7.5020   -2.1050    1.3650 h1        1 52X      0.094700
     36 H33B       -6.0730   -2.6810    2.4030 h1        1 52X      0.094700
     37 HN1         1.6380   -0.8010   -0.6560 hn        1 52X      0.344700
     38 H22         2.2840   -0.7080    6.0550 hn        1 52X      0.458300
     39 H32        -4.7440    0.8500    0.3250 hn        1 52X      0.483300
@<TRIPOS>BOND
     1    1    3 1   
     2    1    5 ar  
     3    1   13 ar  
     4    2   15 1   
     5    3   15 1   
     6    3   37 1   
     7    4   18 2   
     8    5    8 ar  
     9    5   22 1   
    10    6   17 1   
    11    6   18 1   
    12    6   23 1   
    13    6   38 1   
    14    7   20 1   
    15    7   21 1   
    16    8   11 ar  
    17    8   24 1   
    18    9   11 1   
    19    9   20 1   
    20    9   25 1   
    21    9   39 1   
    22   10   20 2   
    23   11   12 ar  
    24   12   13 ar  
    25   12   26 1   
    26   13   14 1   
    27   14   15 2   
    28   14   16 1   
    29   16   17 1   
    30   16   27 1   
    31   16   28 1   
    32   17   29 1   
    33   17   30 1   
    34   18   19 1   
    35   19   31 1   
    36   19   32 1   
    37   19   33 1   
    38   21   34 1   
    39   21   35 1   
    40   21   36 1   
@<TRIPOS>SUBSTRUCTURE
     1 52X         1 TEMP              0 ****  ****    0 ROOT
