@<TRIPOS>MOLECULE
52X
   37    38     1     0     0
SMALL
bcc


@<TRIPOS>ATOM
      1 C1          0.4120    2.3840    0.3170 ca        1 52X     -0.054200
      2 I1         -3.5290    1.0640   -0.0970 i         1 52X     -0.068800
      3 N1         -0.9750    2.5110    0.3460 na        1 52X     -0.170400
      4 O1         -2.2300   -4.0110    0.9650 o         1 52X     -0.608100
      5 C2          1.4340    3.3070    0.5970 ca        1 52X     -0.118000
      6 N2         -0.2340   -3.3800    0.0240 n         1 52X     -0.571900
      7 O2          6.3330   -0.0160   -0.2670 os        1 52X     -0.449900
      8 C3          2.7440    2.8890    0.4730 ca        1 52X     -0.145000
      9 N3          4.4440    1.2390   -0.0400 n         1 52X     -0.445100
     10 O3          4.3680   -1.0760   -0.5880 o         1 52X     -0.582000
     11 C4          3.0760    1.5580    0.0700 ca        1 52X      0.041600
     12 C5          2.0620    0.6340   -0.2100 ca        1 52X     -0.110000
     13 C6          0.7330    1.0370   -0.0870 ca        1 52X     -0.078800
     14 C7         -0.5300    0.3560   -0.2930 cc        1 52X     -0.079400
     15 C8         -1.5400    1.2840   -0.0180 cd        1 52X      0.021700
     16 C11        -0.6760   -1.0400   -0.7280 c3        1 52X     -0.046200
     17 C12        -0.3250   -2.0030    0.4180 c3        1 52X      0.091000
     18 C14        -1.2310   -4.3030    0.2780 c         1 52X      0.654100
     19 C15        -1.0380   -5.6950   -0.2760 c3        1 52X     -0.176100
     20 C18         4.9480   -0.0130   -0.3110 c         1 52X      0.747100
     21 C33         6.9470   -1.2710   -0.5690 c3        1 52X      0.139700
     22 H2          1.2000    4.3340    0.9060 ha        1 52X      0.138000
     23 HN2         0.4870   -3.6200   -0.6130 hn        1 52X      0.306500
     24 H3          3.5490    3.6090    0.6930 ha        1 52X      0.133000
     25 HN3         5.1000    1.9560    0.1770 hn        1 52X      0.337500
     26 H5          2.2880   -0.3990   -0.5230 ha        1 52X      0.176000
     27 H11        -1.7250   -1.2380   -1.0770 hc        1 52X      0.059200
     28 H11A        0.0100   -1.2180   -1.6010 hc        1 52X      0.059200
     29 H12        -1.1050   -1.9080    1.2270 h1        1 52X      0.069700
     30 H12A        0.6740   -1.6960    0.8450 h1        1 52X      0.069700
     31 H15        -0.9770   -5.6680   -1.3900 hc        1 52X      0.064367
     32 H15A       -0.1030   -6.1510    0.1300 hc        1 52X      0.064367
     33 H15B       -1.9100   -6.3250    0.0260 hc        1 52X      0.064367
     34 H33         6.6200   -2.0430    0.1690 h1        1 52X      0.053700
     35 H33A        6.6760   -1.5890   -1.6040 h1        1 52X      0.053700
     36 H33B        8.0390   -1.0480   -0.4780 h1        1 52X      0.053700
     37 HN1        -1.4720    3.3190    0.6130 hn        1 52X      0.307700
@<TRIPOS>BOND
     1    1    3 1   
     2    1    5 ar  
     3    1   13 ar  
     4    2   15 1   
     5    3   15 1   
     6    3   37 1   
     7    4   18 2   
     8    5    8 ar  
     9    5   22 1   
    10    6   17 1   
    11    6   18 1   
    12    6   23 1   
    13    7   20 1   
    14    7   21 1   
    15    8   11 ar  
    16    8   24 1   
    17    9   11 1   
    18    9   20 1   
    19    9   25 1   
    20   10   20 2   
    21   11   12 ar  
    22   12   13 ar  
    23   12   26 1   
    24   13   14 1   
    25   14   15 2   
    26   14   16 1   
    27   16   17 1   
    28   16   27 1   
    29   16   28 1   
    30   17   29 1   
    31   17   30 1   
    32   18   19 1   
    33   19   31 1   
    34   19   32 1   
    35   19   33 1   
    36   21   34 1   
    37   21   35 1   
    38   21   36 1   
@<TRIPOS>SUBSTRUCTURE
     1 52X         1 TEMP              0 ****  ****    0 ROOT
