@<TRIPOS>MOLECULE
530
   40    43     1     0     0
SMALL
bcc


@<TRIPOS>ATOM
      1 F25        -0.0520   -0.4680    0.1830 f         1 530     -0.131900
      2 C21         1.2880   -0.3000    0.0920 ca        1 530      0.156900
      3 C20         2.0900   -0.4690    1.2380 ca        1 530     -0.176000
      4 C19         3.4650   -0.2910    1.1470 ca        1 530     -0.072000
      5 C22         1.8570    0.0430   -1.1450 ca        1 530     -0.205000
      6 C23         3.2490    0.2160   -1.2360 ca        1 530      0.170900
      7 F24         3.8090    0.5450   -2.4190 f         1 530     -0.117900
      8 C12         4.0450    0.0390   -0.0820 ca        1 530      0.045100
      9 O11         5.4380    0.0590   -0.1650 os        1 530     -0.324400
     10 C3          6.0420    1.3120   -0.2780 ca        1 530      0.870300
     11 N2          5.2460    2.4470   -0.3760 nb        1 530     -0.756000
     12 N4          7.4040    1.2070   -0.2770 nb        1 530     -0.697000
     13 C6          8.0100    2.4290   -0.4010 ca        1 530      0.480800
     14 N7          9.3650    2.7560   -0.4810 na        1 530     -0.103800
     15 N8          9.5610    4.0860   -0.5740 nc        1 530     -0.575100
     16 C9          8.3360    4.7030   -0.6120 cd        1 530      0.583800
     17 C5          7.2820    3.6890   -0.5140 ca        1 530     -0.499500
     18 C1          5.8840    3.6160   -0.4920 ca        1 530      0.539200
     19 N10         8.0800    6.0740   -0.6220 nh        1 530     -0.752200
     20 C13         9.1520    6.9880   -0.9880 c3        1 530      0.192500
     21 C18         8.7610    8.4400   -0.6590 c3        1 530     -0.130400
     22 C17         9.9120    9.3670   -1.0050 c3        1 530      0.128400
     23 O16        10.2940    9.2580   -2.3710 os        1 530     -0.414600
     24 C15        10.6770    7.9350   -2.7310 c3        1 530      0.128400
     25 C14         9.5700    6.9310   -2.4660 c3        1 530     -0.130400
     26 H20         1.6210   -0.7370    2.1960 ha        1 530      0.159000
     27 H19         4.1090   -0.4190    2.0310 ha        1 530      0.161000
     28 H22         1.2250    0.1760   -2.0340 ha        1 530      0.169000
     29 HN7        10.1340    2.1560   -0.2890 hn        1 530      0.337700
     30 H1          5.2470    4.5180   -0.5670 h4        1 530      0.034100
     31 HN10        7.2140    6.2830   -1.0800 hn        1 530      0.399800
     32 H13        10.0520    6.7190   -0.3560 h1        1 530      0.082700
     33 H18         7.8540    8.7350   -1.2470 hc        1 530      0.058950
     34 H18A        8.5200    8.5400    0.4300 hc        1 530      0.058950
     35 H17         9.6070   10.4420   -0.8930 h1        1 530      0.051450
     36 H17A       10.7990    9.1540   -0.3500 h1        1 530      0.051450
     37 H15        11.6070    7.6500   -2.1710 h1        1 530      0.051450
     38 H15A       10.9010    8.0070   -3.8290 h1        1 530      0.051450
     39 H14         8.6900    7.1670   -3.1190 hc        1 530      0.058950
     40 H14A        9.9350    5.9050   -2.7280 hc        1 530      0.058950
@<TRIPOS>BOND
     1    1    2 1   
     2    2    3 ar  
     3    2    5 ar  
     4    3    4 ar  
     5    3   26 1   
     6    4    8 ar  
     7    4   27 1   
     8    5    6 ar  
     9    5   28 1   
    10    6    7 1   
    11    6    8 ar  
    12    8    9 1   
    13    9   10 1   
    14   10   11 ar  
    15   10   12 ar  
    16   11   18 ar  
    17   12   13 ar  
    18   13   14 1   
    19   13   17 ar  
    20   14   15 1   
    21   14   29 1   
    22   15   16 2   
    23   16   17 1   
    24   16   19 1   
    25   17   18 ar  
    26   18   30 1   
    27   19   20 1   
    28   19   31 1   
    29   20   21 1   
    30   20   25 1   
    31   20   32 1   
    32   21   22 1   
    33   21   33 1   
    34   21   34 1   
    35   22   23 1   
    36   22   35 1   
    37   22   36 1   
    38   23   24 1   
    39   24   25 1   
    40   24   37 1   
    41   24   38 1   
    42   25   39 1   
    43   25   40 1   
@<TRIPOS>SUBSTRUCTURE
     1 530         1 TEMP              0 ****  ****    0 ROOT
