@<TRIPOS>MOLECULE
530
   40    43     1     0     0
SMALL
bcc


@<TRIPOS>ATOM
      1 F25        -7.1100   -2.1830   -0.1230 f         1 530     -0.131900
      2 C21        -6.0720   -1.3140   -0.1220 ca        1 530      0.156900
      3 C20        -5.8000   -0.5540   -1.2770 ca        1 530     -0.176000
      4 C19        -4.7310    0.3350   -1.2780 ca        1 530     -0.072000
      5 C22        -5.2830   -1.1840    1.0320 ca        1 530     -0.205000
      6 C23        -4.2080   -0.2800    1.0300 ca        1 530      0.170900
      7 F24        -3.4410   -0.1450    2.1330 f         1 530     -0.117900
      8 C12        -3.9450    0.4810   -0.1310 ca        1 530      0.045100
      9 O11        -2.9810    1.4900   -0.1220 os        1 530     -0.324400
     10 C3         -1.6480    1.0850   -0.1980 ca        1 530      0.870300
     11 N2         -1.3460   -0.2720   -0.2020 nb        1 530     -0.756000
     12 N4         -0.8070    2.1600   -0.2540 nb        1 530     -0.697000
     13 C6          0.5070    1.7760   -0.3150 ca        1 530      0.480800
     14 N7          1.6690    2.5500   -0.3450 na        1 530     -0.103800
     15 N8          2.7800    1.7940   -0.4300 nc        1 530     -0.575100
     16 C9          2.4090    0.4730   -0.4070 cd        1 530      0.583800
     17 C5          0.9480    0.3850   -0.3230 ca        1 530     -0.499500
     18 C1         -0.0510   -0.5960   -0.2660 ca        1 530      0.539200
     19 N10         3.2350   -0.6400   -0.5560 nh        1 530     -0.752200
     20 C13         4.6690   -0.4840   -0.3630 c3        1 530      0.192500
     21 C18         5.4200   -1.7350   -0.8510 c3        1 530     -0.130400
     22 C17         6.9150   -1.5290   -0.6820 c3        1 530      0.128400
     23 O16         7.2660   -1.2390    0.6660 os        1 530     -0.414600
     24 C15         6.6070   -0.0820    1.1690 c3        1 530      0.128400
     25 C14         5.0960   -0.2080    1.0890 c3        1 530     -0.130400
     26 H20        -6.4310   -0.6740   -2.1690 ha        1 530      0.159000
     27 H19        -4.5030    0.9370   -2.1710 ha        1 530      0.161000
     28 H22        -5.5010   -1.7820    1.9290 ha        1 530      0.169000
     29 HN7         1.7260    3.5310   -0.4990 hn        1 530      0.337700
     30 H1          0.1860   -1.6760   -0.2720 h4        1 530      0.034100
     31 HN10        2.8610   -1.4410   -0.0850 hn        1 530      0.399800
     32 H13         5.0000    0.3910   -1.0000 h1        1 530      0.082700
     33 H18         5.0990   -2.6310   -0.2590 hc        1 530      0.058950
     34 H18A        5.1930   -1.9290   -1.9300 hc        1 530      0.058950
     35 H17         7.4770   -2.4730   -0.9120 h1        1 530      0.051450
     36 H17A        7.2750   -0.7000   -1.3490 h1        1 530      0.051450
     37 H15         6.9490   -0.0170    2.2360 h1        1 530      0.051450
     38 H15A        6.9550    0.8230    0.6020 h1        1 530      0.051450
     39 H14         4.6290    0.7400    1.4580 hc        1 530      0.058950
     40 H14A        4.7570   -1.0460    1.7500 hc        1 530      0.058950
@<TRIPOS>BOND
     1    1    2 1   
     2    2    3 ar  
     3    2    5 ar  
     4    3    4 ar  
     5    3   26 1   
     6    4    8 ar  
     7    4   27 1   
     8    5    6 ar  
     9    5   28 1   
    10    6    7 1   
    11    6    8 ar  
    12    8    9 1   
    13    9   10 1   
    14   10   11 ar  
    15   10   12 ar  
    16   11   18 ar  
    17   12   13 ar  
    18   13   14 1   
    19   13   17 ar  
    20   14   15 1   
    21   14   29 1   
    22   15   16 2   
    23   16   17 1   
    24   16   19 1   
    25   17   18 ar  
    26   18   30 1   
    27   19   20 1   
    28   19   31 1   
    29   20   21 1   
    30   20   25 1   
    31   20   32 1   
    32   21   22 1   
    33   21   33 1   
    34   21   34 1   
    35   22   23 1   
    36   22   35 1   
    37   22   36 1   
    38   23   24 1   
    39   24   25 1   
    40   24   37 1   
    41   24   38 1   
    42   25   39 1   
    43   25   40 1   
@<TRIPOS>SUBSTRUCTURE
     1 530         1 TEMP              0 ****  ****    0 ROOT
