@<TRIPOS>MOLECULE
530
   41    44     1     0     0
SMALL
bcc


@<TRIPOS>ATOM
      1 F25         0.1870   -0.3460   -0.9690 f         1 530     -0.113900
      2 C21         1.5070   -0.1610   -0.7510 ca        1 530      0.180900
      3 C20         2.0540   -0.4650    0.5130 ca        1 530     -0.171000
      4 C19         3.4100   -0.2700    0.7420 ca        1 530     -0.059000
      5 C22         2.3140    0.3350   -1.7900 ca        1 530     -0.200000
      6 C23         3.6850    0.5260   -1.5590 ca        1 530      0.172900
      7 F24         4.4780    1.0060   -2.5410 f         1 530     -0.121900
      8 C12         4.2200    0.2150   -0.2900 ca        1 530      0.007100
      9 O11         5.6040    0.2380   -0.0700 os        1 530     -0.290400
     10 C3          6.2130    1.4720    0.0180 ca        1 530      0.899300
     11 N2          5.4560    2.6430   -0.1090 nb        1 530     -0.697000
     12 N4          7.5640    1.3570    0.2240 nb        1 530     -0.664000
     13 C6          8.1790    2.5700    0.2910 ca        1 530      0.489800
     14 N7          9.5460    2.8730    0.4840 na        1 530     -0.061800
     15 N8          9.7730    4.1740    0.4870 nc        1 530     -0.441100
     16 C9          8.5720    4.8170    0.2960 cd        1 530      0.364800
     17 C5          7.4990    3.8530    0.1620 ca        1 530     -0.477500
     18 C1          6.1010    3.8000   -0.0360 ca        1 530      0.527200
     19 N10         8.4170    6.2550    0.2580 n4        1 530     -0.666000
     20 C13         9.1860    6.9210   -0.8690 c3        1 530      0.129500
     21 C18         9.1990    8.4400   -0.6710 c3        1 530     -0.141900
     22 C17         9.9430    9.0810   -1.8400 c3        1 530      0.125400
     23 O16         9.3510    8.7250   -3.0790 os        1 530     -0.384600
     24 C15         9.3700    7.3250   -3.3150 c3        1 530      0.125400
     25 C14         8.5920    6.5770   -2.2360 c3        1 530     -0.141900
     26 H20         1.4010   -0.8560    1.3080 ha        1 530      0.172000
     27 H19         3.8560   -0.5110    1.7200 ha        1 530      0.167000
     28 H22         1.8800    0.5660   -2.7740 ha        1 530      0.180000
     29 HN7        10.2970    2.2220    0.6150 hn        1 530      0.376700
     30 H1          5.4840    4.7120   -0.1400 h4        1 530      0.041100
     31 HN10        7.4150    6.4550    0.1460 hn        1 530      0.461300
     32 H13        10.2460    6.5280   -0.8100 hx        1 530      0.122700
     33 H18         9.7150    8.7170    0.2840 hc        1 530      0.076950
     34 H18A        8.1520    8.8420   -0.6440 hc        1 530      0.076950
     35 H17         9.8490   10.2000   -1.7980 h1        1 530      0.079700
     36 H17A       11.0250    8.7840   -1.8260 h1        1 530      0.079700
     37 H15         8.8710    7.2050   -4.3140 h1        1 530      0.079700
     38 H15A       10.4280    6.9540   -3.3660 h1        1 530      0.079700
     39 H14         8.6560    5.4760   -2.4310 hc        1 530      0.076950
     40 H14A        7.5160    6.8880   -2.2840 hc        1 530      0.076950
     41 H102        8.7390    6.6540    1.1520 hn        1 530      0.461300
@<TRIPOS>BOND
     1    1    2 1   
     2    2    3 ar  
     3    2    5 ar  
     4    3    4 ar  
     5    3   26 1   
     6    4    8 ar  
     7    4   27 1   
     8    5    6 ar  
     9    5   28 1   
    10    6    7 1   
    11    6    8 ar  
    12    8    9 1   
    13    9   10 1   
    14   10   11 ar  
    15   10   12 ar  
    16   11   18 ar  
    17   12   13 ar  
    18   13   14 1   
    19   13   17 ar  
    20   14   15 1   
    21   14   29 1   
    22   15   16 2   
    23   16   17 1   
    24   16   19 1   
    25   17   18 ar  
    26   18   30 1   
    27   19   20 1   
    28   19   31 1   
    29   19   41 1   
    30   20   21 1   
    31   20   25 1   
    32   20   32 1   
    33   21   22 1   
    34   21   33 1   
    35   21   34 1   
    36   22   23 1   
    37   22   35 1   
    38   22   36 1   
    39   23   24 1   
    40   24   25 1   
    41   24   37 1   
    42   24   38 1   
    43   25   39 1   
    44   25   40 1   
@<TRIPOS>SUBSTRUCTURE
     1 530         1 TEMP              0 ****  ****    0 ROOT
