@<TRIPOS>MOLECULE
530
   40    43     1     0     0
SMALL
bcc


@<TRIPOS>ATOM
      1 F25        -0.0540   -0.4640    0.1860 f         1 530     -0.131900
      2 C21         1.2860   -0.2960    0.0950 ca        1 530      0.156900
      3 C20         2.0890   -0.4660    1.2400 ca        1 530     -0.176000
      4 C19         3.4640   -0.2890    1.1480 ca        1 530     -0.072000
      5 C22         1.8540    0.0460   -1.1420 ca        1 530     -0.205000
      6 C23         3.2460    0.2180   -1.2340 ca        1 530      0.170900
      7 F24         3.8050    0.5480   -2.4170 f         1 530     -0.117900
      8 C12         4.0430    0.0410   -0.0810 ca        1 530      0.045100
      9 O11         5.4360    0.0600   -0.1650 os        1 530     -0.324400
     10 C3          6.0400    1.3120   -0.2780 ca        1 530      0.870300
     11 N2          5.2450    2.4480   -0.3740 nb        1 530     -0.756000
     12 N4          7.4020    1.2060   -0.2790 nb        1 530     -0.697000
     13 C6          8.0090    2.4280   -0.4030 ca        1 530      0.480800
     14 N7          9.3640    2.7550   -0.4840 na        1 530     -0.103800
     15 N8          9.5610    4.0840   -0.5770 nc        1 530     -0.575100
     16 C9          8.3370    4.7020   -0.6130 cd        1 530      0.583800
     17 C5          7.2820    3.6890   -0.5150 ca        1 530     -0.499500
     18 C1          5.8840    3.6170   -0.4910 ca        1 530      0.539200
     19 N10         8.0820    6.0730   -0.6220 nu        1 530     -0.752200
     20 C13         9.1540    6.9870   -0.9880 c3        1 530      0.192500
     21 C18         8.7640    8.4380   -0.6580 c3        1 530     -0.130400
     22 C17         9.9160    9.3650   -1.0060 c3        1 530      0.128400
     23 O16        10.2960    9.2560   -2.3720 os        1 530     -0.414600
     24 C15        10.6780    7.9340   -2.7330 c3        1 530      0.128400
     25 C14         9.5700    6.9300   -2.4670 c3        1 530     -0.130400
     26 H20         1.6200   -0.7340    2.1980 ha        1 530      0.159000
     27 H19         4.1070   -0.4180    2.0320 ha        1 530      0.161000
     28 H22         1.2210    0.1800   -2.0310 ha        1 530      0.169000
     29 HN7        10.1330    2.1540   -0.2940 hn        1 530      0.337700
     30 H1          5.2480    4.5190   -0.5650 h4        1 530      0.034100
     31 HN10        7.2150    6.2830   -1.0790 hn        1 530      0.399800
     32 H13        10.0540    6.7160   -0.3580 h1        1 530      0.082700
     33 H18         7.8570    8.7350   -1.2450 hc        1 530      0.058950
     34 H18A        8.5240    8.5390    0.4310 hc        1 530      0.058950
     35 H17        10.8030    9.1510   -0.3510 h1        1 530      0.051450
     36 H17A        9.6120   10.4400   -0.8930 h1        1 530      0.051450
     37 H15        11.6090    7.6470   -2.1740 h1        1 530      0.051450
     38 H15A       10.9010    8.0050   -3.8300 h1        1 530      0.051450
     39 H14         9.9340    5.9040   -2.7300 hc        1 530      0.058950
     40 H14A        8.6900    7.1670   -3.1190 hc        1 530      0.058950
@<TRIPOS>BOND
     1    1    2 1   
     2    2    3 ar  
     3    2    5 ar  
     4    3    4 ar  
     5    3   26 1   
     6    4    8 ar  
     7    4   27 1   
     8    5    6 ar  
     9    5   28 1   
    10    6    7 1   
    11    6    8 ar  
    12    8    9 1   
    13    9   10 1   
    14   10   11 ar  
    15   10   12 ar  
    16   11   18 ar  
    17   12   13 ar  
    18   13   14 1   
    19   13   17 ar  
    20   14   15 1   
    21   14   29 1   
    22   15   16 2   
    23   16   17 1   
    24   16   19 1   
    25   17   18 ar  
    26   18   30 1   
    27   19   20 1   
    28   19   31 1   
    29   20   21 1   
    30   20   25 1   
    31   20   32 1   
    32   21   22 1   
    33   21   33 1   
    34   21   34 1   
    35   22   23 1   
    36   22   35 1   
    37   22   36 1   
    38   23   24 1   
    39   24   25 1   
    40   24   37 1   
    41   24   38 1   
    42   25   39 1   
    43   25   40 1   
@<TRIPOS>SUBSTRUCTURE
     1 530         1 TEMP              0 ****  ****    0 ROOT
