@<TRIPOS>MOLECULE
530
   40    36     1     0     0
SMALL
bcc


@<TRIPOS>ATOM
      1 F25        -7.2000   -3.9110    1.2090 f         1 530     -0.097000
      2 C21        -5.8290   -3.9450    0.9770 c2        1 530      0.122000
      3 C20        -4.9610   -4.0750    2.0260 c2        1 530     -0.176000
      4 C19        -3.5750   -4.1260    1.7890 c1        1 530     -0.072000
      5 C22        -5.3380   -3.8640   -0.3340 c1        1 530     -0.204000
      6 C23        -3.9850   -3.9140   -0.5660 c1        1 530      0.136000
      7 F24        -3.5450   -3.8970   -1.7630 f         1 530     -0.083000
      8 C12        -3.0970   -4.0450    0.4990 c1        1 530      0.001000
      9 O11        -1.6950   -4.0470    0.2570 os        1 530     -0.109000
     10 C3         -1.2360   -2.7230    0.1700 c2        1 530      0.174000
     11 N2         -1.7900   -1.5020   -0.1350 n2        1 530     -0.230000
     12 N4          0.1150   -2.8530    0.2680 n1        1 530     -0.169000
     13 C6          0.9150   -1.7860    0.0670 c1        1 530      0.088000
     14 N7          2.2540   -1.6250    0.2270 n1        1 530     -0.168000
     15 N8          2.5540   -0.2970    0.0230 n2        1 530     -0.111000
     16 C9          1.4110    0.3480   -0.2590 c1        1 530      0.062000
     17 C5          0.3780   -0.5810   -0.2340 c1        1 530     -0.284000
     18 C1         -1.0040   -0.4450   -0.3350 c1        1 530      0.073000
     19 N10         1.3240    1.7320   -0.5810 n2        1 530     -0.238000
     20 C13         2.5260    2.6290   -0.3990 c3        1 530     -0.004000
     21 C18         2.1910    3.6690    0.6020 c3        1 530     -0.209000
     22 C17         3.2700    4.7310    0.7170 c3        1 530     -0.022500
     23 O16         3.6270    5.2940   -0.5620 os        1 530     -0.271000
     24 C15         3.9610    4.2640   -1.5700 c3        1 530     -0.022500
     25 C14         2.8920    3.2050   -1.6950 c3        1 530     -0.209000
     26 H20        -5.3060   -4.1330    2.9450 ha        1 530      0.159000
     27 H19        -2.9070   -4.2220    2.5910 ha        1 530      0.161000
     28 H22        -5.9630   -3.8530   -1.0900 ha        1 530      0.169000
     29 HN7         2.8930   -2.3290    0.4460 DU        1 530      0.285000
     30 H1         -1.4060    0.4440   -0.5570 ha        1 530      0.172000
     31 HN10        0.5380    2.0810   -0.8580 hn        1 530      0.195000
     32 H13         3.2600    2.1080   -0.0730 h1        1 530      0.122000
     33 H18         2.0720    3.2320    1.4970 hc        1 530      0.098250
     34 H18A        1.3590    4.0930    0.3470 hc        1 530      0.098250
     35 H17         4.0950    4.3140    1.1300 h1        1 530      0.091250
     36 H17A        2.9490    5.4510    1.3030 h1        1 530      0.091250
     37 H15         4.0740    4.6830   -2.4130 h1        1 530      0.091250
     38 H15A        4.7730    3.8480   -1.3250 h1        1 530      0.091250
     39 H14         3.2250    2.4870   -2.2790 hc        1 530      0.098250
     40 H14A        2.1800    3.5590   -2.0600 hc        1 530      0.098250
@<TRIPOS>BOND
     1    1    2 1   
     2    2    3 1   
     3    2    5 1   
     4    3    4 1   
     5    3   26 1   
     6    4   27 1   
     7    5   28 1   
     8    6    7 1   
     9    6    8 1   
    10    8    9 1   
    11    9   10 1   
    12   10   11 1   
    13   10   12 1   
    14   11   18 1   
    15   13   17 1   
    16   14   15 1   
    17   15   16 1   
    18   16   17 1   
    19   18   30 1   
    20   19   20 1   
    21   19   31 1   
    22   20   21 1   
    23   20   25 1   
    24   20   32 1   
    25   21   22 1   
    26   21   33 1   
    27   21   34 1   
    28   22   23 1   
    29   22   35 1   
    30   22   36 1   
    31   23   24 1   
    32   24   25 1   
    33   24   37 1   
    34   24   38 1   
    35   25   39 1   
    36   25   40 1   
@<TRIPOS>SUBSTRUCTURE
     1 530         1 TEMP              0 ****  ****    0 ROOT
