@<TRIPOS>MOLECULE
532
   42    45     1     0     0
SMALL
bcc


@<TRIPOS>ATOM
      1 C1         -0.0830    1.0240    0.6610 c3        1 532      0.055300
      2 N1          1.1310    0.3160    0.4160 n         1 532     -0.430300
      3 O1          2.1580    0.5070    2.5110 o         1 532     -0.498500
      4 S1          6.1530    2.5520    1.5180 ss        1 532      0.163200
      5 C2          2.2550    0.2530    1.3190 c         1 532      0.692500
      6 N2          2.9440   -0.2660   -0.9460 n2        1 532     -0.515900
      7 C3          3.4950   -0.1920    0.4540 c3        1 532      0.231800
      8 N3          0.7830    0.0430   -2.0640 nz        1 532     -0.779600
      9 C4          1.6650    0.0440   -0.8760 c2        1 532      0.465800
     10 N4          7.8220   -4.2140   -2.3960 nb        1 532     -0.660000
     11 C5          4.0020   -1.5550    0.8660 ca        1 532     -0.109300
     12 C6          3.4290   -2.2740    1.9180 ca        1 532     -0.114000
     13 C7          3.9460   -3.5230    2.2610 ca        1 532     -0.121000
     14 C8          5.0210   -4.0620    1.5580 ca        1 532     -0.093000
     15 C9          5.6010   -3.3480    0.4980 cp        1 532     -0.020000
     16 C10         5.0870   -2.0890    0.1620 ca        1 532     -0.084000
     17 C11         6.7230   -3.9040   -0.2470 cp        1 532     -0.172300
     18 C12         7.7440   -4.6280    0.3890 ca        1 532     -0.075000
     19 C13         8.7930   -5.1360   -0.3750 ca        1 532     -0.238300
     20 C14         8.7910   -4.9040   -1.7630 ca        1 532      0.408200
     21 C15         6.8160   -3.7290   -1.6470 ca        1 532      0.405200
     22 C16         4.5640    0.8460    0.5650 cc        1 532     -0.170300
     23 C17         5.4440    1.2150   -0.5030 cc        1 532     -0.133000
     24 C18         6.3600    2.1590   -0.0840 cd        1 532     -0.190100
     25 C19         4.8730    1.5310    1.7320 cd        1 532     -0.172100
     26 H1         -0.9590    0.4110    0.3170 h1        1 532      0.070367
     27 H1A        -0.1720    1.1890    1.7720 h1        1 532      0.070367
     28 H1B        -0.0990    2.0240    0.1470 h1        1 532      0.070367
     29 HN3         0.1140   -0.7340   -1.9810 hn        1 532      0.483800
     30 HN3A        1.3490   -0.0800   -2.9170 hn        1 532      0.483800
     31 H6          2.5880   -1.8660    2.4990 ha        1 532      0.143000
     32 H7          3.5000   -4.0850    3.0960 ha        1 532      0.151000
     33 H8          5.4170   -5.0530    1.8310 ha        1 532      0.152000
     34 H10         5.5530   -1.5060   -0.6500 ha        1 532      0.151000
     35 H12         7.7190   -4.7850    1.4780 ha        1 532      0.145000
     36 H13         9.6090   -5.7040    0.0920 ha        1 532      0.155000
     37 H14         9.6050   -5.2890   -2.4050 h4        1 532      0.034100
     38 H15         6.0340   -3.1760   -2.1970 h4        1 532      0.015100
     39 H17         5.4000    0.7910   -1.5080 ha        1 532      0.161000
     40 H18         7.1370    2.5960   -0.7110 h4        1 532      0.189000
     41 H19         4.3520    1.4080    2.6860 h4        1 532      0.197000
     42 H33         0.2750    0.9350   -2.1110 hn        1 532      0.483800
@<TRIPOS>BOND
     1    1    2 1   
     2    1   26 1   
     3    1   27 1   
     4    1   28 1   
     5    2    5 1   
     6    2    9 1   
     7    3    5 2   
     8    4   24 1   
     9    4   25 1   
    10    5    7 1   
    11    6    7 1   
    12    6    9 2   
    13    7   11 1   
    14    7   22 1   
    15    8    9 1   
    16    8   29 1   
    17    8   30 1   
    18    8   42 1   
    19   10   20 ar  
    20   10   21 ar  
    21   11   12 ar  
    22   11   16 ar  
    23   12   13 ar  
    24   12   31 1   
    25   13   14 ar  
    26   13   32 1   
    27   14   15 ar  
    28   14   33 1   
    29   15   16 ar  
    30   15   17 1   
    31   16   34 1   
    32   17   18 ar  
    33   17   21 ar  
    34   18   19 ar  
    35   18   35 1   
    36   19   20 ar  
    37   19   36 1   
    38   20   37 1   
    39   21   38 1   
    40   22   23 1   
    41   22   25 2   
    42   23   24 2   
    43   23   39 1   
    44   24   40 1   
    45   25   41 1   
@<TRIPOS>SUBSTRUCTURE
     1 532         1 TEMP              0 ****  ****    0 ROOT
