@<TRIPOS>MOLECULE
532
   41    34     1     0     0
SMALL
bcc


@<TRIPOS>ATOM
      1 C1         -5.0710   -0.0500   -0.1550 c3        1 532     -0.068000
      2 N1         -3.6480   -0.0670   -0.1840 n         1 532     -0.329000
      3 O1         -3.0890   -0.0560    2.1790 o         1 532     -0.315000
      4 S1         -0.0340   -4.1460    1.6330 ss        1 532      0.559000
      5 C2         -2.7370   -0.0740    1.0160 c2        1 532      0.296000
      6 N2         -1.6470   -0.8410   -0.8720 n1        1 532     -0.257000
      7 C3         -1.3360   -0.6320    0.4610 c2        1 532      0.116000
      8 N3         -3.1750   -0.1940   -2.5470 n3        1 532     -0.308000
      9 C4         -2.8700   -0.5400   -1.2060 c2        1 532      0.176000
     10 N4          5.2220    0.2830   -1.4390 n1        1 532     -0.138000
     11 C5         -0.1390    0.3040    0.6970 c2        1 532     -0.065000
     12 C6         -0.1760    1.2290    1.7280 c2        1 532     -0.112000
     13 C7          0.8710    2.1210    1.8980 c1        1 532     -0.134000
     14 C8          1.9560    2.0870    1.0360 c1        1 532     -0.099000
     15 C9          1.9930    1.1620    0.0040 c1        1 532     -0.065000
     16 C10         0.9460    0.2710   -0.1650 c1        1 532     -0.085000
     17 C11         3.0750    1.1330   -0.8620 c1        1 532     -0.065000
     18 C12         3.1220    1.9890   -1.9240 c1        1 532     -0.099000
     19 C13         4.2120    1.9980   -2.7450 c1        1 532     -0.127500
     20 C14         5.2700    1.1370   -2.4990 c1        1 532     -0.127500
     21 C15         4.1340    0.2740   -0.6190 c1        1 532     -0.062000
     22 C16        -0.8860   -1.9190    1.1730 c2        1 532     -0.113000
     23 C17        -0.9680   -2.1950    2.7390 c1        1 532     -0.139000
     24 C18        -0.4550   -3.5290    2.9930 c1        1 532     -0.444000
     25 C19        -0.3260   -3.0930    0.5310 c1        1 532     -0.400000
     26 H1         -5.3760    0.3190    0.7020 h1        1 532      0.091333
     27 H1A        -5.4120   -0.9650   -0.2580 h1        1 532      0.091333
     28 H1B        -5.4070    0.5080   -0.8900 h1        1 532      0.091333
     29 HN3        -2.5600   -0.3400   -3.2080 hn        1 532      0.208000
     30 HN3A       -3.9770    0.1960   -2.7480 hn        1 532      0.208000
     31 H6         -0.9400    1.2520    2.3360 ha        1 532      0.158000
     32 H7          0.8450    2.7720    2.6240 ha        1 532      0.136000
     33 H8          2.6940    2.7150    1.1550 ha        1 532      0.137000
     34 H10         0.9720   -0.3810   -0.8920 ha        1 532      0.154000
     35 H12         2.3760    2.5950   -2.0960 ha        1 532      0.137000
     36 H13         4.2460    2.6100   -3.5040 ha        1 532      0.150500
     37 H14         6.0500    1.1430   -3.0860 ha        1 532      0.150500
     38 H15         4.1010   -0.3390    0.1410 ha        1 532      0.165000
     39 H17        -1.3060   -1.5750    3.4120 DU        1 532      0.176667
     40 H18        -0.3870   -3.9610    3.8660 DU        1 532      0.176667
     41 H19        -0.1630   -3.2020   -0.4250 DU        1 532      0.176667
@<TRIPOS>BOND
     1    1    2 1   
     2    1   26 1   
     3    1   27 1   
     4    1   28 1   
     5    2    5 1   
     6    2    9 1   
     7    3    5 1   
     8    4   24 1   
     9    4   25 1   
    10    5    7 1   
    11    6    9 1   
    12    7   11 1   
    13    7   22 1   
    14    8    9 1   
    15    8   29 1   
    16    8   30 1   
    17   10   21 1   
    18   11   12 1   
    19   11   16 1   
    20   12   13 1   
    21   12   31 1   
    22   13   32 1   
    23   14   15 1   
    24   14   33 1   
    25   16   34 1   
    26   17   18 1   
    27   18   35 1   
    28   19   20 1   
    29   19   36 1   
    30   20   37 1   
    31   21   38 1   
    32   22   23 1   
    33   22   25 1   
    34   23   24 1   
@<TRIPOS>SUBSTRUCTURE
     1 532         1 TEMP              0 ****  ****    0 ROOT
