@<TRIPOS>MOLECULE
532
   42    45     1     0     0
SMALL
bcc


@<TRIPOS>ATOM
      1 C1         -0.0820    1.0230    0.6540 c3        1 532      0.055300
      2 N1          1.1320    0.3160    0.4110 n         1 532     -0.430300
      3 O1          2.1530    0.5000    2.5090 o         1 532     -0.498500
      4 S1          6.1510    2.5490    1.5350 ss        1 532      0.163200
      5 C2          2.2540    0.2500    1.3170 c         1 532      0.692500
      6 N2          2.9500   -0.2620   -0.9470 n2        1 532     -0.515900
      7 C3          3.4970   -0.1920    0.4540 c3        1 532      0.231800
      8 N3          0.7920    0.0510   -2.0710 n4        1 532     -0.779600
      9 C4          1.6700    0.0470   -0.8800 c2        1 532      0.465800
     10 N4          7.8400   -4.2010   -2.3890 nb        1 532     -0.660000
     11 C5          4.0020   -1.5560    0.8630 ca        1 532     -0.109300
     12 C6          3.4240   -2.2800    1.9090 ca        1 532     -0.114000
     13 C7          3.9400   -3.5300    2.2500 ca        1 532     -0.121000
     14 C8          5.0190   -4.0660    1.5510 ca        1 532     -0.093000
     15 C9          5.6040   -3.3480    0.4970 cp        1 532     -0.020000
     16 C10         5.0910   -2.0870    0.1620 ca        1 532     -0.084000
     17 C11         6.7300   -3.9000   -0.2450 cp        1 532     -0.172300
     18 C12         7.7480   -4.6250    0.3940 ca        1 532     -0.075000
     19 C13         8.8020   -5.1290   -0.3670 ca        1 532     -0.238300
     20 C14         8.8060   -4.8920   -1.7540 ca        1 532      0.408200
     21 C15         6.8300   -3.7200   -1.6440 ca        1 532      0.405200
     22 C16         4.5650    0.8450    0.5720 cc        1 532     -0.170300
     23 C17         5.4470    1.2180   -0.4920 cc        1 532     -0.133000
     24 C18         6.3620    2.1610   -0.0670 cd        1 532     -0.190100
     25 C19         4.8700    1.5260    1.7420 cd        1 532     -0.172100
     26 H1         -0.9580    0.4120    0.3050 h1        1 532      0.070367
     27 H1A        -0.0960    2.0250    0.1440 h1        1 532      0.070367
     28 H1B        -0.1750    1.1850    1.7660 h1        1 532      0.070367
     29 HN3         0.1230   -0.7270   -1.9930 hn        1 532      0.483800
     30 HN3A        0.2840    0.9420   -2.1170 hn        1 532      0.483800
     31 H6          2.5800   -1.8750    2.4880 ha        1 532      0.143000
     32 H7          3.4900   -4.0960    3.0810 ha        1 532      0.151000
     33 H8          5.4140   -5.0580    1.8220 ha        1 532      0.152000
     34 H10         5.5600   -1.5010   -0.6450 ha        1 532      0.151000
     35 H12         7.7170   -4.7870    1.4820 ha        1 532      0.145000
     36 H13         9.6150   -5.6990    0.1020 ha        1 532      0.155000
     37 H14         9.6230   -5.2740   -2.3940 h4        1 532      0.034100
     38 H15         6.0500   -3.1650   -2.1950 h4        1 532      0.015100
     39 H17         5.4070    0.7970   -1.4990 ha        1 532      0.161000
     40 H18         7.1410    2.6000   -0.6910 h4        1 532      0.189000
     41 H19         4.3470    1.4000    2.6940 h4        1 532      0.197000
     42 H33         1.3600   -0.0700   -2.9230 hn        1 532      0.483800
@<TRIPOS>BOND
     1    1    2 1   
     2    1   26 1   
     3    1   27 1   
     4    1   28 1   
     5    2    5 1   
     6    2    9 1   
     7    3    5 2   
     8    4   24 1   
     9    4   25 1   
    10    5    7 1   
    11    6    7 1   
    12    6    9 2   
    13    7   11 1   
    14    7   22 1   
    15    8    9 1   
    16    8   29 1   
    17    8   30 1   
    18    8   42 1   
    19   10   20 ar  
    20   10   21 ar  
    21   11   12 ar  
    22   11   16 ar  
    23   12   13 ar  
    24   12   31 1   
    25   13   14 ar  
    26   13   32 1   
    27   14   15 ar  
    28   14   33 1   
    29   15   16 ar  
    30   15   17 1   
    31   16   34 1   
    32   17   18 ar  
    33   17   21 ar  
    34   18   19 ar  
    35   18   35 1   
    36   19   20 ar  
    37   19   36 1   
    38   20   37 1   
    39   21   38 1   
    40   22   23 1   
    41   22   25 2   
    42   23   24 2   
    43   23   39 1   
    44   24   40 1   
    45   25   41 1   
@<TRIPOS>SUBSTRUCTURE
     1 532         1 TEMP              0 ****  ****    0 ROOT
