@<TRIPOS>MOLECULE
532
   42    45     1     0     0
SMALL
bcc


@<TRIPOS>ATOM
      1 C1         -0.1250    0.8990    0.8250 c3        1 532      0.054300
      2 N1          1.0930    0.2130    0.5420 n         1 532     -0.429300
      3 O1          2.2470    0.5640    2.5490 o         1 532     -0.497500
      4 S1          6.0840    2.6900    1.1770 ss        1 532      0.166200
      5 C2          2.2760    0.2440    1.3690 c         1 532      0.692500
      6 N2          2.8360   -0.3830   -0.9040 n2        1 532     -0.514900
      7 C3          3.4740   -0.2060    0.4490 c3        1 532      0.231800
      8 N3          0.5970   -0.2150   -1.8910 n4        1 532     -0.779600
      9 C4          1.5540   -0.1150   -0.7660 c2        1 532      0.464800
     10 N4          8.9020   -3.3620   -1.4400 nb        1 532     -0.657000
     11 C5          4.0610   -1.5220    0.9030 ca        1 532     -0.109300
     12 C6          3.5700   -2.2100    2.0160 ca        1 532     -0.115000
     13 C7          4.1610   -3.4140    2.3980 ca        1 532     -0.121000
     14 C8          5.2310   -3.9380    1.6770 ca        1 532     -0.093000
     15 C9          5.7290   -3.2560    0.5560 cp        1 532     -0.019000
     16 C10         5.1380   -2.0440    0.1770 ca        1 532     -0.084000
     17 C11         6.8530   -3.7920   -0.2010 cp        1 532     -0.175300
     18 C12         6.9930   -5.1700   -0.4300 ca        1 532     -0.079000
     19 C13         8.0870   -5.6280   -1.1640 ca        1 532     -0.241300
     20 C14         9.0150   -4.6880   -1.6500 ca        1 532      0.408200
     21 C15         7.8450   -2.9330   -0.7290 ca        1 532      0.408200
     22 C16         4.5050    0.8750    0.4290 cc        1 532     -0.170300
     23 C17         5.2930    1.2180   -0.7160 cc        1 532     -0.136000
     24 C18         6.1960    2.2170   -0.4130 cd        1 532     -0.191100
     25 C19         4.8640    1.6340    1.5340 cd        1 532     -0.173100
     26 H1         -1.0010    0.2420    0.5740 h1        1 532      0.070367
     27 H1A        -0.1490    1.1250    1.9290 h1        1 532      0.070367
     28 H1B        -0.2070    1.8660    0.2590 h1        1 532      0.070367
     29 HN3         0.0550    0.6550   -1.9550 hn        1 532      0.483467
     30 HN3A        1.1100   -0.3720   -2.7710 hn        1 532      0.483467
     31 H6          2.7360   -1.8100    2.6140 ha        1 532      0.142000
     32 H7          3.7820   -3.9490    3.2830 ha        1 532      0.151000
     33 H8          5.6960   -4.8850    1.9930 ha        1 532      0.152000
     34 H10         5.5270   -1.4920   -0.6950 ha        1 532      0.150000
     35 H12         6.2470   -5.8780   -0.0400 ha        1 532      0.141000
     36 H13         8.2270   -6.7000   -1.3600 ha        1 532      0.154000
     37 H14         9.8960   -5.0090   -2.2360 h4        1 532      0.034100
     38 H15         7.7920   -1.8420   -0.5590 h4        1 532      0.023100
     39 H17         5.1970    0.7390   -1.6930 ha        1 532      0.161000
     40 H18         6.9100    2.6480   -1.1160 h4        1 532      0.190000
     41 H19         4.4160    1.5450    2.5270 h4        1 532      0.197000
     42 H33        -0.0370   -1.0070   -1.7180 hn        1 532      0.483467
@<TRIPOS>BOND
     1    1    2 1   
     2    1   26 1   
     3    1   27 1   
     4    1   28 1   
     5    2    5 1   
     6    2    9 1   
     7    3    5 2   
     8    4   24 1   
     9    4   25 1   
    10    5    7 1   
    11    6    7 1   
    12    6    9 2   
    13    7   11 1   
    14    7   22 1   
    15    8    9 1   
    16    8   29 1   
    17    8   30 1   
    18    8   42 1   
    19   10   20 ar  
    20   10   21 ar  
    21   11   12 ar  
    22   11   16 ar  
    23   12   13 ar  
    24   12   31 1   
    25   13   14 ar  
    26   13   32 1   
    27   14   15 ar  
    28   14   33 1   
    29   15   16 ar  
    30   15   17 1   
    31   16   34 1   
    32   17   18 ar  
    33   17   21 ar  
    34   18   19 ar  
    35   18   35 1   
    36   19   20 ar  
    37   19   36 1   
    38   20   37 1   
    39   21   38 1   
    40   22   23 1   
    41   22   25 2   
    42   23   24 2   
    43   23   39 1   
    44   24   40 1   
    45   25   41 1   
@<TRIPOS>SUBSTRUCTURE
     1 532         1 TEMP              0 ****  ****    0 ROOT
