@<TRIPOS>MOLECULE
532
   41    44     1     0     0
SMALL
bcc


@<TRIPOS>ATOM
      1 C1          3.3040    3.4470    1.0600 c3        1 532      0.086300
      2 N1          2.3500    2.4960    0.6000 n         1 532     -0.439300
      3 O1          2.7700    0.7390    2.0820 o         1 532     -0.593500
      4 S1          3.4550   -2.7990   -0.7910 ss        1 532      0.032200
      5 C2          2.2250    1.1670    1.0620 c         1 532      0.688500
      6 N2          1.0000    1.4660   -0.9990 n2        1 532     -0.667900
      7 C3          1.2760    0.4310    0.0360 c3        1 532      0.204800
      8 N3          1.7290    3.7460   -1.4420 nh        1 532     -0.869800
      9 C4          1.6470    2.5820   -0.6580 c2        1 532      0.623800
     10 N4         -5.1790    0.9120   -1.3750 nb        1 532     -0.665000
     11 C5          0.0160   -0.0350    0.7400 ca        1 532     -0.072300
     12 C6          0.0970   -0.5820    2.0260 ca        1 532     -0.112000
     13 C7         -1.0540   -1.0360    2.6680 ca        1 532     -0.134000
     14 C8         -2.2920   -0.9570    2.0350 ca        1 532     -0.112000
     15 C9         -2.3850   -0.4250    0.7430 cp        1 532     -0.049000
     16 C10        -1.2250    0.0300    0.0980 ca        1 532     -0.084000
     17 C11        -3.6750   -0.3440    0.0690 cp        1 532     -0.145300
     18 C12        -4.6310   -1.3650    0.1890 ca        1 532     -0.086000
     19 C13        -5.8500   -1.2360   -0.4760 ca        1 532     -0.246300
     20 C14        -6.0800   -0.0820   -1.2450 ca        1 532      0.391200
     21 C15        -4.0070    0.7750   -0.7300 ca        1 532      0.402200
     22 C16         1.9920   -0.7550   -0.5340 cc        1 532     -0.116300
     23 C17         1.7950   -1.2290   -1.8750 cc        1 532     -0.113000
     24 C18         2.5530   -2.3500   -2.1260 cd        1 532     -0.185100
     25 C19         2.8890   -1.5510    0.1540 cd        1 532     -0.162100
     26 H1          4.1000    3.6340    0.2880 h1        1 532      0.052033
     27 H1A         2.7900    4.4190    1.2910 h1        1 532      0.052033
     28 H1B         3.7840    3.0540    1.9970 h1        1 532      0.052033
     29 HN3         1.7690    4.5910   -0.9140 hn        1 532      0.413300
     30 HN3A        1.0690    3.7710   -2.1910 hn        1 532      0.413300
     31 H6          1.0720   -0.6610    2.5350 ha        1 532      0.158000
     32 H7         -0.9810   -1.4580    3.6810 ha        1 532      0.135000
     33 H8         -3.1980   -1.3090    2.5510 ha        1 532      0.133000
     34 H10        -1.3080    0.4220   -0.9290 ha        1 532      0.154000
     35 H12        -4.4150   -2.2580    0.7940 ha        1 532      0.141000
     36 H13        -6.6170   -2.0180   -0.4050 ha        1 532      0.143000
     37 H14        -7.0320    0.0590   -1.7870 h4        1 532      0.021100
     38 H15        -3.2900    1.6070   -0.8520 h4        1 532      0.026100
     39 H17         1.1230   -0.7450   -2.5880 ha        1 532      0.169000
     40 H18         2.5790   -2.8970   -3.0670 h4        1 532      0.171000
     41 H19         3.2000   -1.3940    1.1890 h4        1 532      0.190000
@<TRIPOS>BOND
     1    1    2 1   
     2    1   26 1   
     3    1   27 1   
     4    1   28 1   
     5    2    5 1   
     6    2    9 1   
     7    3    5 2   
     8    4   24 1   
     9    4   25 1   
    10    5    7 1   
    11    6    7 1   
    12    6    9 2   
    13    7   11 1   
    14    7   22 1   
    15    8    9 1   
    16    8   29 1   
    17    8   30 1   
    18   10   20 ar  
    19   10   21 ar  
    20   11   12 ar  
    21   11   16 ar  
    22   12   13 ar  
    23   12   31 1   
    24   13   14 ar  
    25   13   32 1   
    26   14   15 ar  
    27   14   33 1   
    28   15   16 ar  
    29   15   17 1   
    30   16   34 1   
    31   17   18 ar  
    32   17   21 ar  
    33   18   19 ar  
    34   18   35 1   
    35   19   20 ar  
    36   19   36 1   
    37   20   37 1   
    38   21   38 1   
    39   22   23 1   
    40   22   25 2   
    41   23   24 2   
    42   23   39 1   
    43   24   40 1   
    44   25   41 1   
@<TRIPOS>SUBSTRUCTURE
     1 532         1 TEMP              0 ****  ****    0 ROOT
