@<TRIPOS>MOLECULE
533
   46    49     1     0     0
SMALL
bcc


@<TRIPOS>ATOM
      1 F23        -7.2310   -2.8820    0.5810 f         1 533     -0.135900
      2 C19        -6.3270   -1.8750    0.5100 ca        1 533      0.127900
      3 C18        -4.9580   -2.1530    0.6720 ca        1 533     -0.152000
      4 C17        -4.0330   -1.1170    0.6020 ca        1 533     -0.133000
      5 C20        -6.7730   -0.5630    0.2750 ca        1 533     -0.185000
      6 C21        -5.8380    0.4790    0.1970 ca        1 533      0.147900
      7 F22        -6.2520    1.7440   -0.0280 f         1 533     -0.116900
      8 C16        -4.4600    0.1910    0.3680 ca        1 533      0.071100
      9 O15        -3.6170    1.2970    0.3430 os        1 533     -0.212200
     10 C12        -2.2780    1.0370    0.0770 cc        1 533     -0.051100
     11 C11        -1.9120    0.7760   -1.3290 c         1 533      0.697700
     12 O14        -2.7440    0.6290   -2.2400 o         1 533     -0.593500
     13 N10        -0.5300    0.6830   -1.6310 n         1 533     -0.424300
     14 C24        -0.1220    0.4490   -2.9980 c3        1 533      0.069300
     15 C9          0.4390    0.8440   -0.6370 ca        1 533      0.624200
     16 N5          1.7660    0.7630   -0.9740 nb        1 533     -0.809000
     17 C13        -1.3490    1.1840    1.0570 cd        1 533      0.002800
     18 C8          0.0330    1.0930    0.7220 ca        1 533     -0.423400
     19 C6          1.0690    1.2520    1.6750 ca        1 533      0.522200
     20 N7          2.3630    1.1760    1.3900 nb        1 533     -0.763000
     21 C4          2.6850    0.9070    0.0480 ca        1 533      0.930900
     22 N1          4.0200    0.7210   -0.2980 nh        1 533     -0.838900
     23 C2          5.1050    1.0730    0.5910 c3        1 533      0.209500
     24 C26         5.3640    2.5760    0.7100 c3        1 533     -0.126100
     25 C3          6.4400    0.4270    0.1220 c3        1 533      0.052300
     26 N25         6.3710   -1.0230   -0.0530 na        1 533      0.193900
     27 N30         5.9260   -1.6140   -1.1850 nc        1 533     -0.489800
     28 C29         5.9160   -2.9300   -0.8610 cd        1 533      0.475900
     29 N28         6.3510   -3.0850    0.4910 nd        1 533     -0.367000
     30 N27         6.6000   -1.9300    0.9410 nc        1 533     -0.143800
     31 H18        -4.6290   -3.1860    0.8520 ha        1 533      0.155000
     32 H17        -2.9590   -1.3270    0.7220 ha        1 533      0.151000
     33 H20        -7.8450   -0.3530    0.1450 ha        1 533      0.168000
     34 H24        -1.0300    0.3420   -3.6510 h1        1 533      0.065367
     35 H24A        0.4960    1.3110   -3.3670 h1        1 533      0.065367
     36 H24B        0.4880   -0.4910   -3.0580 h1        1 533      0.065367
     37 H13        -1.6410    1.3890    2.0990 ha        1 533      0.159000
     38 H6          0.8180    1.4600    2.7340 h4        1 533      0.034100
     39 HN1         4.2330    0.6730   -1.2720 hn        1 533      0.453800
     40 H2          4.8640    0.6690    1.6210 h1        1 533      0.101700
     41 H26         6.2000    2.7500    1.4290 hc        1 533      0.053033
     42 H26A        5.6390    3.0210   -0.2760 hc        1 533      0.053033
     43 H26B        4.4540    3.0960    1.0960 hc        1 533      0.053033
     44 H3          6.7660    0.8830   -0.8550 h1        1 533      0.087200
     45 H3A         7.2180    0.6470    0.9070 h1        1 533      0.087200
     46 H29         5.6330   -3.7630   -1.5100 h5        1 533      0.088100
@<TRIPOS>BOND
     1    1    2 1   
     2    2    3 ar  
     3    2    5 ar  
     4    3    4 ar  
     5    3   31 1   
     6    4    8 ar  
     7    4   32 1   
     8    5    6 ar  
     9    5   33 1   
    10    6    7 1   
    11    6    8 ar  
    12    8    9 1   
    13    9   10 1   
    14   10   11 1   
    15   10   17 2   
    16   11   12 2   
    17   11   13 1   
    18   13   14 1   
    19   13   15 1   
    20   14   34 1   
    21   14   35 1   
    22   14   36 1   
    23   15   16 ar  
    24   15   18 ar  
    25   16   21 ar  
    26   17   18 1   
    27   17   37 1   
    28   18   19 ar  
    29   19   20 ar  
    30   19   38 1   
    31   20   21 ar  
    32   21   22 1   
    33   22   23 1   
    34   22   39 1   
    35   23   24 1   
    36   23   25 1   
    37   23   40 1   
    38   24   41 1   
    39   24   42 1   
    40   24   43 1   
    41   25   26 1   
    42   25   44 1   
    43   25   45 1   
    44   26   27 1   
    45   26   30 1   
    46   27   28 2   
    47   28   29 1   
    48   28   46 1   
    49   29   30 2   
@<TRIPOS>SUBSTRUCTURE
     1 533         1 TEMP              0 ****  ****    0 ROOT
