@<TRIPOS>MOLECULE
533
   46    49     1     0     0
SMALL
bcc


@<TRIPOS>ATOM
      1 F23        -0.0650    0.1820   -0.6880 f         1 533     -0.135900
      2 C19         1.2740    0.1110   -0.4930 ca        1 533      0.127900
      3 C18         1.8200    0.4810    0.7490 ca        1 533     -0.152000
      4 C17         3.1950    0.4100    0.9460 ca        1 533     -0.133000
      5 C20         2.1010   -0.3330   -1.5390 ca        1 533     -0.185000
      6 C21         3.4860   -0.4120   -1.3370 ca        1 533      0.147900
      7 F22         4.2930   -0.8360   -2.3340 f         1 533     -0.116900
      8 C16         4.0280   -0.0300   -0.0840 ca        1 533      0.071100
      9 O15         5.4170   -0.0750   -0.0010 os        1 533     -0.212200
     10 C12         5.9500   -0.1310    1.2810 cc        1 533     -0.051100
     11 C11         5.9050   -1.4360    1.9690 c         1 533      0.697700
     12 O14         5.2930   -2.4240    1.5310 o         1 533     -0.593500
     13 N10         6.6000   -1.5420    3.2010 n         1 533     -0.424300
     14 C24         6.6030   -2.8070    3.9020 c3        1 533      0.069300
     15 C9          7.3030   -0.4550    3.7290 ca        1 533      0.624200
     16 N5          7.9750   -0.6040    4.9160 nb        1 533     -0.809000
     17 C13         6.6180    0.9380    1.7860 cd        1 533      0.002800
     18 C8          7.3130    0.8000    3.0230 ca        1 533     -0.423400
     19 C6          8.0510    1.8540    3.6140 ca        1 533      0.522200
     20 N7          8.7100    1.7520    4.7610 nb        1 533     -0.763000
     21 C4          8.6370    0.5050    5.4070 ca        1 533      0.930900
     22 N1          9.2270    0.3610    6.6590 nu        1 533     -0.838900
     23 C2         10.1500    1.3370    7.1950 c3        1 533      0.209500
     24 C26        11.5400    1.3100    6.5560 c3        1 533     -0.126100
     25 C3         10.3570    1.1270    8.7220 c3        1 533      0.052300
     26 N25         9.1170    1.1170    9.4960 na        1 533      0.193900
     27 N30         8.3500    0.0150    9.6560 nc        1 533     -0.489800
     28 C29         7.2650    0.4880   10.3170 cd        1 533      0.475900
     29 N28         7.4150    1.8940   10.5210 nd        1 533     -0.367000
     30 N27         8.5210    2.2330   10.0090 nc        1 533     -0.143800
     31 H18         1.1560    0.8230    1.5560 ha        1 533      0.155000
     32 H17         3.6290    0.6930    1.9170 ha        1 533      0.151000
     33 H20         1.6680   -0.6250   -2.5070 ha        1 533      0.168000
     34 H24         7.6540   -3.1900    3.9950 h1        1 533      0.065367
     35 H24A        5.9870   -3.5550    3.3350 h1        1 533      0.065367
     36 H24B        6.1690   -2.6730    4.9280 h1        1 533      0.065367
     37 H13         6.6480    1.9010    1.2530 ha        1 533      0.159000
     38 H6          8.1070    2.8390    3.1100 h4        1 533      0.034100
     39 HN1         9.2830   -0.5630    7.0300 hn        1 533      0.453800
     40 H2          9.7060    2.3680    7.0410 h1        1 533      0.101700
     41 H26        12.0380    0.3230    6.7080 hc        1 533      0.053033
     42 H26A       11.4660    1.5100    5.4600 hc        1 533      0.053033
     43 H26B       12.1720    2.1070    7.0170 hc        1 533      0.053033
     44 H3         10.8940    0.1540    8.9080 h1        1 533      0.087200
     45 H3A        10.9960    1.9750    9.0980 h1        1 533      0.087200
     46 H29         6.4020   -0.0890   10.6580 h5        1 533      0.088100
@<TRIPOS>BOND
     1    1    2 1   
     2    2    3 ar  
     3    2    5 ar  
     4    3    4 ar  
     5    3   31 1   
     6    4    8 ar  
     7    4   32 1   
     8    5    6 ar  
     9    5   33 1   
    10    6    7 1   
    11    6    8 ar  
    12    8    9 1   
    13    9   10 1   
    14   10   11 1   
    15   10   17 2   
    16   11   12 2   
    17   11   13 1   
    18   13   14 1   
    19   13   15 1   
    20   14   34 1   
    21   14   35 1   
    22   14   36 1   
    23   15   16 ar  
    24   15   18 ar  
    25   16   21 ar  
    26   17   18 1   
    27   17   37 1   
    28   18   19 ar  
    29   19   20 ar  
    30   19   38 1   
    31   20   21 ar  
    32   21   22 1   
    33   22   23 1   
    34   22   39 1   
    35   23   24 1   
    36   23   25 1   
    37   23   40 1   
    38   24   41 1   
    39   24   42 1   
    40   24   43 1   
    41   25   26 1   
    42   25   44 1   
    43   25   45 1   
    44   26   27 1   
    45   26   30 1   
    46   27   28 2   
    47   28   29 1   
    48   28   46 1   
    49   29   30 2   
@<TRIPOS>SUBSTRUCTURE
     1 533         1 TEMP              0 ****  ****    0 ROOT
