@<TRIPOS>MOLECULE
533
   47    50     1     0     0
SMALL
bcc


@<TRIPOS>ATOM
      1 F23         0.8160   -1.5710   -2.0760 f         1 533     -0.116900
      2 C19         1.8770   -0.9760   -1.4880 ca        1 533      0.176900
      3 C18         1.6770   -0.1580   -0.3560 ca        1 533     -0.170000
      4 C17         2.7650    0.4550    0.2490 ca        1 533     -0.085000
      5 C20         3.1630   -1.1810   -2.0140 ca        1 533     -0.198000
      6 C21         4.2650   -0.5660   -1.3950 ca        1 533      0.192900
      7 F22         5.5070   -0.7500   -1.8850 f         1 533     -0.110900
      8 C16         4.0510    0.2530   -0.2630 ca        1 533      0.004100
      9 O15         5.1390    0.9830    0.2240 os        1 533     -0.206200
     10 C12         5.5910    0.6890    1.4930 cc        1 533      0.071900
     11 C11         5.6820   -0.7200    1.9500 c         1 533      0.681700
     12 O14         5.2690   -1.6870    1.2990 o         1 533     -0.538500
     13 N10         6.2840   -0.9560    3.2190 n         1 533     -0.413300
     14 C24         6.4060   -2.3190    3.6960 c3        1 533      0.059300
     15 C9          6.7930    0.0920    3.9750 ca        1 533      0.584200
     16 N5          7.4080   -0.1700    5.1850 nb        1 533     -0.722000
     17 C13         6.0550    1.7230    2.2450 cd        1 533     -0.109200
     18 C8          6.6800    1.4530    3.5020 ca        1 533     -0.272400
     19 C6          7.2050    2.4750    4.3210 ca        1 533      0.490200
     20 N7          7.8000    2.2400    5.5030 nb        1 533     -0.696000
     21 C4          7.8630    0.9140    5.8670 ca        1 533      0.731900
     22 N1          8.4980    0.6290    7.1920 n4        1 533     -0.738700
     23 C2          9.9810    0.9130    7.1810 c3        1 533      0.121500
     24 C26        10.6840    0.2870    5.9840 c3        1 533     -0.128100
     25 C3         10.6630    0.3690    8.4620 c3        1 533      0.042300
     26 N25        10.1030    0.8840    9.7030 na        1 533      0.136900
     27 N30         8.8550    0.5610   10.1430 nc        1 533     -0.561800
     28 C29         8.8210    1.0830   11.3860 cd        1 533      0.538900
     29 N28        10.0840    1.7100   11.6680 nd        1 533     -0.332000
     30 N27        10.8160    1.5670   10.6550 nc        1 533     -0.092800
     31 H18         0.6580   -0.0090    0.0330 ha        1 533      0.167000
     32 H17         2.6220    1.1060    1.1250 ha        1 533      0.151000
     33 H20         3.3110   -1.8180   -2.9000 ha        1 533      0.181000
     34 H24         7.4900   -2.5900    3.8100 h1        1 533      0.076700
     35 H24A        5.9310   -3.0220    2.9580 h1        1 533      0.076700
     36 H24B        5.8870   -2.4230    4.6850 h1        1 533      0.076700
     37 H13         5.9820    2.7640    1.8900 ha        1 533      0.186000
     38 H6          7.1470    3.5400    4.0150 h4        1 533      0.072100
     39 HN1         8.3380   -0.3560    7.4470 hn        1 533      0.479300
     40 H2         10.0860    2.0410    7.1340 hx        1 533      0.133700
     41 H26        10.2850    0.6960    5.0240 hc        1 533      0.082033
     42 H26A       10.5770   -0.8250    5.9780 hc        1 533      0.082033
     43 H26B       11.7730    0.5400    6.0390 hc        1 533      0.082033
     44 H3         10.6090   -0.7580    8.4710 h1        1 533      0.113200
     45 H3A        11.7500    0.6750    8.4050 h1        1 533      0.113200
     46 H29         7.9880    1.0580   12.1000 h5        1 533      0.110100
     47 H12         8.0370    1.2320    7.8890 hn        1 533      0.479300
@<TRIPOS>BOND
     1    1    2 1   
     2    2    3 ar  
     3    2    5 ar  
     4    3    4 ar  
     5    3   31 1   
     6    4    8 ar  
     7    4   32 1   
     8    5    6 ar  
     9    5   33 1   
    10    6    7 1   
    11    6    8 ar  
    12    8    9 1   
    13    9   10 1   
    14   10   11 1   
    15   10   17 2   
    16   11   12 2   
    17   11   13 1   
    18   13   14 1   
    19   13   15 1   
    20   14   34 1   
    21   14   35 1   
    22   14   36 1   
    23   15   16 ar  
    24   15   18 ar  
    25   16   21 ar  
    26   17   18 1   
    27   17   37 1   
    28   18   19 ar  
    29   19   20 ar  
    30   19   38 1   
    31   20   21 ar  
    32   21   22 1   
    33   22   23 1   
    34   22   39 1   
    35   22   47 1   
    36   23   24 1   
    37   23   25 1   
    38   23   40 1   
    39   24   41 1   
    40   24   42 1   
    41   24   43 1   
    42   25   26 1   
    43   25   44 1   
    44   25   45 1   
    45   26   27 1   
    46   26   30 1   
    47   27   28 2   
    48   28   29 1   
    49   28   46 1   
    50   29   30 2   
@<TRIPOS>SUBSTRUCTURE
     1 533         1 TEMP              0 ****  ****    0 ROOT
