@<TRIPOS>MOLECULE
533
   46    49     1     0     0
SMALL
bcc


@<TRIPOS>ATOM
      1 F23        -0.0680    0.2170   -0.6830 f         1 533     -0.135900
      2 C19         1.2700    0.1370   -0.4890 ca        1 533      0.127900
      3 C18         1.8190    0.5040    0.7520 ca        1 533     -0.152000
      4 C17         3.1940    0.4240    0.9490 ca        1 533     -0.133000
      5 C20         2.0930   -0.3150   -1.5350 ca        1 533     -0.185000
      6 C21         3.4780   -0.4020   -1.3340 ca        1 533      0.147900
      7 F22         4.2810   -0.8330   -2.3300 f         1 533     -0.116900
      8 C16         4.0240   -0.0230   -0.0810 ca        1 533      0.071100
      9 O15         5.4120   -0.0780    0.0010 os        1 533     -0.212200
     10 C12         5.9460   -0.1340    1.2830 cc        1 533     -0.051100
     11 C11         5.8940   -1.4370    1.9740 c         1 533      0.697700
     12 O14         5.2750   -2.4220    1.5390 o         1 533     -0.593500
     13 N10         6.5890   -1.5430    3.2050 n         1 533     -0.424300
     14 C24         6.5850   -2.8060    3.9100 c3        1 533      0.069300
     15 C9          7.2980   -0.4600    3.7300 ca        1 533      0.624200
     16 N5          7.9710   -0.6090    4.9170 nb        1 533     -0.809000
     17 C13         6.6210    0.9320    1.7850 cd        1 533      0.002800
     18 C8          7.3160    0.7930    3.0210 ca        1 533     -0.423400
     19 C6          8.0620    1.8450    3.6080 ca        1 533      0.522200
     20 N7          8.7200    1.7420    4.7560 nb        1 533     -0.763000
     21 C4          8.6400    0.4970    5.4050 ca        1 533      0.930900
     22 N1          9.2290    0.3530    6.6570 nh        1 533     -0.838900
     23 C2         10.1590    1.3240    7.1900 c3        1 533      0.209500
     24 C26        11.5480    1.2860    6.5500 c3        1 533     -0.126100
     25 C3         10.3660    1.1170    8.7170 c3        1 533      0.052300
     26 N25         9.1260    1.1170    9.4920 na        1 533      0.193900
     27 N30         8.3520    0.0210    9.6550 nc        1 533     -0.489800
     28 C29         7.2710    0.5020   10.3160 cd        1 533      0.475900
     29 N28         7.4300    1.9080   10.5160 nd        1 533     -0.367000
     30 N27         8.5380    2.2380   10.0020 nc        1 533     -0.143800
     31 H18         1.1590    0.8510    1.5600 ha        1 533      0.155000
     32 H17         3.6310    0.7040    1.9190 ha        1 533      0.151000
     33 H20         1.6570   -0.6040   -2.5020 ha        1 533      0.168000
     34 H24         5.9640   -3.5530    3.3450 h1        1 533      0.065367
     35 H24A        6.1510   -2.6680    4.9360 h1        1 533      0.065367
     36 H24B        7.6330   -3.1960    4.0040 h1        1 533      0.065367
     37 H13         6.6570    1.8940    1.2490 ha        1 533      0.159000
     38 H6          8.1230    2.8280    3.1010 h4        1 533      0.034100
     39 HN1         9.2800   -0.5710    7.0310 hn        1 533      0.453800
     40 H2          9.7210    2.3570    7.0330 h1        1 533      0.101700
     41 H26        12.0400    0.2970    6.7050 hc        1 533      0.053033
     42 H26A       11.4750    1.4820    5.4540 hc        1 533      0.053033
     43 H26B       12.1860    2.0810    7.0080 hc        1 533      0.053033
     44 H3         11.0110    1.9620    9.0900 h1        1 533      0.087200
     45 H3A        10.8960    0.1410    8.9050 h1        1 533      0.087200
     46 H29         6.4040   -0.0680   10.6600 h5        1 533      0.088100
@<TRIPOS>BOND
     1    1    2 1   
     2    2    3 ar  
     3    2    5 ar  
     4    3    4 ar  
     5    3   31 1   
     6    4    8 ar  
     7    4   32 1   
     8    5    6 ar  
     9    5   33 1   
    10    6    7 1   
    11    6    8 ar  
    12    8    9 1   
    13    9   10 1   
    14   10   11 1   
    15   10   17 2   
    16   11   12 2   
    17   11   13 1   
    18   13   14 1   
    19   13   15 1   
    20   14   34 1   
    21   14   35 1   
    22   14   36 1   
    23   15   16 ar  
    24   15   18 ar  
    25   16   21 ar  
    26   17   18 1   
    27   17   37 1   
    28   18   19 ar  
    29   19   20 ar  
    30   19   38 1   
    31   20   21 ar  
    32   21   22 1   
    33   22   23 1   
    34   22   39 1   
    35   23   24 1   
    36   23   25 1   
    37   23   40 1   
    38   24   41 1   
    39   24   42 1   
    40   24   43 1   
    41   25   26 1   
    42   25   44 1   
    43   25   45 1   
    44   26   27 1   
    45   26   30 1   
    46   27   28 2   
    47   28   29 1   
    48   28   46 1   
    49   29   30 2   
@<TRIPOS>SUBSTRUCTURE
     1 533         1 TEMP              0 ****  ****    0 ROOT
