@<TRIPOS>MOLECULE
533
   46    44     1     0     0
SMALL
bcc


@<TRIPOS>ATOM
      1 F23        -8.2280    1.0780   -3.7560 f         1 533     -0.098000
      2 C19        -7.0200    0.9920   -3.1910 c2        1 533      0.117000
      3 C18        -6.8660    1.2750   -1.8540 c2        1 533     -0.175000
      4 C17        -5.5990    1.2170   -1.2680 c1        1 533     -0.075000
      5 C20        -5.9180    0.6490   -3.9600 c1        1 533     -0.206000
      6 C21        -4.6670    0.5920   -3.3830 c1        1 533      0.112000
      7 F22        -3.6160    0.2730   -4.1160 f         1 533     -0.095000
      8 C16        -4.5100    0.8790   -2.0230 c1        1 533     -0.016000
      9 O15        -3.2320    0.6590   -1.3840 os        1 533     -0.134000
     10 C12        -2.7480   -0.5890   -1.7470 c2        1 533     -0.072000
     11 C11        -2.9870   -1.5850   -0.5930 c2        1 533      0.343000
     12 O14        -2.9100   -2.7000   -1.0270 o         1 533     -0.342000
     13 N10        -1.8660   -1.6920    0.4240 n         1 533     -0.239000
     14 C24        -2.0030   -2.5220    1.5040 c3        1 533     -0.085000
     15 C9         -0.6290   -0.8750    0.2690 c2        1 533      0.214000
     16 N5          0.3800   -0.9620    1.2160 n2        1 533     -0.285000
     17 C13        -1.3590   -0.2200   -1.9250 c1        1 533     -0.009000
     18 C8         -0.5000   -0.0590   -0.7600 c1        1 533     -0.274000
     19 C6          0.6450    0.7110   -0.8920 c2        1 533      0.058000
     20 N7          1.6300    0.6260    0.0350 n1        1 533     -0.234000
     21 C4          1.4960   -0.2110    1.0870 c1        1 533      0.207000
     22 N1          2.6340   -0.6980    1.8210 n3        1 533     -0.294000
     23 C2          3.9620   -0.2150    1.5050 c3        1 533      0.020000
     24 C26         4.7040   -1.2640    0.7330 c3        1 533     -0.231000
     25 C3          4.7080    0.0860    2.7900 c3        1 533     -0.022000
     26 N25         5.5800    1.2360    2.5900 n3        1 533     -0.162000
     27 N30         6.9090    1.1950    2.2820 n2        1 533     -0.059000
     28 C29         7.3710    2.4680    2.2620 c1        1 533     -0.193000
     29 N28         6.3380    3.2920    2.5550 n2        1 533     -0.108000
     30 N27         5.2320    2.5260    2.7580 n2        1 533      0.030000
     31 H18        -7.6340    1.5140   -1.3190 ha        1 533      0.159000
     32 H17        -5.4930    1.4140   -0.3360 ha        1 533      0.185000
     33 H20        -6.0140    0.5370   -4.9290 ha        1 533      0.167000
     34 H24        -1.9700   -2.0000    2.3190 h1        1 533      0.103667
     35 H24A       -2.8580   -2.9880    1.4500 h1        1 533      0.103667
     36 H24B       -1.2800   -3.1730    1.5060 h1        1 533      0.103667
     37 H13        -1.0370    0.0560   -2.8120 ha        1 533      0.165000
     38 H6          0.7400    1.3080   -1.6450 h4        1 533      0.176000
     39 HN1         2.5140   -1.2830    2.5190 hn        1 533      0.246000
     40 H2          3.8930    0.6000    0.9670 h1        1 533      0.142000
     41 H26         4.3370   -1.3270   -0.1700 hc        1 533      0.093667
     42 H26A        5.6590   -1.0210    0.6840 hc        1 533      0.093667
     43 H26B        4.6100   -2.1290    1.1860 hc        1 533      0.093667
     44 H3          5.2540   -0.7030    3.0490 h1        1 533      0.125500
     45 H3A         4.0600    0.2880    3.5080 h1        1 533      0.125500
     46 H29         8.2890    2.7440    2.0690 DU        1 533      0.224000
@<TRIPOS>BOND
     1    1    2 1   
     2    2    3 1   
     3    2    5 1   
     4    3    4 1   
     5    3   31 1   
     6    4   32 1   
     7    5   33 1   
     8    6    7 1   
     9    6    8 1   
    10    8    9 1   
    11    9   10 1   
    12   10   11 1   
    13   10   17 1   
    14   11   12 1   
    15   11   13 1   
    16   13   14 1   
    17   13   15 1   
    18   14   34 1   
    19   14   35 1   
    20   14   36 1   
    21   15   16 1   
    22   15   18 1   
    23   16   21 1   
    24   17   37 1   
    25   18   19 1   
    26   19   20 1   
    27   19   38 1   
    28   21   22 1   
    29   22   23 1   
    30   22   39 1   
    31   23   24 1   
    32   23   25 1   
    33   23   40 1   
    34   24   41 1   
    35   24   42 1   
    36   24   43 1   
    37   25   26 1   
    38   25   44 1   
    39   25   45 1   
    40   26   27 1   
    41   26   30 1   
    42   27   28 1   
    43   28   29 1   
    44   29   30 1   
@<TRIPOS>SUBSTRUCTURE
     1 533         1 TEMP              0 ****  ****    0 ROOT
