@<TRIPOS>MOLECULE
534
   66    70     1     0     0
SMALL
bcc


@<TRIPOS>ATOM
      1 C26         0.9910    0.7820   -0.6560 c3        1 534     -0.088100
      2 C25         2.3490    0.2250   -0.2720 c3        1 534     -0.025400
      3 C27         2.4870    0.1520    1.2370 c3        1 534     -0.088100
      4 C12         2.5750   -1.1150   -0.8980 ca        1 534     -0.063300
      5 C13         3.6290   -1.2990   -1.8010 ca        1 534     -0.136500
      6 C14         3.8440   -2.5410   -2.3950 ca        1 534     -0.095000
      7 C11         1.7400   -2.1990   -0.5990 ca        1 534     -0.136500
      8 C10         1.9530   -3.4430   -1.1850 ca        1 534     -0.095000
      9 C5          3.0120   -3.6230   -2.0830 cp        1 534     -0.145500
     10 C3          3.2260   -4.9290   -2.7310 cp        1 534      0.350500
     11 N1          3.1560   -4.9790   -4.0840 nb        1 534     -0.614000
     12 C2          3.3170   -6.1760   -4.6720 ca        1 534      0.262900
     13 C1          3.5530   -7.3510   -3.9160 ca        1 534      0.303900
     14 N2          3.6500   -7.3300   -2.5790 nb        1 534     -0.674000
     15 C4          3.4920   -6.1220   -1.9520 ca        1 534      0.499900
     16 N3          3.5320   -6.0260   -0.5270 nh        1 534     -0.716300
     17 C9          4.7300   -5.3540   -0.0280 c3        1 534      0.164300
     18 C8          4.6660   -5.1230    1.4990 c3        1 534      0.221800
     19 C6          3.2580   -7.2630    0.1990 c3        1 534      0.164300
     20 C7          3.1840   -7.0210    1.7240 c3        1 534      0.221800
     21 N4          4.3190   -6.3040    2.2460 n3        1 534     -0.817500
     22 S1          5.1510   -6.7940    3.5560 sy        1 534      1.508200
     23 O1          4.9640   -8.1810    3.7460 o         1 534     -0.650800
     24 O2          6.4830   -6.3310    3.4720 o         1 534     -0.650800
     25 C15         4.3900   -5.9780    4.8290 ca        1 534     -0.368500
     26 C20         3.3610   -6.5880    5.5520 ca        1 534     -0.017000
     27 C16         4.8090   -4.6950    5.2020 ca        1 534     -0.022000
     28 C17         4.2040   -4.0330    6.2660 ca        1 534     -0.151000
     29 C18         3.1720   -4.6450    6.9740 ca        1 534     -0.067000
     30 C19         2.7410   -5.9350    6.6260 cp        1 534     -0.032000
     31 C21         1.6750   -6.5810    7.3670 cp        1 534     -0.344600
     32 C22         1.5250   -6.4190    8.7650 ca        1 534      0.483700
     33 N5          0.5530   -6.9940    9.4800 nb        1 534     -0.751000
     34 C23        -0.3540   -7.7840    8.7700 ca        1 534      0.879900
     35 N7         -1.4290   -8.3210    9.4640 nv        1 534     -0.934500
     36 N6         -0.2770   -8.0240    7.3970 nb        1 534     -0.751000
     37 C24         0.7210   -7.4190    6.7440 ca        1 534      0.483700
     38 H261        0.8570    1.7980   -0.2120 hc        1 534      0.036700
     39 H262        0.1740    0.1200   -0.2820 hc        1 534      0.036700
     40 H263        0.9030    0.8620   -1.7660 hc        1 534      0.036700
     41 H25         3.1370    0.9380   -0.6570 hc        1 534      0.051700
     42 H271        1.7200   -0.5350    1.6690 hc        1 534      0.036700
     43 H272        2.3450    1.1670    1.6820 hc        1 534      0.036700
     44 H273        3.4990   -0.2240    1.5180 hc        1 534      0.036700
     45 H13         4.2910   -0.4570   -2.0520 ha        1 534      0.134000
     46 H11         0.9040   -2.0640    0.1040 ha        1 534      0.134000
     47 H14         4.6650   -2.6690   -3.1180 ha        1 534      0.141500
     48 H10         1.2900   -4.2880   -0.9420 ha        1 534      0.141500
     49 H2          3.2510   -6.1990   -5.7720 h4        1 534      0.036100
     50 H1          3.6760   -8.3350   -4.4000 h4        1 534      0.034100
     51 H91C        4.8050   -4.3470   -0.5260 h1        1 534      0.058200
     52 H92C        5.6620   -5.9420   -0.2690 h1        1 534      0.058200
     53 H61C        4.0340   -8.0560   -0.0020 h1        1 534      0.058200
     54 H62C        2.2580   -7.6530   -0.1370 h1        1 534      0.058200
     55 H81C        3.9060   -4.3140    1.7070 h1        1 534      0.060450
     56 H82C        5.6820   -4.7580    1.8280 h1        1 534      0.060450
     57 H71C        2.2420   -6.4440    1.9540 h1        1 534      0.060450
     58 H72C        3.1190   -8.0310    2.2240 h1        1 534      0.060450
     59 H20         3.0510   -7.6140    5.2840 ha        1 534      0.154000
     60 H16         5.6400   -4.2170    4.6530 ha        1 534      0.152000
     61 H17         4.5420   -3.0250    6.5510 ha        1 534      0.142000
     62 H18         2.6890   -4.1140    7.8090 ha        1 534      0.139000
     63 H22         2.2380   -5.8000    9.3430 h4        1 534      0.028600
     64 H24         0.7620   -7.6140    5.6550 h4        1 534      0.028600
     65 H71N       -1.9590   -9.0340    9.0210 hn        1 534      0.438800
     66 H72N       -1.3890   -8.3230   10.4550 hn        1 534      0.438800
@<TRIPOS>BOND
     1    1    2 1   
     2    1   38 1   
     3    1   39 1   
     4    1   40 1   
     5    2    3 1   
     6    2    4 1   
     7    2   41 1   
     8    3   42 1   
     9    3   43 1   
    10    3   44 1   
    11    4    5 ar  
    12    4    7 ar  
    13    5    6 ar  
    14    5   45 1   
    15    6    9 ar  
    16    6   47 1   
    17    7    8 ar  
    18    7   46 1   
    19    8    9 ar  
    20    8   48 1   
    21    9   10 1   
    22   10   11 ar  
    23   10   15 ar  
    24   11   12 ar  
    25   12   13 ar  
    26   12   49 1   
    27   13   14 ar  
    28   13   50 1   
    29   14   15 ar  
    30   15   16 1   
    31   16   17 1   
    32   16   19 1   
    33   17   18 1   
    34   17   51 1   
    35   17   52 1   
    36   18   21 1   
    37   18   55 1   
    38   18   56 1   
    39   19   20 1   
    40   19   53 1   
    41   19   54 1   
    42   20   21 1   
    43   20   57 1   
    44   20   58 1   
    45   21   22 1   
    46   22   23 2   
    47   22   24 2   
    48   22   25 1   
    49   25   26 ar  
    50   25   27 ar  
    51   26   30 ar  
    52   26   59 1   
    53   27   28 ar  
    54   27   60 1   
    55   28   29 ar  
    56   28   61 1   
    57   29   30 ar  
    58   29   62 1   
    59   30   31 1   
    60   31   32 ar  
    61   31   37 ar  
    62   32   33 ar  
    63   32   63 1   
    64   33   34 ar  
    65   34   35 1   
    66   34   36 ar  
    67   35   65 1   
    68   35   66 1   
    69   36   37 ar  
    70   37   64 1   
@<TRIPOS>SUBSTRUCTURE
     1 534         1 TEMP              0 ****  ****    0 ROOT
