@<TRIPOS>MOLECULE
534
   66    70     1     0     0
SMALL
bcc


@<TRIPOS>ATOM
      1 C26         0.9780    0.7900   -0.6330 c3        1 534     -0.088100
      2 C25         2.3380    0.2350   -0.2540 c3        1 534     -0.025400
      3 C27         2.4790    0.1570    1.2540 c3        1 534     -0.088100
      4 C12         2.5650   -1.1030   -0.8850 ca        1 534     -0.063300
      5 C13         3.6170   -1.2830   -1.7910 ca        1 534     -0.136500
      6 C14         3.8330   -2.5220   -2.3890 ca        1 534     -0.095000
      7 C11         1.7320   -2.1890   -0.5870 ca        1 534     -0.136500
      8 C10         1.9450   -3.4310   -1.1790 ca        1 534     -0.095000
      9 C5          3.0030   -3.6060   -2.0790 cp        1 534     -0.145500
     10 C3          3.2170   -4.9100   -2.7320 cp        1 534      0.350500
     11 N1          3.1450   -4.9550   -4.0850 nb        1 534     -0.614000
     12 C2          3.3060   -6.1500   -4.6770 ca        1 534      0.262900
     13 C1          3.5460   -7.3270   -3.9250 ca        1 534      0.303900
     14 N2          3.6460   -7.3110   -2.5890 nb        1 534     -0.674000
     15 C4          3.4870   -6.1050   -1.9580 ca        1 534      0.499900
     16 N3          3.5300   -6.0140   -0.5320 nh        1 534     -0.716300
     17 C9          4.7280   -5.3420   -0.0330 c3        1 534      0.164300
     18 C8          4.6660   -5.1160    1.4940 c3        1 534      0.221800
     19 C6          3.2590   -7.2540    0.1900 c3        1 534      0.164300
     20 C7          3.1880   -7.0180    1.7160 c3        1 534      0.221800
     21 N4          4.3230   -6.3010    2.2380 n3        1 534     -0.817500
     22 S1          5.1580   -6.7930    3.5450 sy        1 534      1.508200
     23 O1          4.9760   -8.1820    3.7290 o         1 534     -0.650800
     24 O2          6.4890   -6.3270    3.4600 o         1 534     -0.650800
     25 C15         4.3970   -5.9850    4.8220 ca        1 534     -0.368500
     26 C20         3.3700   -6.6010    5.5440 ca        1 534     -0.017000
     27 C16         4.8130   -4.7030    5.2000 ca        1 534     -0.022000
     28 C17         4.2080   -4.0470    6.2690 ca        1 534     -0.151000
     29 C18         3.1780   -4.6650    6.9750 ca        1 534     -0.067000
     30 C19         2.7500   -5.9540    6.6210 cp        1 534     -0.032000
     31 C21         1.6870   -6.6060    7.3620 cp        1 534     -0.344600
     32 C22         1.5390   -6.4510    8.7600 ca        1 534      0.483700
     33 N5          0.5690   -7.0320    9.4740 nb        1 534     -0.751000
     34 C23        -0.3370   -7.8210    8.7620 ca        1 534      0.879900
     35 N7         -1.4100   -8.3650    9.4550 nh        1 534     -0.934500
     36 N6         -0.2610   -8.0550    7.3880 nb        1 534     -0.751000
     37 C24         0.7340   -7.4440    6.7360 ca        1 534      0.483700
     38 H261        0.1620    0.1260   -0.2590 hc        1 534      0.036700
     39 H262        0.8860    0.8740   -1.7420 hc        1 534      0.036700
     40 H263        0.8430    1.8040   -0.1850 hc        1 534      0.036700
     41 H25         3.1230    0.9500   -0.6380 hc        1 534      0.051700
     42 H271        2.3370    1.1700    1.7030 hc        1 534      0.036700
     43 H272        3.4930   -0.2180    1.5320 hc        1 534      0.036700
     44 H273        1.7150   -0.5330    1.6870 hc        1 534      0.036700
     45 H13         4.2760   -0.4380   -2.0410 ha        1 534      0.134000
     46 H11         0.8970   -2.0580    0.1180 ha        1 534      0.134000
     47 H14         4.6520   -2.6470   -3.1140 ha        1 534      0.141500
     48 H10         1.2850   -4.2770   -0.9360 ha        1 534      0.141500
     49 H2          3.2380   -6.1700   -5.7770 h4        1 534      0.036100
     50 H1          3.6700   -8.3090   -4.4140 h4        1 534      0.034100
     51 H91C        5.6600   -5.9270   -0.2790 h1        1 534      0.058200
     52 H92C        4.8000   -4.3320   -0.5280 h1        1 534      0.058200
     53 H61C        4.0360   -8.0450   -0.0150 h1        1 534      0.058200
     54 H62C        2.2590   -7.6450   -0.1460 h1        1 534      0.058200
     55 H81C        3.9060   -4.3090    1.7070 h1        1 534      0.060450
     56 H82C        5.6820   -4.7510    1.8230 h1        1 534      0.060450
     57 H71C        2.2450   -6.4430    1.9500 h1        1 534      0.060450
     58 H72C        3.1270   -8.0290    2.2120 h1        1 534      0.060450
     59 H20         3.0630   -7.6270    5.2710 ha        1 534      0.154000
     60 H16         5.6420   -4.2210    4.6530 ha        1 534      0.152000
     61 H17         4.5440   -3.0400    6.5570 ha        1 534      0.142000
     62 H18         2.6950   -4.1390    7.8130 ha        1 534      0.139000
     63 H22         2.2500   -5.8320    9.3400 h4        1 534      0.028600
     64 H24         0.7750   -7.6350    5.6460 h4        1 534      0.028600
     65 H71N       -1.3680   -8.3700   10.4460 hn        1 534      0.438800
     66 H72N       -1.9380   -9.0770    9.0100 hn        1 534      0.438800
@<TRIPOS>BOND
     1    1    2 1   
     2    1   38 1   
     3    1   39 1   
     4    1   40 1   
     5    2    3 1   
     6    2    4 1   
     7    2   41 1   
     8    3   42 1   
     9    3   43 1   
    10    3   44 1   
    11    4    5 ar  
    12    4    7 ar  
    13    5    6 ar  
    14    5   45 1   
    15    6    9 ar  
    16    6   47 1   
    17    7    8 ar  
    18    7   46 1   
    19    8    9 ar  
    20    8   48 1   
    21    9   10 1   
    22   10   11 ar  
    23   10   15 ar  
    24   11   12 ar  
    25   12   13 ar  
    26   12   49 1   
    27   13   14 ar  
    28   13   50 1   
    29   14   15 ar  
    30   15   16 1   
    31   16   17 1   
    32   16   19 1   
    33   17   18 1   
    34   17   51 1   
    35   17   52 1   
    36   18   21 1   
    37   18   55 1   
    38   18   56 1   
    39   19   20 1   
    40   19   53 1   
    41   19   54 1   
    42   20   21 1   
    43   20   57 1   
    44   20   58 1   
    45   21   22 1   
    46   22   23 2   
    47   22   24 2   
    48   22   25 1   
    49   25   26 ar  
    50   25   27 ar  
    51   26   30 ar  
    52   26   59 1   
    53   27   28 ar  
    54   27   60 1   
    55   28   29 ar  
    56   28   61 1   
    57   29   30 ar  
    58   29   62 1   
    59   30   31 1   
    60   31   32 ar  
    61   31   37 ar  
    62   32   33 ar  
    63   32   63 1   
    64   33   34 ar  
    65   34   35 1   
    66   34   36 ar  
    67   35   65 1   
    68   35   66 1   
    69   36   37 ar  
    70   37   64 1   
@<TRIPOS>SUBSTRUCTURE
     1 534         1 TEMP              0 ****  ****    0 ROOT
