@<TRIPOS>MOLECULE
534
   66    61     1     0     0
SMALL
bcc


@<TRIPOS>ATOM
      1 C26         0.0580   -7.5330   -0.2900 c3        1 534     -0.206000
      2 C25         1.1030   -7.0580    0.6460 c3        1 534     -0.073000
      3 C27         0.4610   -6.6810    2.0210 c3        1 534     -0.206000
      4 C12         1.8090   -5.7840    0.0290 c2        1 534     -0.053000
      5 C13         1.4120   -5.3110   -1.2260 c2        1 534     -0.135000
      6 C14         1.9600   -4.1310   -1.7420 c1        1 534     -0.087000
      7 C11         2.7430   -5.0900    0.7650 c1        1 534     -0.138000
      8 C10         3.3030   -3.9010    0.2560 c1        1 534     -0.102000
      9 C5          2.9040   -3.4250   -1.0060 c1        1 534     -0.041000
     10 C3          3.4560   -2.1120   -1.5380 c2        1 534     -0.017000
     11 N1          4.5180   -2.1220   -2.3870 n2        1 534     -0.088000
     12 C2          5.1360   -0.9730   -2.7050 c1        1 534     -0.136000
     13 C1          4.6880    0.2320   -2.1630 c1        1 534     -0.098000
     14 N2          3.6390    0.2430   -1.3250 n1        1 534     -0.150000
     15 C4          3.0140   -0.9190   -1.0030 c1        1 534      0.042000
     16 N3          1.7640   -0.8860   -0.1940 n3        1 534     -0.205000
     17 C9          0.7030   -0.3430   -0.9730 c3        1 534     -0.077000
     18 C8         -0.5550   -0.1380   -0.1690 c3        1 534     -0.010500
     19 C6          1.9960   -0.1480    1.0000 c3        1 534     -0.077000
     20 C7          0.7380    0.0530    1.8050 c3        1 534     -0.010500
     21 N4         -0.3170    0.5930    1.0290 n3        1 534     -0.834000
     22 S1         -1.5780    1.4190    1.7780 s4        1 534      2.061800
     23 O1         -1.6050    1.1500    3.2190 o         1 534     -0.537400
     24 O2         -2.8290    0.9100    1.3780 o         1 534     -0.537400
     25 C15        -1.4550    3.1760    1.4480 c1        1 534     -0.817000
     26 C20        -2.4810    3.8290    0.7410 c2        1 534     -0.018000
     27 C16        -0.4480    3.9160    2.0480 c1        1 534     -0.023000
     28 C17        -0.4490    5.3090    1.9500 c1        1 534     -0.109000
     29 C18        -1.4670    5.9630    1.2470 c1        1 534     -0.109000
     30 C19        -2.4810    5.2240    0.6440 c1        1 534     -0.030000
     31 C21        -3.5140    5.9080   -0.1650 c2        1 534     -0.219000
     32 C22        -3.2140    6.3670   -1.4040 c2        1 534      0.017000
     33 N5         -4.1620    6.9820   -2.1390 n1        1 534     -0.228000
     34 C23        -5.4260    7.1390   -1.6300 c1        1 534      0.163000
     35 N7         -6.4070    7.8310   -2.3660 n3        1 534     -0.336000
     36 N6         -5.7200    6.6780   -0.3910 n1        1 534     -0.225000
     37 C24        -4.7830    6.0690    0.3390 c1        1 534      0.020000
     38 H261        0.4470   -7.6650   -1.1560 hc        1 534      0.076833
     39 H262       -0.3220   -8.4050    0.0420 hc        1 534      0.076833
     40 H263       -0.6890   -6.8350   -0.3560 hc        1 534      0.076833
     41 H25         1.7860   -7.7950    0.7850 hc        1 534      0.091000
     42 H271       -0.0620   -5.8290    1.9270 hc        1 534      0.076833
     43 H272        1.1920   -6.5540    2.7060 hc        1 534      0.076833
     44 H273       -0.1540   -7.4220    2.3200 hc        1 534      0.076833
     45 H13         0.7550   -5.8020   -1.7380 ha        1 534      0.136000
     46 H11         3.0220   -5.4300    1.6600 ha        1 534      0.134000
     47 H14         1.6770   -3.8060   -2.6210 ha        1 534      0.144000
     48 H10         3.9760   -3.4040    0.7880 ha        1 534      0.139000
     49 H2          5.9210   -0.9810   -3.3340 ha        1 534      0.173000
     50 H1          5.1300    1.0570   -2.3910 ha        1 534      0.171000
     51 H91C        0.9860    0.5070   -1.3340 h1        1 534      0.094250
     52 H92C        0.5070   -0.9620   -1.7220 h1        1 534      0.094250
     53 H61C        2.6400   -0.6160    1.5370 h1        1 534      0.094250
     54 H62C        2.3730    0.7570    0.7520 h1        1 534      0.094250
     55 H81C       -0.9530   -1.0380    0.0630 h1        1 534      0.102000
     56 H82C       -1.2030    0.3660   -0.7200 h1        1 534      0.102000
     57 H71C        0.4530   -0.8170    2.1730 h1        1 534      0.102000
     58 H72C        0.9290    0.6610    2.5430 h1        1 534      0.102000
     59 H20        -3.2600    3.2590    0.2770 ha        1 534      0.151000
     60 H16         0.2410    3.4770    2.5230 ha        1 534      0.153000
     61 H17         0.2740    5.8360    2.3800 ha        1 534      0.140500
     62 H18        -1.4650    6.9290    1.1810 ha        1 534      0.140500
     63 H22        -2.2990    6.2520   -1.7680 h4        1 534      0.164000
     64 H24        -4.9940    5.7470    1.2100 ha        1 534      0.173000
     65 H71N       -7.2210    7.9090   -2.0440 hn        1 534      0.236000
     66 H72N       -6.2070    8.1670   -3.2130 hn        1 534      0.236000
@<TRIPOS>BOND
     1    1    2 1   
     2    1   38 1   
     3    1   39 1   
     4    1   40 1   
     5    2    3 1   
     6    2    4 1   
     7    2   41 1   
     8    3   42 1   
     9    3   43 1   
    10    3   44 1   
    11    4    5 1   
    12    4    7 1   
    13    5    6 1   
    14    5   45 1   
    15    6   47 1   
    16    7   46 1   
    17    8    9 1   
    18    8   48 1   
    19    9   10 1   
    20   10   11 1   
    21   10   15 1   
    22   11   12 1   
    23   12   49 1   
    24   13   14 1   
    25   13   50 1   
    26   15   16 1   
    27   16   17 1   
    28   16   19 1   
    29   17   18 1   
    30   17   51 1   
    31   17   52 1   
    32   18   21 1   
    33   18   55 1   
    34   18   56 1   
    35   19   20 1   
    36   19   53 1   
    37   19   54 1   
    38   20   21 1   
    39   20   57 1   
    40   20   58 1   
    41   21   22 1   
    42   22   23 1   
    43   22   24 1   
    44   25   26 1   
    45   25   27 1   
    46   26   30 1   
    47   26   59 1   
    48   27   60 1   
    49   28   29 1   
    50   28   61 1   
    51   29   62 1   
    52   30   31 1   
    53   31   32 1   
    54   31   37 1   
    55   32   33 1   
    56   32   63 1   
    57   34   35 1   
    58   34   36 1   
    59   35   65 1   
    60   35   66 1   
    61   37   64 1   
@<TRIPOS>SUBSTRUCTURE
     1 534         1 TEMP              0 ****  ****    0 ROOT
