@<TRIPOS>MOLECULE
534
   67    71     1     0     0
SMALL
bcc


@<TRIPOS>ATOM
      1 C26         1.4970    1.0880   -0.9960 c3        1 534     -0.087600
      2 C25         2.7560    0.4160   -0.4810 c3        1 534     -0.026400
      3 C27         2.7400    0.3470    1.0350 c3        1 534     -0.087600
      4 C12         2.9200   -0.9450   -1.0810 ca        1 534     -0.062300
      5 C13         4.0300   -1.2270   -1.8850 ca        1 534     -0.137000
      6 C14         4.1850   -2.4860   -2.4630 ca        1 534     -0.095500
      7 C11         1.9680   -1.9470   -0.8610 ca        1 534     -0.137000
      8 C10         2.1190   -3.2090   -1.4310 ca        1 534     -0.095500
      9 C5          3.2340   -3.4860   -2.2310 cp        1 534     -0.148500
     10 C3          3.3840   -4.8070   -2.8660 cp        1 534      0.357500
     11 N1          3.4130   -4.8550   -4.2220 nb        1 534     -0.610000
     12 C2          3.5240   -6.0620   -4.8000 ca        1 534      0.274900
     13 C1          3.6100   -7.2510   -4.0310 ca        1 534      0.303900
     14 N2          3.6040   -7.2340   -2.6920 nb        1 534     -0.673000
     15 C4          3.4920   -6.0150   -2.0770 ca        1 534      0.485900
     16 N3          3.4340   -5.9190   -0.6490 nh        1 534     -0.714300
     17 C9          4.6550   -5.3700   -0.0650 c3        1 534      0.164300
     18 C8          4.5020   -5.1220    1.4520 c3        1 534      0.217300
     19 C6          2.9980   -7.1260    0.0450 c3        1 534      0.164300
     20 C7          2.8280   -6.8750    1.5600 c3        1 534      0.217300
     21 N4          3.9780   -6.2570    2.1750 n3        1 534     -0.824500
     22 S1          4.6450   -6.8030    3.5350 sy        1 534      1.502200
     23 O1          4.3520   -8.1710    3.7370 o         1 534     -0.641300
     24 O2          5.9890   -6.4030    3.6310 o         1 534     -0.641300
     25 C15         3.7850   -5.9570    4.7650 ca        1 534     -0.340500
     26 C20         2.9930   -6.6710    5.6660 ca        1 534      0.007000
     27 C16         3.9140   -4.5750    4.9240 ca        1 534      0.023000
     28 C17         3.2570   -3.9130    5.9640 ca        1 534     -0.145000
     29 C18         2.4710   -4.6300    6.8600 ca        1 534     -0.045000
     30 C19         2.3370   -6.0240    6.7230 cp        1 534     -0.121000
     31 C21         1.5460   -6.7870    7.6640 cp        1 534     -0.150600
     32 C22         0.3950   -6.2480    8.2990 ca        1 534      0.442700
     33 N5         -0.3500   -6.9400    9.1780 nb        1 534     -0.646500
     34 C23         0.0770   -8.2220    9.4270 ca        1 534      0.650900
     35 N7         -0.7320   -9.0120   10.3980 n4        1 534     -0.808300
     36 N6          1.1650   -8.8560    8.8810 nb        1 534     -0.646500
     37 C24         1.8810   -8.1250    8.0090 ca        1 534      0.442700
     38 H261        1.5240    1.1640   -2.1090 hc        1 534      0.036867
     39 H262        0.5910    0.5060   -0.7020 hc        1 534      0.036867
     40 H263        1.4130    2.1170   -0.5690 hc        1 534      0.036867
     41 H25         3.6380    1.0520   -0.7880 hc        1 534      0.056700
     42 H271        1.8770   -0.2640    1.3920 hc        1 534      0.036867
     43 H272        3.6830   -0.1130    1.4140 hc        1 534      0.036867
     44 H273        2.6470    1.3750    1.4610 hc        1 534      0.036867
     45 H13         4.7840   -0.4470   -2.0760 ha        1 534      0.135000
     46 H11         1.0840   -1.7320   -0.2410 ha        1 534      0.135000
     47 H14         5.0500   -2.6890   -3.1130 ha        1 534      0.142000
     48 H10         1.3620   -3.9880   -1.2550 ha        1 534      0.142000
     49 H2          3.5400   -6.0830   -5.9020 h4        1 534      0.043100
     50 H1          3.6930   -8.2430   -4.5100 h4        1 534      0.039100
     51 H91C        4.8660   -4.3770   -0.5550 h1        1 534      0.063200
     52 H92C        5.5390   -6.0490   -0.2360 h1        1 534      0.063200
     53 H61C        1.9960   -7.4280   -0.3690 h1        1 534      0.063200
     54 H62C        3.7140   -7.9860   -0.0980 h1        1 534      0.063200
     55 H81C        5.5220   -4.8590    1.8570 h1        1 534      0.061200
     56 H82C        3.8130   -4.2410    1.6060 h1        1 534      0.061200
     57 H71C        2.6370   -7.8740    2.0490 h1        1 534      0.061200
     58 H72C        1.9270   -6.2150    1.7210 h1        1 534      0.061200
     59 H20         2.8890   -7.7650    5.5320 ha        1 534      0.165000
     60 H16         4.5500   -4.0020    4.2260 ha        1 534      0.160000
     61 H17         3.3690   -2.8230    6.0790 ha        1 534      0.161000
     62 H18         1.9710   -4.1040    7.6880 ha        1 534      0.140000
     63 H22         0.0460   -5.2150    8.0900 h4        1 534      0.077600
     64 H24         2.7660   -8.6360    7.5730 h4        1 534      0.077600
     65 H71N       -1.6960   -9.0840   10.0510 hn        1 534      0.480133
     66 H72N       -0.7300   -8.5310   11.3060 hn        1 534      0.480133
     67 H73        -0.3310   -9.9530   10.5050 hn        1 534      0.480133
@<TRIPOS>BOND
     1    1    2 1   
     2    1   38 1   
     3    1   39 1   
     4    1   40 1   
     5    2    3 1   
     6    2    4 1   
     7    2   41 1   
     8    3   42 1   
     9    3   43 1   
    10    3   44 1   
    11    4    5 ar  
    12    4    7 ar  
    13    5    6 ar  
    14    5   45 1   
    15    6    9 ar  
    16    6   47 1   
    17    7    8 ar  
    18    7   46 1   
    19    8    9 ar  
    20    8   48 1   
    21    9   10 1   
    22   10   11 ar  
    23   10   15 ar  
    24   11   12 ar  
    25   12   13 ar  
    26   12   49 1   
    27   13   14 ar  
    28   13   50 1   
    29   14   15 ar  
    30   15   16 1   
    31   16   17 1   
    32   16   19 1   
    33   17   18 1   
    34   17   51 1   
    35   17   52 1   
    36   18   21 1   
    37   18   55 1   
    38   18   56 1   
    39   19   20 1   
    40   19   53 1   
    41   19   54 1   
    42   20   21 1   
    43   20   57 1   
    44   20   58 1   
    45   21   22 1   
    46   22   23 2   
    47   22   24 2   
    48   22   25 1   
    49   25   26 ar  
    50   25   27 ar  
    51   26   30 ar  
    52   26   59 1   
    53   27   28 ar  
    54   27   60 1   
    55   28   29 ar  
    56   28   61 1   
    57   29   30 ar  
    58   29   62 1   
    59   30   31 1   
    60   31   32 ar  
    61   31   37 ar  
    62   32   33 ar  
    63   32   63 1   
    64   33   34 ar  
    65   34   35 1   
    66   34   36 ar  
    67   35   65 1   
    68   35   66 1   
    69   35   67 1   
    70   36   37 ar  
    71   37   64 1   
@<TRIPOS>SUBSTRUCTURE
     1 534         1 TEMP              0 ****  ****    0 ROOT
