@<TRIPOS>MOLECULE
534
   66    70     1     0     0
SMALL
bcc


@<TRIPOS>ATOM
      1 C26         3.9070   -5.7170   -0.9730 c3        1 534     -0.088100
      2 C25         3.6330   -4.4940   -1.8270 c3        1 534     -0.025400
      3 C27         2.2010   -4.5050   -2.3270 c3        1 534     -0.088100
      4 C12         3.9300   -3.2360   -1.0720 ca        1 534     -0.063300
      5 C13         4.9230   -2.3620   -1.5280 ca        1 534     -0.136500
      6 C14         5.2130   -1.1920   -0.8290 ca        1 534     -0.095000
      7 C11         3.2280   -2.9170    0.0970 ca        1 534     -0.136500
      8 C10         3.5100   -1.7470    0.7980 ca        1 534     -0.095000
      9 C5          4.5000   -0.8740    0.3340 cp        1 534     -0.145500
     10 C3          4.8240    0.3510    1.0850 cp        1 534      0.350500
     11 N1          6.0890    0.4840    1.5560 nb        1 534     -0.614000
     12 C2          6.3750    1.5850    2.2710 ca        1 534      0.262900
     13 C1          5.3980    2.5800    2.5280 ca        1 534      0.303900
     14 N2          4.1470    2.4890    2.0570 nb        1 534     -0.674000
     15 C4          3.8280    1.3760    1.3220 ca        1 534      0.499900
     16 N3          2.5010    1.1830    0.8280 nh        1 534     -0.716300
     17 C9          2.3990    1.3270   -0.6220 c3        1 534      0.164300
     18 C8          0.9930    0.9530   -1.1410 c3        1 534      0.221300
     19 C6          1.4510    1.9200    1.5250 c3        1 534      0.164300
     20 C7          0.0460    1.5320    1.0090 c3        1 534      0.221300
     21 N4         -0.0760    1.6010   -0.4250 n3        1 534     -0.817500
     22 S1         -1.3050    2.3600   -1.1730 sy        1 534      1.508200
     23 O1         -1.8650    3.3260   -0.3070 o         1 534     -0.650800
     24 O2         -0.8820    2.8070   -2.4450 o         1 534     -0.650800
     25 C15        -2.4440    1.1290   -1.4010 ca        1 534     -0.368500
     26 C20        -3.4630    0.9200   -0.4680 ca        1 534     -0.017000
     27 C16        -2.4050    0.3290   -2.5490 ca        1 534     -0.021000
     28 C17        -3.3570   -0.6660   -2.7530 ca        1 534     -0.151000
     29 C18        -4.3620   -0.8740   -1.8110 ca        1 534     -0.067000
     30 C19        -4.4290   -0.0780   -0.6570 cp        1 534     -0.032000
     31 C21        -5.4810   -0.2830    0.3200 cp        1 534     -0.344600
     32 C22        -6.7970   -0.6400   -0.0560 ca        1 534      0.483700
     33 N5         -7.7900   -0.8420    0.8170 nb        1 534     -0.751000
     34 C23        -7.4690   -0.6920    2.1670 ca        1 534      0.879900
     35 N7         -8.4500   -0.9830    3.1050 nh        1 534     -0.934500
     36 N6         -6.2080   -0.3180    2.6360 nb        1 534     -0.751000
     37 C24        -5.2620   -0.1310    1.7100 ca        1 534      0.483700
     38 H261        3.2440   -5.7280   -0.0740 hc        1 534      0.036700
     39 H262        3.7180   -6.6450   -1.5640 hc        1 534      0.036700
     40 H263        4.9690   -5.7220   -0.6290 hc        1 534      0.036700
     41 H25         4.3140   -4.5410   -2.7270 hc        1 534      0.051700
     42 H271        1.4850   -4.4700   -1.4710 hc        1 534      0.036700
     43 H272        2.0110   -3.6230   -2.9840 hc        1 534      0.036700
     44 H273        2.0090   -5.4360   -2.9130 hc        1 534      0.036700
     45 H13         5.4880   -2.6010   -2.4420 ha        1 534      0.134000
     46 H11         2.4500   -3.6010    0.4700 ha        1 534      0.134000
     47 H14         6.0080   -0.5210   -1.1870 ha        1 534      0.141500
     48 H10         2.9510   -1.5060    1.7150 ha        1 534      0.141500
     49 H2          7.4050    1.6740    2.6510 h4        1 534      0.036100
     50 H1          5.6330    3.4790    3.1220 h4        1 534      0.034100
     51 H91C        2.6400    2.3800   -0.9480 h1        1 534      0.058200
     52 H92C        3.1400    0.6270   -1.1020 h1        1 534      0.058200
     53 H61C        1.5020    1.6560    2.6170 h1        1 534      0.058200
     54 H62C        1.5750    3.0360    1.4240 h1        1 534      0.058200
     55 H81C        0.9440    1.2470   -2.2290 h1        1 534      0.060450
     56 H82C        0.8680   -0.1660   -1.0630 h1        1 534      0.060450
     57 H71C       -0.1880    0.4830    1.3520 h1        1 534      0.060450
     58 H72C       -0.6940    2.2400    1.4810 h1        1 534      0.060450
     59 H20        -3.5180    1.5720    0.4230 ha        1 534      0.154000
     60 H16        -1.6200    0.5060   -3.3050 ha        1 534      0.151000
     61 H17        -3.3170   -1.2880   -3.6590 ha        1 534      0.142000
     62 H18        -5.1080   -1.6680   -1.9710 ha        1 534      0.139000
     63 H22        -7.0700   -0.7590   -1.1210 h4        1 534      0.028600
     64 H24        -4.2670    0.1570    2.0990 h4        1 534      0.028600
     65 H71N       -9.3880   -1.0570    2.7890 hn        1 534      0.438800
     66 H72N       -8.2990   -0.6940    4.0420 hn        1 534      0.438800
@<TRIPOS>BOND
     1    1    2 1   
     2    1   38 1   
     3    1   39 1   
     4    1   40 1   
     5    2    3 1   
     6    2    4 1   
     7    2   41 1   
     8    3   42 1   
     9    3   43 1   
    10    3   44 1   
    11    4    5 ar  
    12    4    7 ar  
    13    5    6 ar  
    14    5   45 1   
    15    6    9 ar  
    16    6   47 1   
    17    7    8 ar  
    18    7   46 1   
    19    8    9 ar  
    20    8   48 1   
    21    9   10 1   
    22   10   11 ar  
    23   10   15 ar  
    24   11   12 ar  
    25   12   13 ar  
    26   12   49 1   
    27   13   14 ar  
    28   13   50 1   
    29   14   15 ar  
    30   15   16 1   
    31   16   17 1   
    32   16   19 1   
    33   17   18 1   
    34   17   51 1   
    35   17   52 1   
    36   18   21 1   
    37   18   55 1   
    38   18   56 1   
    39   19   20 1   
    40   19   53 1   
    41   19   54 1   
    42   20   21 1   
    43   20   57 1   
    44   20   58 1   
    45   21   22 1   
    46   22   23 2   
    47   22   24 2   
    48   22   25 1   
    49   25   26 ar  
    50   25   27 ar  
    51   26   30 ar  
    52   26   59 1   
    53   27   28 ar  
    54   27   60 1   
    55   28   29 ar  
    56   28   61 1   
    57   29   30 ar  
    58   29   62 1   
    59   30   31 1   
    60   31   32 ar  
    61   31   37 ar  
    62   32   33 ar  
    63   32   63 1   
    64   33   34 ar  
    65   34   35 1   
    66   34   36 ar  
    67   35   65 1   
    68   35   66 1   
    69   36   37 ar  
    70   37   64 1   
@<TRIPOS>SUBSTRUCTURE
     1 534         1 TEMP              0 ****  ****    0 ROOT
