@<TRIPOS>MOLECULE
535
   24    25     1     0     0
SMALL
bcc


@<TRIPOS>ATOM
      1 N1         -3.0170    1.5300   -0.0130 nc        1 535     -0.635000
      2 C2         -1.8140    0.9170   -0.0160 cd        1 535      0.388900
      3 N3         -1.9710   -0.5190   -0.0010 na        1 535     -0.149900
      4 C4         -3.3410   -0.7720    0.0150 cd        1 535     -0.249600
      5 C5         -3.9560    0.4970    0.0060 cc        1 535      0.330200
      6 C6         -0.7580   -1.1960    0.0020 cc        1 535      0.059400
      7 C7          0.3050   -0.2950   -0.0130 cd        1 535     -0.189700
      8 S8         -0.1820    1.3480   -0.0300 ss        1 535      0.043700
      9 C9         -0.6720   -2.6720    0.0030 c3        1 535     -0.060800
     10 C10         1.6980   -0.7050   -0.0110 c         1 535      0.685700
     11 O11         2.5800    0.3430    0.0000 os        1 535     -0.440900
     12 C12         3.9790   -0.0030    0.0030 c3        1 535      0.143400
     13 C13         4.7310    1.3050    0.0100 c3        1 535     -0.102100
     14 O14         2.1640   -1.8500   -0.0160 o         1 535     -0.549000
     15 H4         -3.7540   -1.7770    0.0300 h4        1 535      0.187000
     16 H5         -5.0250    0.7160    0.0110 h4        1 535      0.048100
     17 H9         -0.6590   -3.0460   -1.0530 hc        1 535      0.077033
     18 H9A         0.2810   -2.9930    0.4990 hc        1 535      0.077033
     19 H9B        -1.5370   -3.1360    0.5380 hc        1 535      0.077033
     20 H12         4.1940   -0.6190    0.9140 h1        1 535      0.053700
     21 H12A        4.1990   -0.6110   -0.9130 h1        1 535      0.053700
     22 H13         5.8270    1.0920    0.0130 hc        1 535      0.050367
     23 H13A        4.4780    1.9100   -0.8930 hc        1 535      0.050367
     24 H13B        4.4720    1.9030    0.9170 hc        1 535      0.050367
@<TRIPOS>BOND
     1    1    2 2   
     2    1    5 1   
     3    2    3 1   
     4    2    8 1   
     5    3    4 1   
     6    3    6 1   
     7    4    5 2   
     8    4   15 1   
     9    5   16 1   
    10    6    7 2   
    11    6    9 1   
    12    7    8 1   
    13    7   10 1   
    14    9   17 1   
    15    9   18 1   
    16    9   19 1   
    17   10   11 1   
    18   10   14 2   
    19   11   12 1   
    20   12   13 1   
    21   12   20 1   
    22   12   21 1   
    23   13   22 1   
    24   13   23 1   
    25   13   24 1   
@<TRIPOS>SUBSTRUCTURE
     1 535         1 TEMP              0 ****  ****    0 ROOT
