@<TRIPOS>MOLECULE
535
   24    21     1     0     0
SMALL
bcc


@<TRIPOS>ATOM
      1 N1         -4.1480   -0.7620   -0.3430 n2        1 535     -0.109000
      2 C2         -2.7940   -0.7230   -0.3400 c2        1 535     -0.277000
      3 N3         -2.3650   -0.6560    1.0020 n3        1 535     -0.110000
      4 C4         -3.4480   -0.6540    1.7810 c1        1 535     -0.160000
      5 C5         -4.5760   -0.7200    0.9540 c1        1 535     -0.135000
      6 C6         -0.7830   -0.6100    1.0190 c1        1 535      0.091000
      7 C7         -0.3140   -0.6530   -0.3400 c1        1 535     -0.439000
      8 S8         -1.5300   -0.7250   -1.2480 ss        1 535      0.628000
      9 C9          0.0880   -0.5350    2.2540 c2        1 535     -0.186000
     10 C10         1.1250   -0.5260   -0.7890 c1        1 535      0.386000
     11 O11         1.6150    0.7130   -1.2350 os        1 535     -0.279000
     12 C12         2.9830    0.6980   -1.5720 c3        1 535     -0.007000
     13 C13         3.3750    2.0410   -2.1470 c3        1 535     -0.220000
     14 O14         1.8610   -1.4920   -0.7480 o         1 535     -0.360000
     15 H4         -3.4540   -0.6140    2.7570 DU        1 535      0.186000
     16 H5         -5.5060   -0.7330    1.2520 DU        1 535      0.186000
     17 H9          0.4690    0.3650    2.3310 ha        1 535      0.116333
     18 H9A        -0.4530   -0.7290    3.0480 ha        1 535      0.116333
     19 H9B         0.8120   -1.1920    2.1840 ha        1 535      0.116333
     20 H12         3.5150    0.5170   -0.7700 h1        1 535      0.093000
     21 H12A        3.1470   -0.0030   -2.2380 h1        1 535      0.093000
     22 H13         4.3350    2.0440   -2.3440 hc        1 535      0.089667
     23 H13A        3.1740    2.7460   -1.4960 hc        1 535      0.089667
     24 H13B        2.8710    2.2040   -2.9710 hc        1 535      0.089667
@<TRIPOS>BOND
     1    1    2 1   
     2    1    5 1   
     3    2    3 1   
     4    2    8 1   
     5    3    4 1   
     6    3    6 1   
     7    4    5 1   
     8    6    7 1   
     9    7    8 1   
    10    9   17 1   
    11    9   18 1   
    12    9   19 1   
    13   10   11 1   
    14   10   14 1   
    15   11   12 1   
    16   12   13 1   
    17   12   20 1   
    18   12   21 1   
    19   13   22 1   
    20   13   23 1   
    21   13   24 1   
@<TRIPOS>SUBSTRUCTURE
     1 535         1 TEMP              0 ****  ****    0 ROOT
