@<TRIPOS>MOLECULE
537
   25    28     1     0     0
SMALL
bcc


@<TRIPOS>ATOM
      1 C1          1.1280   -0.0090    3.6770 ca        1 537     -0.104000
      2 C2          1.6310   -0.0090    2.3770 ca        1 537     -0.122000
      3 C3          0.7590   -0.0020    1.2850 ca        1 537     -0.040900
      4 C4         -0.6460    0.0050    1.4920 ca        1 537     -0.153600
      5 C5         -1.1250    0.0050    2.8090 ca        1 537     -0.077000
      6 C6         -0.2490   -0.0020    3.8930 ca        1 537     -0.141000
      7 C11         0.2240    0.0050   -1.1160 ca        1 537     -0.195900
      8 C12         0.9250   -0.0080   -2.3590 ca        1 537     -0.061200
      9 C13         0.1730   -0.0180   -3.5440 ca        1 537     -0.099000
     10 C14        -1.2130   -0.0100   -3.4160 ca        1 537     -0.122000
     11 C15        -1.8860    0.0010   -2.1730 ca        1 537     -0.078000
     12 C16        -1.1590    0.0070   -0.9890 ca        1 537     -0.103600
     13 C20        -1.6650    0.0110    0.4000 c         1 537      0.596300
     14 C21         1.2390   -0.0000   -0.0800 cc        1 537      0.374500
     15 O22        -2.8790    0.0200    0.6510 o         1 537     -0.534100
     16 N23         2.4650   -0.0100   -0.6630 nd        1 537     -0.474100
     17 N24         2.2880   -0.0550   -1.9950 na        1 537     -0.010100
     18 HC1         1.8210   -0.0150    4.5320 ha        1 537      0.137000
     19 HC2         2.7180   -0.0150    2.2040 ha        1 537      0.150000
     20 HC5        -2.2160    0.0100    2.9780 ha        1 537      0.158000
     21 HC6        -0.6480   -0.0020    4.9180 ha        1 537      0.139000
     22 H13         0.6530   -0.0320   -4.5310 ha        1 537      0.143000
     23 H14        -1.8240   -0.0130   -4.3330 ha        1 537      0.139000
     24 H15        -2.9870    0.0040   -2.1460 ha        1 537      0.156000
     25 H24         3.0610    0.1150   -2.5940 hn        1 537      0.324700
@<TRIPOS>BOND
     1    1    2 ar  
     2    1    6 ar  
     3    1   18 1   
     4    2    3 ar  
     5    2   19 1   
     6    3    4 ar  
     7    3   14 1   
     8    4    5 ar  
     9    4   13 1   
    10    5    6 ar  
    11    5   20 1   
    12    6   21 1   
    13    7    8 ar  
    14    7   12 ar  
    15    7   14 1   
    16    8    9 ar  
    17    8   17 1   
    18    9   10 ar  
    19    9   22 1   
    20   10   11 ar  
    21   10   23 1   
    22   11   12 ar  
    23   11   24 1   
    24   12   13 1   
    25   13   15 2   
    26   14   16 2   
    27   16   17 1   
    28   17   25 1   
@<TRIPOS>SUBSTRUCTURE
     1 537         1 TEMP              0 ****  ****    0 ROOT
