@<TRIPOS>MOLECULE
537
   25    18     1     0     0
SMALL
bcc


@<TRIPOS>ATOM
      1 C1         -2.9180   -0.4620   -2.2640 c1        1 537     -0.116500
      2 C2         -1.5270   -0.4620   -2.2640 c1        1 537     -0.122000
      3 C3         -0.8250   -0.4620   -1.0490 c1        1 537      0.043000
      4 C4         -1.5180   -0.4620    0.1490 c1        1 537     -0.108000
      5 C5         -2.9210   -0.4620    0.1480 c1        1 537     -0.077500
      6 C6         -3.6150   -0.4620   -1.0570 c1        1 537     -0.116500
      7 C11         1.3870   -0.4620    0.1950 c1        1 537     -0.064000
      8 C12         2.5760    0.1900   -0.0090 c1        1 537     -0.064000
      9 C13         3.1880    0.8920    1.0570 c1        1 537     -0.116500
     10 C14         2.5790    0.9200    2.3160 c1        1 537     -0.116500
     11 C15         1.3740    0.2590    2.5190 c1        1 537     -0.077500
     12 C16         0.6970   -0.4620    1.4180 c1        1 537     -0.108000
     13 C20        -0.7750   -0.4620    1.4280 c2        1 537      0.316000
     14 C21         0.6650   -0.4620   -1.0490 c1        1 537     -0.081000
     15 O22        -1.3750   -0.5670    2.4790 o         1 537     -0.295000
     16 N23         1.4820    0.1880   -1.9500 n2        1 537     -0.007000
     17 N24         2.6200    0.6040   -1.3670 n1        1 537     -0.185000
     18 HC1        -3.4050   -0.4620   -3.1100 ha        1 537      0.139500
     19 HC2        -1.0390   -0.4620   -3.1100 ha        1 537      0.150000
     20 HC5        -3.4100   -0.4620    0.9930 ha        1 537      0.157000
     21 HC6        -4.5920   -0.4620   -1.0570 ha        1 537      0.139500
     22 H13         4.0350    1.3560    0.9140 ha        1 537      0.139500
     23 H14         3.0200    1.3700    3.0620 ha        1 537      0.139500
     24 H15         0.9570    0.2840    3.4010 ha        1 537      0.157000
     25 H24         3.3400    0.9650   -1.7940 DU        1 537      0.275000
@<TRIPOS>BOND
     1    1    6 1   
     2    1   18 1   
     3    2    3 1   
     4    2   19 1   
     5    4    5 1   
     6    4   13 1   
     7    5   20 1   
     8    6   21 1   
     9    7    8 1   
    10    9   10 1   
    11    9   22 1   
    12   10   23 1   
    13   11   12 1   
    14   11   24 1   
    15   12   13 1   
    16   13   15 1   
    17   14   16 1   
    18   16   17 1   
@<TRIPOS>SUBSTRUCTURE
     1 537         1 TEMP              0 ****  ****    0 ROOT
