@<TRIPOS>MOLECULE
538
   70    74     1     0     0
SMALL
bcc


@<TRIPOS>ATOM
      1 C1         -5.2350   -0.8900   -3.3790 c3        1 538     -0.093100
      2 C2         -5.5900   -1.6470   -2.1280 c3        1 538     -0.089400
      3 C3         -5.6780   -0.7270   -0.8930 c3        1 538      0.146000
      4 N4         -4.4060   -0.1520   -0.5250 n         1 538     -0.568900
      5 C5         -4.1880    1.2100   -0.4370 c         1 538      0.686700
      6 O6         -5.0870    2.0300   -0.7220 o         1 538     -0.627100
      7 C7         -2.8230    1.6350   -0.0180 ca        1 538     -0.179600
      8 C8         -2.2000    1.0340    1.0940 ca        1 538     -0.097000
      9 C9         -0.9270    1.4030    1.4950 ca        1 538     -0.145000
     10 C10        -0.2590    2.3910    0.7520 ca        1 538     -0.014200
     11 N11         1.0040    2.9660    0.9170 na        1 538     -0.060400
     12 C12         2.0030    2.5540    1.8660 c3        1 538      0.098600
     13 C13         2.9540    1.4900    1.4060 ca        1 538     -0.147300
     14 C14         4.2960    1.8030    1.1710 ca        1 538     -0.124500
     15 C15         5.1960    0.8030    0.8160 ca        1 538     -0.119000
     16 C16         4.7740   -0.5300    0.6860 cp        1 538      0.013000
     17 C17         3.4200   -0.8340    0.8940 ca        1 538     -0.119000
     18 C18         2.5220    0.1690    1.2500 ca        1 538     -0.124500
     19 C19         5.7530   -1.5750    0.3790 cp        1 538     -0.050000
     20 C20         6.9960   -1.5150    1.0380 ca        1 538     -0.133000
     21 C21         7.9790   -2.4690    0.8020 ca        1 538     -0.171000
     22 C22         7.7370   -3.5010   -0.1070 ca        1 538     -0.140000
     23 C23         6.5130   -3.5670   -0.7620 ca        1 538     -0.122000
     24 C24         5.5080   -2.6170   -0.5280 ca        1 538     -0.072600
     25 C25         4.2050   -2.7990   -1.3030 c         1 538      0.909200
     26 O26         4.1610   -2.3730   -2.4860 o         1 538     -0.819800
     27 O27         3.2600   -3.4060   -0.7210 o         1 538     -0.819800
     28 C28         1.2030    3.8920   -0.1290 cc        1 538     -0.040300
     29 C29         2.4560    4.6510   -0.3010 c3        1 538     -0.044900
     30 C30         0.0540    3.9640   -0.9250 cd        1 538     -0.137400
     31 C31        -0.1490    4.8210   -2.0940 c3        1 538     -0.018900
     32 C32        -0.8980    3.0160   -0.3880 ca        1 538     -0.095800
     33 C33        -2.1860    2.6320   -0.7520 ca        1 538     -0.030000
     34 C34        -6.2910   -1.5170    0.2440 ca        1 538     -0.096300
     35 C35        -7.5240   -1.1260    0.7740 ca        1 538     -0.119000
     36 C36        -8.1030   -1.8540    1.8130 ca        1 538     -0.133000
     37 C37        -7.4510   -2.9710    2.3330 ca        1 538     -0.134000
     38 C38        -6.2170   -3.3600    1.8130 ca        1 538     -0.133000
     39 C39        -5.6380   -2.6360    0.7720 ca        1 538     -0.119000
     40 H1         -4.2070   -0.4610   -3.3100 hc        1 538      0.038033
     41 H1A        -5.2700   -1.5730   -4.2620 hc        1 538      0.038033
     42 H1B        -5.9530   -0.0510   -3.5520 hc        1 538      0.038033
     43 H2         -6.5910   -2.1370   -2.2520 hc        1 538      0.045200
     44 H2A        -4.8390   -2.4600   -1.9470 hc        1 538      0.045200
     45 H3         -6.3720    0.1330   -1.1530 h1        1 538      0.090700
     46 HN4        -3.6660   -0.7770   -0.3120 hn        1 538      0.316500
     47 H8         -2.7360    0.2610    1.6650 ha        1 538      0.130000
     48 H9         -0.4470    0.9250    2.3600 ha        1 538      0.138000
     49 H12         2.5870    3.4770    2.1540 h1        1 538      0.054200
     50 H12A        1.4590    2.1770    2.7820 h1        1 538      0.054200
     51 H14         4.6450    2.8410    1.2680 ha        1 538      0.118500
     52 H15         6.2480    1.0600    0.6230 ha        1 538      0.167000
     53 H17         3.0670   -1.8750    0.7420 ha        1 538      0.167000
     54 H18         1.4600   -0.0780    1.4000 ha        1 538      0.118500
     55 H20         7.1880   -0.7060    1.7580 ha        1 538      0.110000
     56 H21         8.9410   -2.4110    1.3280 ha        1 538      0.105000
     57 H22         8.5120   -4.2550   -0.3010 ha        1 538      0.107000
     58 H23         6.3120   -4.3730   -1.4840 ha        1 538      0.136000
     59 H29         3.3380    3.9600   -0.3220 hc        1 538      0.052700
     60 H29A        2.4160    5.2160   -1.2650 hc        1 538      0.052700
     61 H29B        2.5960    5.3790    0.5380 hc        1 538      0.052700
     62 H31         0.5860    4.5690   -2.9000 hc        1 538      0.036367
     63 H31A       -1.1810    4.6880   -2.5040 hc        1 538      0.036367
     64 H31B       -0.0130    5.8990   -1.8250 hc        1 538      0.036367
     65 H33        -2.6940    3.1050   -1.6060 ha        1 538      0.146000
     66 H35        -8.0370   -0.2370    0.3740 ha        1 538      0.136500
     67 H36        -9.0740   -1.5420    2.2250 ha        1 538      0.128500
     68 H37        -7.9070   -3.5430    3.1550 ha        1 538      0.125000
     69 H38        -5.6970   -4.2380    2.2240 ha        1 538      0.128500
     70 H39        -4.6650   -2.9480    0.3630 ha        1 538      0.136500
@<TRIPOS>BOND
     1    1    2 1   
     2    1   40 1   
     3    1   41 1   
     4    1   42 1   
     5    2    3 1   
     6    2   43 1   
     7    2   44 1   
     8    3    4 1   
     9    3   34 1   
    10    3   45 1   
    11    4    5 1   
    12    4   46 1   
    13    5    6 2   
    14    5    7 1   
    15    7    8 ar  
    16    7   33 ar  
    17    8    9 ar  
    18    8   47 1   
    19    9   10 ar  
    20    9   48 1   
    21   10   11 1   
    22   10   32 ar  
    23   11   12 1   
    24   11   28 1   
    25   12   13 1   
    26   12   49 1   
    27   12   50 1   
    28   13   14 ar  
    29   13   18 ar  
    30   14   15 ar  
    31   14   51 1   
    32   15   16 ar  
    33   15   52 1   
    34   16   17 ar  
    35   16   19 1   
    36   17   18 ar  
    37   17   53 1   
    38   18   54 1   
    39   19   20 ar  
    40   19   24 ar  
    41   20   21 ar  
    42   20   55 1   
    43   21   22 ar  
    44   21   56 1   
    45   22   23 ar  
    46   22   57 1   
    47   23   24 ar  
    48   23   58 1   
    49   24   25 1   
    50   25   26 1   
    51   25   27 1   
    52   28   29 1   
    53   28   30 2   
    54   29   59 1   
    55   29   60 1   
    56   29   61 1   
    57   30   31 1   
    58   30   32 1   
    59   31   62 1   
    60   31   63 1   
    61   31   64 1   
    62   32   33 ar  
    63   33   65 1   
    64   34   35 ar  
    65   34   39 ar  
    66   35   36 ar  
    67   35   66 1   
    68   36   37 ar  
    69   36   67 1   
    70   37   38 ar  
    71   37   68 1   
    72   38   39 ar  
    73   38   69 1   
    74   39   70 1   
@<TRIPOS>SUBSTRUCTURE
     1 538         1 TEMP              0 ****  ****    0 ROOT
