@<TRIPOS>MOLECULE
538
   71    75     1     0     0
SMALL
bcc


@<TRIPOS>ATOM
      1 C1         -1.1690    2.3770   -1.0790 c3        1 538     -0.122100
      2 C2          0.3300    2.3820   -0.9330 c3        1 538     -0.091400
      3 C3          0.7930    1.9480    0.4670 c3        1 538      0.193800
      4 N4          0.3650    2.9390    1.5080 ny        1 538     -0.702800
      5 C5          0.1370    2.3780    2.8690 c         1 538      0.582700
      6 O6          0.0700    1.1550    3.0000 o         1 538     -0.498100
      7 C7         -0.0830    3.3770    3.9220 ca        1 538     -0.218600
      8 C8          0.6170    4.6030    3.9250 ca        1 538     -0.065000
      9 C9          0.2630    5.6210    4.7930 ca        1 538     -0.126000
     10 C10        -0.8390    5.4190    5.6400 ca        1 538      0.003800
     11 N11        -1.5060    6.3170    6.4910 na        1 538     -0.060400
     12 C12        -1.5740    7.7370    6.2020 c3        1 538      0.083600
     13 C13        -1.3750    8.0650    4.7490 ca        1 538     -0.135300
     14 C14        -2.1590    7.4430    3.7700 ca        1 538     -0.122500
     15 C15        -1.8350    7.5730    2.4220 ca        1 538     -0.108500
     16 C16        -0.7480    8.3670    2.0330 cp        1 538     -0.015000
     17 C17        -0.0360    9.0800    3.0090 ca        1 538     -0.108500
     18 C18        -0.3390    8.9180    4.3590 ca        1 538     -0.122500
     19 C19        -0.3490    8.4430    0.6260 cp        1 538     -0.031000
     20 C20        -0.3560    9.6960   -0.0070 ca        1 538     -0.123000
     21 C21         0.0080    9.8190   -1.3440 ca        1 538     -0.139000
     22 C22         0.3940    8.6890   -2.0650 ca        1 538     -0.130000
     23 C23         0.4160    7.4440   -1.4420 ca        1 538     -0.114000
     24 C24         0.0460    7.3080   -0.0980 ca        1 538     -0.075600
     25 C25         0.1190    5.9360    0.5000 c         1 538      0.922200
     26 O26         1.2440    5.4690    0.8800 o         1 538     -0.858300
     27 O27        -0.9200    5.2070    0.5880 o         1 538     -0.858300
     28 C28        -2.5730    5.5960    7.0980 cc        1 538     -0.060300
     29 C29        -3.5180    6.2180    8.0440 c3        1 538     -0.043900
     30 C30        -2.5430    4.2590    6.7020 cd        1 538     -0.116400
     31 C31        -3.4200    3.1830    7.1670 c3        1 538     -0.027900
     32 C32        -1.4720    4.1220    5.7310 ca        1 538     -0.109800
     33 C33        -1.0760    3.1050    4.8720 ca        1 538     -0.014000
     34 C34         2.2880    1.7720    0.4710 ca        1 538     -0.142300
     35 C35         3.1340    2.8650    0.2470 ca        1 538     -0.109500
     36 C36         4.5160    2.6770    0.2230 ca        1 538     -0.132000
     37 C37         5.0550    1.4060    0.4180 ca        1 538     -0.113000
     38 C38         4.2120    0.3180    0.6440 ca        1 538     -0.132000
     39 C39         2.8300    0.4990    0.6740 ca        1 538     -0.109500
     40 H1         -1.6250    3.2780   -0.5920 hc        1 538      0.052367
     41 H1A        -1.4390    2.4080   -2.1630 hc        1 538      0.052367
     42 H1B        -1.6160    1.4560   -0.6340 hc        1 538      0.052367
     43 H2          0.7310    3.4080   -1.1600 hc        1 538      0.074200
     44 H2A         0.7910    1.6640   -1.6610 hc        1 538      0.074200
     45 H3          0.2950    0.9620    0.7210 hx        1 538      0.097700
     46 HN4        -0.5100    3.4350    1.1910 hn        1 538      0.510800
     47 H8          1.4390    4.7950    3.2120 ha        1 538      0.169000
     48 H9          0.7950    6.5850    4.7760 ha        1 538      0.162000
     49 H12        -0.7730    8.2410    6.8180 h1        1 538      0.063700
     50 H12A       -2.5760    8.1270    6.5450 h1        1 538      0.063700
     51 H14        -3.0090    6.8090    4.0650 ha        1 538      0.132000
     52 H15        -2.3930    7.0080    1.6560 ha        1 538      0.153500
     53 H17         0.7890    9.7410    2.7040 ha        1 538      0.153500
     54 H18         0.2580    9.4450    5.1190 ha        1 538      0.132000
     55 H20        -0.6580   10.5860    0.5650 ha        1 538      0.129000
     56 H21        -0.0080   10.8050   -1.8300 ha        1 538      0.127000
     57 H22         0.6830    8.7810   -3.1220 ha        1 538      0.127000
     58 H23         0.7320    6.5520   -2.0040 ha        1 538      0.133000
     59 H29        -2.9830    6.8370    8.8070 hc        1 538      0.055367
     60 H29A       -4.2440    6.8760    7.5010 hc        1 538      0.055367
     61 H29B       -4.0920    5.4160    8.5730 hc        1 538      0.055367
     62 H31        -3.2650    2.9940    8.2600 hc        1 538      0.043700
     63 H31A       -4.4960    3.4530    7.0110 hc        1 538      0.043700
     64 H31B       -3.2100    2.2350    6.6130 hc        1 538      0.043700
     65 H33        -1.5610    2.1160    4.9050 ha        1 538      0.150000
     66 H35         2.7150    3.8790    0.0930 ha        1 538      0.159500
     67 H36         5.1780    3.5380    0.0490 ha        1 538      0.140000
     68 H37         6.1460    1.2610    0.3950 ha        1 538      0.136000
     69 H38         4.6360   -0.6850    0.8010 ha        1 538      0.140000
     70 H39         2.1680   -0.3610    0.8620 ha        1 538      0.159500
     71 H42         1.0720    3.7210    1.5480 hn        1 538      0.510800
@<TRIPOS>BOND
     1    1    2 1   
     2    1   40 1   
     3    1   41 1   
     4    1   42 1   
     5    2    3 1   
     6    2   43 1   
     7    2   44 1   
     8    3    4 1   
     9    3   34 1   
    10    3   45 1   
    11    4    5 1   
    12    4   46 1   
    13    4   71 1   
    14    5    6 2   
    15    5    7 1   
    16    7    8 ar  
    17    7   33 ar  
    18    8    9 ar  
    19    8   47 1   
    20    9   10 ar  
    21    9   48 1   
    22   10   11 1   
    23   10   32 ar  
    24   11   12 1   
    25   11   28 1   
    26   12   13 1   
    27   12   49 1   
    28   12   50 1   
    29   13   14 ar  
    30   13   18 ar  
    31   14   15 ar  
    32   14   51 1   
    33   15   16 ar  
    34   15   52 1   
    35   16   17 ar  
    36   16   19 1   
    37   17   18 ar  
    38   17   53 1   
    39   18   54 1   
    40   19   20 ar  
    41   19   24 ar  
    42   20   21 ar  
    43   20   55 1   
    44   21   22 ar  
    45   21   56 1   
    46   22   23 ar  
    47   22   57 1   
    48   23   24 ar  
    49   23   58 1   
    50   24   25 1   
    51   25   26 1   
    52   25   27 1   
    53   28   29 1   
    54   28   30 2   
    55   29   59 1   
    56   29   60 1   
    57   29   61 1   
    58   30   31 1   
    59   30   32 1   
    60   31   62 1   
    61   31   63 1   
    62   31   64 1   
    63   32   33 ar  
    64   33   65 1   
    65   34   35 ar  
    66   34   39 ar  
    67   35   36 ar  
    68   35   66 1   
    69   36   37 ar  
    70   36   67 1   
    71   37   38 ar  
    72   37   68 1   
    73   38   39 ar  
    74   38   69 1   
    75   39   70 1   
@<TRIPOS>SUBSTRUCTURE
     1 538         1 TEMP              0 ****  ****    0 ROOT
