@<TRIPOS>MOLECULE
538
   71    75     1     0     0
SMALL
bcc


@<TRIPOS>ATOM
      1 C1         -1.0720    2.5190   -1.2040 c3        1 538     -0.122100
      2 C2          0.4230    2.5230   -1.0220 c3        1 538     -0.091400
      3 C3          0.8540    2.0340    0.3700 c3        1 538      0.193800
      4 N4          0.3990    2.9810    1.4390 n4        1 538     -0.702800
      5 C5          0.1390    2.3660    2.7700 c         1 538      0.582700
      6 O6          0.0740    1.1390    2.8510 o         1 538     -0.498100
      7 C7         -0.1110    3.3220    3.8560 ca        1 538     -0.218600
      8 C8          0.5830    4.5490    3.9260 ca        1 538     -0.065000
      9 C9          0.2030    5.5290    4.8250 ca        1 538     -0.126000
     10 C10        -0.9190    5.2900    5.6350 ca        1 538      0.003800
     11 N11        -1.6100    6.1510    6.5050 na        1 538     -0.060400
     12 C12        -1.6770    7.5810    6.2710 c3        1 538      0.083600
     13 C13        -1.4440    7.9680    4.8380 ca        1 538     -0.135300
     14 C14        -2.2000    7.3830    3.8150 ca        1 538     -0.122500
     15 C15        -1.8430    7.5680    2.4820 ca        1 538     -0.108500
     16 C16        -0.7490    8.3810    2.1530 cp        1 538     -0.015000
     17 C17        -0.0660    9.0560    3.1740 ca        1 538     -0.108500
     18 C18        -0.4010    8.8400    4.5080 ca        1 538     -0.122500
     19 C19        -0.3160    8.5150    0.7600 cp        1 538     -0.031000
     20 C20        -0.3120    9.7920    0.1780 ca        1 538     -0.123000
     21 C21         0.0850    9.9690   -1.1430 ca        1 538     -0.139000
     22 C22         0.4930    8.8700   -1.8990 ca        1 538     -0.130000
     23 C23         0.5050    7.6020   -1.3260 ca        1 538     -0.114000
     24 C24         0.1020    7.4100    0.0010 ca        1 538     -0.075600
     25 C25         0.1660    6.0150    0.5460 c         1 538      0.922200
     26 O26        -0.8730    5.2810    0.5790 o         1 538     -0.858300
     27 O27         1.2820    5.5380    0.9350 o         1 538     -0.858300
     28 C28        -2.6890    5.4030    7.0560 cc        1 538     -0.060300
     29 C29        -3.6600    5.9840    8.0020 c3        1 538     -0.043900
     30 C30        -2.6430    4.0830    6.6070 cd        1 538     -0.116400
     31 C31        -3.5270    2.9870    7.0070 c3        1 538     -0.027900
     32 C32        -1.5480    3.9880    5.6590 ca        1 538     -0.109800
     33 C33        -1.1260    3.0080    4.7700 ca        1 538     -0.014000
     34 C34         2.3490    1.8620    0.4020 ca        1 538     -0.142300
     35 C35         3.1960    2.9660    0.2420 ca        1 538     -0.109500
     36 C36         4.5790    2.7830    0.2430 ca        1 538     -0.132000
     37 C37         5.1190    1.5060    0.4000 ca        1 538     -0.113000
     38 C38         4.2740    0.4080    0.5620 ca        1 538     -0.132000
     39 C39         2.8910    0.5840    0.5670 ca        1 538     -0.109500
     40 H1         -1.3170    2.5920   -2.2920 hc        1 538      0.052367
     41 H1A        -1.5430    3.3980   -0.6930 hc        1 538      0.052367
     42 H1B        -1.5260    1.5790   -0.8070 hc        1 538      0.052367
     43 H2          0.8250    3.5580   -1.1990 hc        1 538      0.074200
     44 H2A         0.9040    1.8350   -1.7680 hc        1 538      0.074200
     45 H3          0.3540    1.0370    0.5720 hx        1 538      0.097700
     46 HN4        -0.4710    3.4880    1.1210 hn        1 538      0.511300
     47 H8          1.4210    4.7710    3.2410 ha        1 538      0.169000
     48 H9          0.7310    6.4950    4.8590 ha        1 538      0.162000
     49 H12        -2.6890    7.9530    6.6040 h1        1 538      0.063700
     50 H12A       -0.8940    8.0630    6.9270 h1        1 538      0.063700
     51 H14        -3.0540    6.7350    4.0630 ha        1 538      0.132000
     52 H15        -2.3790    7.0320    1.6800 ha        1 538      0.153500
     53 H17         0.7640    9.7320    2.9170 ha        1 538      0.153500
     54 H18         0.1740    9.3380    5.3030 ha        1 538      0.132000
     55 H20        -0.6320   10.6570    0.7780 ha        1 538      0.129000
     56 H21         0.0770   10.9740   -1.5900 ha        1 538      0.127000
     57 H22         0.8090    9.0060   -2.9430 ha        1 538      0.127000
     58 H23         0.8390    6.7340   -1.9150 ha        1 538      0.133000
     59 H29        -3.1460    6.5740    8.8020 hc        1 538      0.055367
     60 H29A       -4.2430    5.1590    8.4840 hc        1 538      0.055367
     61 H29B       -4.3750    6.6600    7.4680 hc        1 538      0.055367
     62 H31        -3.3980    2.7540    8.0950 hc        1 538      0.043700
     63 H31A       -4.5990    3.2580    6.8360 hc        1 538      0.043700
     64 H31B       -3.2990    2.0620    6.4210 hc        1 538      0.043700
     65 H33        -1.6070    2.0170    4.7510 ha        1 538      0.150000
     66 H35         2.7770    3.9840    0.1190 ha        1 538      0.159500
     67 H36         5.2420    3.6520    0.1200 ha        1 538      0.140000
     68 H37         6.2100    1.3660    0.3970 ha        1 538      0.136000
     69 H38         4.6980   -0.5990    0.6890 ha        1 538      0.140000
     70 H39         2.2280   -0.2850    0.7050 ha        1 538      0.159500
     71 H42         1.1010    3.7630    1.5270 hn        1 538      0.511300
@<TRIPOS>BOND
     1    1    2 1   
     2    1   40 1   
     3    1   41 1   
     4    1   42 1   
     5    2    3 1   
     6    2   43 1   
     7    2   44 1   
     8    3    4 1   
     9    3   34 1   
    10    3   45 1   
    11    4    5 1   
    12    4   46 1   
    13    4   71 1   
    14    5    6 2   
    15    5    7 1   
    16    7    8 ar  
    17    7   33 ar  
    18    8    9 ar  
    19    8   47 1   
    20    9   10 ar  
    21    9   48 1   
    22   10   11 1   
    23   10   32 ar  
    24   11   12 1   
    25   11   28 1   
    26   12   13 1   
    27   12   49 1   
    28   12   50 1   
    29   13   14 ar  
    30   13   18 ar  
    31   14   15 ar  
    32   14   51 1   
    33   15   16 ar  
    34   15   52 1   
    35   16   17 ar  
    36   16   19 1   
    37   17   18 ar  
    38   17   53 1   
    39   18   54 1   
    40   19   20 ar  
    41   19   24 ar  
    42   20   21 ar  
    43   20   55 1   
    44   21   22 ar  
    45   21   56 1   
    46   22   23 ar  
    47   22   57 1   
    48   23   24 ar  
    49   23   58 1   
    50   24   25 1   
    51   25   26 1   
    52   25   27 1   
    53   28   29 1   
    54   28   30 2   
    55   29   59 1   
    56   29   60 1   
    57   29   61 1   
    58   30   31 1   
    59   30   32 1   
    60   31   62 1   
    61   31   63 1   
    62   31   64 1   
    63   32   33 ar  
    64   33   65 1   
    65   34   35 ar  
    66   34   39 ar  
    67   35   36 ar  
    68   35   66 1   
    69   36   37 ar  
    70   36   67 1   
    71   37   38 ar  
    72   37   68 1   
    73   38   39 ar  
    74   38   69 1   
    75   39   70 1   
@<TRIPOS>SUBSTRUCTURE
     1 538         1 TEMP              0 ****  ****    0 ROOT
