@<TRIPOS>MOLECULE
538
   70    60     1     0     0
SMALL
bcc


@<TRIPOS>ATOM
      1 C1          5.0060   -6.4710   -2.3270 c3        1 538     -0.211000
      2 C2          4.7070   -5.5620   -1.1430 c3        1 538     -0.166000
      3 C3          3.2280   -5.2600   -1.0990 c3        1 538      0.059000
      4 N4          3.0310   -3.9040   -0.6790 n         1 538     -0.379000
      5 C5          1.9390   -3.1180   -1.2410 c2        1 538      0.358000
      6 O6          1.3740   -3.4960   -2.2550 o         1 538     -0.384000
      7 C7          1.5270   -1.7770   -0.5790 c2        1 538     -0.159000
      8 C8          2.2310   -0.5950   -0.7860 c1        1 538     -0.080000
      9 C9          1.8020    0.5880   -0.1830 c1        1 538     -0.143000
     10 C10         0.6570    0.5870    0.6350 c1        1 538      0.014500
     11 N11         0.0730    1.5810    1.4200 n1        1 538     -0.155000
     12 C12         0.5120    2.9490    1.6060 c2        1 538      0.034000
     13 C13        -0.4440    3.9020    0.8620 c2        1 538     -0.133000
     14 C14        -0.0800    4.4300   -0.3700 c2        1 538     -0.119000
     15 C15        -0.9270    5.3300   -1.0230 c1        1 538     -0.101000
     16 C16        -2.1290    5.6950   -0.4400 c1        1 538      0.014500
     17 C17        -2.4920    5.1650    0.7950 c1        1 538     -0.143000
     18 C18        -1.6490    4.2680    1.4440 c1        1 538     -0.138000
     19 C19        -2.9910    6.6010   -1.1020 c1        1 538     -0.052000
     20 C20        -2.8670    7.9630   -0.8780 c1        1 538     -0.137333
     21 C21        -3.7540    8.8500   -1.4810 c1        1 538     -0.137333
     22 C22        -4.7640    8.3700   -2.3080 c1        1 538     -0.137333
     23 C23        -4.8880    7.0100   -2.5310 c1        1 538     -0.137333
     24 C24        -4.0010    6.1220   -1.9280 c1        1 538     -0.053000
     25 C25        -4.1390    4.6310   -2.1720 c2        1 538      0.357000
     26 O26        -4.8200    3.9230   -1.3800 o         1 538     -0.555500
     27 O27        -3.6510    4.1190   -3.2080 o         1 538     -0.555500
     28 C28        -0.9760    1.0230    2.1020 c1        1 538      0.023000
     29 C29        -1.8380    1.4220    3.3070 c2        1 538     -0.158500
     30 C30        -1.0530   -0.3180    1.7480 c1        1 538     -0.171000
     31 C31        -2.1930   -1.2430    2.1510 c2        1 538     -0.158500
     32 C32        -0.0400   -0.5800    0.8400 c1        1 538     -0.079000
     33 C33         0.3960   -1.7800    0.2290 c2        1 538     -0.059000
     34 C34         2.5470   -6.1950   -0.1220 c2        1 538     -0.090000
     35 C35         2.9690   -6.2490    1.1930 c2        1 538     -0.126000
     36 C36         2.3030   -7.0590    2.1040 c1        1 538     -0.131000
     37 C37         1.2170   -7.8140    1.6940 c1        1 538     -0.137333
     38 C38         0.7930   -7.7600    0.3750 c1        1 538     -0.137333
     39 C39         1.4560   -6.9530   -0.5320 c1        1 538     -0.114000
     40 H1          4.3700   -7.2190   -2.3360 hc        1 538      0.074333
     41 H1A         4.9220   -5.9600   -3.1590 hc        1 538      0.074333
     42 H1B         5.9190   -6.8190   -2.2490 hc        1 538      0.074333
     43 H2          5.2050   -4.7290   -1.2400 hc        1 538      0.085000
     44 H2A         4.9750   -6.0090   -0.3120 hc        1 538      0.085000
     45 H3          2.8450   -5.3840   -1.9870 h1        1 538      0.134000
     46 HN4         3.6280   -3.5120   -0.1130 hn        1 538      0.221000
     47 H8          3.0000   -0.5850   -1.3860 ha        1 538      0.145000
     48 H9          2.2960    1.4160   -0.3290 ha        1 538      0.131000
     49 H12         0.5100    3.1670    2.5650 ha        1 538      0.088500
     50 H12A        1.4180    3.0520    1.2490 ha        1 538      0.088500
     51 H14         0.7560    4.1510   -0.7940 ha        1 538      0.136000
     52 H15        -0.6410    5.7520   -1.8580 ha        1 538      0.203000
     53 H17        -3.3420    5.4230    1.2070 ha        1 538      0.131000
     54 H18        -1.9170    3.8760    2.3010 ha        1 538      0.113000
     55 H20        -2.1350    8.3000   -0.3400 ha        1 538      0.119333
     56 H21        -3.6660    9.8110   -1.3240 ha        1 538      0.119333
     57 H22        -5.3850    8.9920   -2.7300 ha        1 538      0.119333
     58 H23        -5.5920    6.6750   -3.1070 ha        1 538      0.119333
     59 H29        -2.7250    1.7040    2.9950 ha        1 538      0.091333
     60 H29A       -1.4080    2.1650    3.7850 ha        1 538      0.091333
     61 H29B       -1.9320    0.6530    3.9120 ha        1 538      0.091333
     62 H31        -2.3120   -1.9330    1.4650 ha        1 538      0.091333
     63 H31A       -3.0240   -0.7220    2.2400 ha        1 538      0.091333
     64 H31B       -1.9820   -1.6680    3.0070 ha        1 538      0.091333
     65 H33        -0.1310   -2.5890    0.3210 ha        1 538      0.129000
     66 H35         3.7340   -5.7170    1.4810 ha        1 538      0.129000
     67 H36         2.6010   -7.0970    3.0310 ha        1 538      0.129000
     68 H37         0.7480   -8.3850    2.3360 ha        1 538      0.119333
     69 H38         0.0320   -8.2890    0.0890 ha        1 538      0.119333
     70 H39         1.1590   -6.9150   -1.4560 ha        1 538      0.139000
@<TRIPOS>BOND
     1    1    2 1   
     2    1   40 1   
     3    1   41 1   
     4    1   42 1   
     5    2    3 1   
     6    2   43 1   
     7    2   44 1   
     8    3    4 1   
     9    3   34 1   
    10    3   45 1   
    11    4    5 1   
    12    4   46 1   
    13    5    6 1   
    14    5    7 1   
    15    7    8 1   
    16    7   33 1   
    17    8   47 1   
    18    9   10 1   
    19    9   48 1   
    20   11   28 1   
    21   12   13 1   
    22   12   49 1   
    23   12   50 1   
    24   13   14 1   
    25   13   18 1   
    26   14   15 1   
    27   14   51 1   
    28   15   52 1   
    29   16   17 1   
    30   17   53 1   
    31   18   54 1   
    32   19   24 1   
    33   20   21 1   
    34   20   55 1   
    35   21   56 1   
    36   22   23 1   
    37   22   57 1   
    38   23   58 1   
    39   24   25 1   
    40   25   26 1   
    41   25   27 1   
    42   28   30 1   
    43   29   59 1   
    44   29   60 1   
    45   29   61 1   
    46   30   32 1   
    47   31   62 1   
    48   31   63 1   
    49   31   64 1   
    50   32   33 1   
    51   33   65 1   
    52   34   35 1   
    53   34   39 1   
    54   35   36 1   
    55   35   66 1   
    56   36   67 1   
    57   37   38 1   
    58   37   68 1   
    59   38   69 1   
    60   39   70 1   
@<TRIPOS>SUBSTRUCTURE
     1 538         1 TEMP              0 ****  ****    0 ROOT
