@<TRIPOS>MOLECULE
538
   71    75     1     0     0
SMALL
bcc


@<TRIPOS>ATOM
      1 C1         -1.2270    2.4580   -1.1200 c3        1 538     -0.122100
      2 C2          0.2740    2.4500   -0.9920 c3        1 538     -0.091400
      3 C3          0.7500    1.9840    0.3930 c3        1 538      0.193800
      4 N4          0.3420    2.9550    1.4590 n4        1 538     -0.702800
      5 C5          0.1240    2.3680    2.8100 c         1 538      0.582700
      6 O6          0.0510    1.1430    2.9170 o         1 538     -0.498100
      7 C7         -0.0790    3.3460    3.8860 ca        1 538     -0.218600
      8 C8          0.6280    4.5680    3.9080 ca        1 538     -0.065000
      9 C9          0.2890    5.5690    4.8000 ca        1 538     -0.126000
     10 C10        -0.8060    5.3560    5.6540 ca        1 538      0.003800
     11 N11        -1.4590    6.2390    6.5310 na        1 538     -0.060400
     12 C12        -1.5210    7.6650    6.2730 c3        1 538      0.083600
     13 C13        -1.3340    8.0230    4.8250 ca        1 538     -0.135300
     14 C14        -2.1310    7.4260    3.8400 ca        1 538     -0.122500
     15 C15        -1.8190    7.5820    2.4920 ca        1 538     -0.108500
     16 C16        -0.7310    8.3780    2.1100 cp        1 538     -0.015000
     17 C17        -0.0060    9.0670    3.0930 ca        1 538     -0.108500
     18 C18        -0.2960    8.8790    4.4430 ca        1 538     -0.122500
     19 C19        -0.3450    8.4820    0.7010 cp        1 538     -0.031000
     20 C20        -0.3490    9.7480    0.0950 ca        1 538     -0.123000
     21 C21         0.0030    9.8970   -1.2430 ca        1 538     -0.139000
     22 C22         0.3750    8.7800   -1.9910 ca        1 538     -0.130000
     23 C23         0.3960    7.5220   -1.3950 ca        1 538     -0.114000
     24 C24         0.0360    7.3590   -0.0510 ca        1 538     -0.075600
     25 C25         0.1060    5.9750    0.5170 c         1 538      0.922200
     26 O26         1.2320    5.4930    0.8760 o         1 538     -0.858300
     27 O27        -0.9370    5.2510    0.6010 o         1 538     -0.858300
     28 C28        -2.5230    5.5120    7.1340 cc        1 538     -0.060300
     29 C29        -3.4550    6.1200    8.1030 c3        1 538     -0.043900
     30 C30        -2.5060    4.1830    6.7090 cd        1 538     -0.116400
     31 C31        -3.3840    3.1030    7.1610 c3        1 538     -0.027900
     32 C32        -1.4450    4.0600    5.7250 ca        1 538     -0.109800
     33 C33        -1.0640    3.0590    4.8410 ca        1 538     -0.014000
     34 C34         2.2440    1.7980    0.3750 ca        1 538     -0.142300
     35 C35         3.0950    2.8900    0.1640 ca        1 538     -0.109500
     36 C36         4.4740    2.6930    0.1190 ca        1 538     -0.132000
     37 C37         5.0080    1.4140    0.2810 ca        1 538     -0.113000
     38 C38         4.1600    0.3270    0.4940 ca        1 538     -0.132000
     39 C39         2.7790    0.5170    0.5450 ca        1 538     -0.109500
     40 H1         -1.6750    1.5310   -0.6890 hc        1 538      0.052367
     41 H1A        -1.6710    3.3520   -0.6090 hc        1 538      0.052367
     42 H1B        -1.5090    2.5130   -2.2000 hc        1 538      0.052367
     43 H2          0.7220    1.7440   -1.7400 hc        1 538      0.074200
     44 H2A         0.6780    3.4780   -1.2020 hc        1 538      0.074200
     45 H3          0.2480    0.9960    0.6320 hx        1 538      0.097700
     46 HN4        -0.5330    3.4650    1.1630 hn        1 538      0.511300
     47 H8          1.4440    4.7690    3.1900 ha        1 538      0.169000
     48 H9          0.8260    6.5300    4.7980 ha        1 538      0.162000
     49 H12        -0.7120    8.1520    6.8910 h1        1 538      0.063700
     50 H12A       -2.5170    8.0530    6.6330 h1        1 538      0.063700
     51 H14        -2.9820    6.7910    4.1300 ha        1 538      0.132000
     52 H15        -2.3880    7.0370    1.7200 ha        1 538      0.153500
     53 H17         0.8200    9.7300    2.7950 ha        1 538      0.153500
     54 H18         0.3100    9.3860    5.2070 ha        1 538      0.132000
     55 H20        -0.6400   10.6280    0.6890 ha        1 538      0.129000
     56 H21        -0.0110   10.8930   -1.7080 ha        1 538      0.127000
     57 H22         0.6550    8.8930   -3.0480 ha        1 538      0.127000
     58 H23         0.7000    6.6400   -1.9780 ha        1 538      0.133000
     59 H29        -4.1830    6.7920    7.5810 hc        1 538      0.055367
     60 H29A       -4.0280    5.3100    8.6200 hc        1 538      0.055367
     61 H29B       -2.9090    6.7200    8.8720 hc        1 538      0.055367
     62 H31        -3.2190    2.8910    8.2490 hc        1 538      0.043700
     63 H31A       -4.4600    3.3810    7.0220 hc        1 538      0.043700
     64 H31B       -3.1850    2.1650    6.5860 hc        1 538      0.043700
     65 H33        -1.5540    2.0730    4.8580 ha        1 538      0.150000
     66 H35         2.6810    3.9090    0.0370 ha        1 538      0.159500
     67 H36         5.1410    3.5530   -0.0450 ha        1 538      0.140000
     68 H37         6.0970    1.2630    0.2420 ha        1 538      0.136000
     69 H38         4.5780   -0.6810    0.6250 ha        1 538      0.140000
     70 H39         2.1140   -0.3420    0.7230 ha        1 538      0.159500
     71 H42         1.0540    3.7320    1.5080 hn        1 538      0.511300
@<TRIPOS>BOND
     1    1    2 1   
     2    1   40 1   
     3    1   41 1   
     4    1   42 1   
     5    2    3 1   
     6    2   43 1   
     7    2   44 1   
     8    3    4 1   
     9    3   34 1   
    10    3   45 1   
    11    4    5 1   
    12    4   46 1   
    13    4   71 1   
    14    5    6 2   
    15    5    7 1   
    16    7    8 ar  
    17    7   33 ar  
    18    8    9 ar  
    19    8   47 1   
    20    9   10 ar  
    21    9   48 1   
    22   10   11 1   
    23   10   32 ar  
    24   11   12 1   
    25   11   28 1   
    26   12   13 1   
    27   12   49 1   
    28   12   50 1   
    29   13   14 ar  
    30   13   18 ar  
    31   14   15 ar  
    32   14   51 1   
    33   15   16 ar  
    34   15   52 1   
    35   16   17 ar  
    36   16   19 1   
    37   17   18 ar  
    38   17   53 1   
    39   18   54 1   
    40   19   20 ar  
    41   19   24 ar  
    42   20   21 ar  
    43   20   55 1   
    44   21   22 ar  
    45   21   56 1   
    46   22   23 ar  
    47   22   57 1   
    48   23   24 ar  
    49   23   58 1   
    50   24   25 1   
    51   25   26 1   
    52   25   27 1   
    53   28   29 1   
    54   28   30 2   
    55   29   59 1   
    56   29   60 1   
    57   29   61 1   
    58   30   31 1   
    59   30   32 1   
    60   31   62 1   
    61   31   63 1   
    62   31   64 1   
    63   32   33 ar  
    64   33   65 1   
    65   34   35 ar  
    66   34   39 ar  
    67   35   36 ar  
    68   35   66 1   
    69   36   37 ar  
    70   36   67 1   
    71   37   38 ar  
    72   37   68 1   
    73   38   39 ar  
    74   38   69 1   
    75   39   70 1   
@<TRIPOS>SUBSTRUCTURE
     1 538         1 TEMP              0 ****  ****    0 ROOT
