@<TRIPOS>MOLECULE
53A
   48    48     1     0     0
SMALL
bcc


@<TRIPOS>ATOM
      1 N1          0.0340   -0.6140    0.6890 n4        1 53A      0.107000
      2 N3          1.3970   -0.0960    0.6430 na        1 53A     -0.123000
      3 C4         -2.6660    0.3020    0.7340 c2        1 53A     -0.438000
      4 C5         -2.0980   -0.1720   -0.4680 c2        1 53A      0.129000
      5 C6         -0.7430   -0.5730   -0.5600 c2        1 53A     -0.250000
      6 O2         -5.4880   -0.3260    4.1180 o         1 53A     -0.363000
      7 N4          1.6920    0.5420    1.8220 n2        1 53A     -0.020000
      8 C10        -4.9790   -1.9780    1.0320 c2        1 53A      0.236000
      9 C13        -5.8810   -2.1410   -0.1520 c3        1 53A     -0.273000
     10 C7         -5.1090   -0.6490    1.7300 c3        1 53A     -0.312000
     11 C9         -4.7670   -0.6970    3.1850 c2        1 53A      0.331000
     12 O5         -3.5500   -1.2050    3.5070 oh        1 53A     -0.288000
     13 C15        -3.5240   -0.0890    6.7980 c2        1 53A     -0.231500
     14 C19        -2.7220   -1.1350    6.9420 c2        1 53A     -0.231500
     15 S1         -4.3120    0.6770    0.8500 ss        1 53A      0.310000
     16 N2         -1.8560    0.6140    1.8050 n2        1 53A      0.073000
     17 C11        -2.9080   -0.2460   -1.7150 c3        1 53A     -0.135000
     18 C16        -2.1970   -0.7370   -2.9180 c2        1 53A     -0.123000
     19 C17        -0.8930   -1.0850   -2.9080 c2        1 53A     -0.149000
     20 C12        -0.1060   -1.0200   -1.7120 c1        1 53A     -0.143000
     21 C3          0.5830    0.7890    2.5000 c2        1 53A     -0.006000
     22 C1         -0.6130    0.2410    1.7920 c2        1 53A     -0.144000
     23 C8          0.4730    1.5320    3.7680 c2        1 53A      0.388000
     24 O1          0.1120    2.6930    3.9380 o         1 53A     -0.304000
     25 O4          0.8180    0.7860    4.8500 oh        1 53A     -0.300000
     26 C14        -0.2940    1.9240    7.8820 c2        1 53A     -0.231500
     27 C18         0.0930    3.0450    7.2880 c2        1 53A     -0.231500
     28 HN3         0.0310   -1.5990    0.9990 hn        1 53A      0.227000
     29 HN4         2.0590   -0.8440    0.4460 hn        1 53A      0.240000
     30 H13        -5.9790   -1.1810   -0.7140 hc        1 53A      0.110333
     31 H13A       -5.4860   -2.9320   -0.8360 hc        1 53A      0.110333
     32 H13B       -6.8940   -2.4530    0.2060 hc        1 53A      0.110333
     33 H7         -6.1920   -0.3240    1.6720 h1        1 53A      0.172000
     34 H15        -3.4250   -1.1500    4.4740 ho        1 53A      0.250000
     35 H15A       -4.4830   -0.1380    6.2580 ha        1 53A      0.117000
     36 H19        -3.2840    0.9020    7.2100 ha        1 53A      0.117000
     37 H19A       -2.9620   -2.1300    6.5410 ha        1 53A      0.117000
     38 H19B       -1.7660   -1.0820    7.4810 ha        1 53A      0.117000
     39 H11        -3.3120    0.7860   -1.9340 hc        1 53A      0.142000
     40 H16        -3.8030   -0.9070   -1.5130 hc        1 53A      0.142000
     41 H17        -2.8130   -0.7950   -3.8300 ha        1 53A      0.132000
     42 H12        -0.3830   -1.4370   -3.8190 ha        1 53A      0.148000
     43 H14         0.6960    1.3160    5.6630 ho        1 53A      0.264000
     44 H14A       -1.0110    1.2250    7.4260 ha        1 53A      0.117000
     45 H18         0.0650    1.6230    8.8760 ha        1 53A      0.117000
     46 H18A        0.8000    3.7470    7.7530 ha        1 53A      0.117000
     47 H18B       -0.2680    3.3520    6.2940 ha        1 53A      0.117000
     48 O3         -4.2080   -2.8660    1.4000 o         1 53A     -0.258000
@<TRIPOS>BOND
     1    1    2 1   
     2    1    5 1   
     3    1   22 1   
     4    1   28 1   
     5    2    7 1   
     6    2   29 1   
     7    3    4 1   
     8    3   15 1   
     9    3   16 1   
    10    4    5 1   
    11    4   17 1   
    12    5   20 1   
    13    6   11 1   
    14    7   21 1   
    15    8    9 1   
    16    8   10 1   
    17    8   48 1   
    18    9   30 1   
    19    9   31 1   
    20    9   32 1   
    21   10   11 1   
    22   10   15 1   
    23   10   33 1   
    24   11   12 1   
    25   12   34 1   
    26   13   14 1   
    27   13   35 1   
    28   13   36 1   
    29   14   37 1   
    30   14   38 1   
    31   16   22 1   
    32   17   18 1   
    33   17   39 1   
    34   17   40 1   
    35   18   19 1   
    36   18   41 1   
    37   19   20 1   
    38   19   42 1   
    39   21   22 1   
    40   21   23 1   
    41   23   24 1   
    42   23   25 1   
    43   25   43 1   
    44   26   27 1   
    45   26   44 1   
    46   26   45 1   
    47   27   46 1   
    48   27   47 1   
@<TRIPOS>SUBSTRUCTURE
     1 53A         1 TEMP              0 ****  ****    0 ROOT
