@<TRIPOS>MOLECULE
53A
   48    47     1     0     0
SMALL
bcc


@<TRIPOS>ATOM
      1 N1         -0.4990    0.8570    0.3080 na        1 53A      0.017000
      2 N3          0.3030    1.9540    0.1680 nv        1 53A     -0.189000
      3 C4         -2.4820   -1.0620    0.6660 c2        1 53A     -0.130000
      4 C5         -2.1710   -0.6160   -0.6570 c2        1 53A     -0.129000
      5 C6         -1.1430    0.3270   -0.8180 c2        1 53A     -0.015000
      6 O2         -5.3620   -0.4170    3.1640 o         1 53A     -0.354000
      7 N4          1.2770    0.6130    2.7930 n1        1 53A     -0.348000
      8 C10        -5.0890   -3.4410    2.7050 c2        1 53A      0.248000
      9 C13        -6.3770   -3.1270    2.0260 c3        1 53A     -0.275000
     10 C7         -3.9990   -2.3880    2.5850 c3        1 53A     -0.314000
     11 C9         -4.3670   -1.1300    3.3240 c2        1 53A      0.326000
     12 O5         -3.4730   -0.8030    4.2810 oh        1 53A     -0.278000
     13 C15        -4.9210    2.1490    5.3450 c2        1 53A     -0.226750
     14 C19        -5.4800    2.6910    6.4180 c2        1 53A     -0.226750
     15 S1         -3.7840   -2.1220    0.8360 ss        1 53A      0.362000
     16 N2         -1.7770   -0.6200    1.7230 n2        1 53A     -0.138000
     17 C11        -2.9170   -1.1220   -1.8310 c3        1 53A     -0.143000
     18 C16        -2.5140   -0.5300   -3.1250 c2        1 53A     -0.019000
     19 C17        -1.4740    0.3340   -3.2430 c2        1 53A     -0.220000
     20 C12        -0.6630    0.6930   -2.1410 c1        1 53A     -0.028000
     21 C3          0.0570    0.7280    2.8250 c2        1 53A     -0.092000
     22 C1         -0.8270    0.3310    1.5720 c2        1 53A      0.132000
     23 C8         -0.8930    1.1630    3.8930 c2        1 53A      0.335000
     24 O1         -2.0910    1.4510    3.7840 o         1 53A     -0.373000
     25 O4         -0.4280    1.2920    5.1680 oh        1 53A     -0.295000
     26 C14         2.5880    0.2270    6.3840 c2        1 53A     -0.226750
     27 C18         3.5920    0.6280    7.1530 c2        1 53A     -0.226750
     28 HN3         0.6960    1.9710   -0.7730 hn        1 53A      0.218000
     29 HN4         1.0490    1.9380    0.8560 hn        1 53A      0.218000
     30 H13        -6.2050   -3.0040    0.9260 hc        1 53A      0.122667
     31 H13A       -6.7890   -2.1660    2.4290 hc        1 53A      0.122667
     32 H13B       -7.1190   -3.9460    2.1910 hc        1 53A      0.122667
     33 H7         -3.0450   -2.7900    3.0350 h1        1 53A      0.193000
     34 H15        -3.6400    0.1070    4.6080 ho        1 53A      0.285000
     35 H15A       -3.8620    2.3020    5.0800 ha        1 53A      0.113750
     36 H19        -5.4790    1.5150    4.6390 ha        1 53A      0.113750
     37 H19A       -4.9220    3.3260    7.1200 ha        1 53A      0.113750
     38 H19B       -6.5360    2.5420    6.6780 ha        1 53A      0.113750
     39 H11        -4.0200   -0.9210   -1.6700 hc        1 53A      0.155000
     40 H16        -2.8020   -2.2460   -1.8920 hc        1 53A      0.155000
     41 H17        -3.0940   -0.8650   -4.0030 ha        1 53A      0.150000
     42 H12        -1.1890    0.7510   -4.2250 ha        1 53A      0.172000
     43 H14         0.5170    1.0730    5.2080 ho        1 53A      0.248000
     44 H14A        1.6190   -0.0890    6.7960 ha        1 53A      0.113750
     45 H18         2.6610    0.1790    5.2880 ha        1 53A      0.113750
     46 H18A        3.5200    0.6740    8.2480 ha        1 53A      0.113750
     47 H18B        4.5610    0.9420    6.7450 ha        1 53A      0.113750
     48 O3         -4.8740   -4.4790    3.3300 o         1 53A     -0.244000
@<TRIPOS>BOND
     1    1    2 1   
     2    1    5 1   
     3    1   22 1   
     4    2   28 1   
     5    2   29 1   
     6    3    4 1   
     7    3   15 1   
     8    3   16 1   
     9    4    5 1   
    10    4   17 1   
    11    5   20 1   
    12    6   11 1   
    13    7   21 1   
    14    8    9 1   
    15    8   10 1   
    16    8   48 1   
    17    9   30 1   
    18    9   31 1   
    19    9   32 1   
    20   10   11 1   
    21   10   15 1   
    22   10   33 1   
    23   11   12 1   
    24   12   34 1   
    25   13   14 1   
    26   13   35 1   
    27   13   36 1   
    28   14   37 1   
    29   14   38 1   
    30   16   22 1   
    31   17   18 1   
    32   17   39 1   
    33   17   40 1   
    34   18   19 1   
    35   18   41 1   
    36   19   20 1   
    37   19   42 1   
    38   21   22 1   
    39   21   23 1   
    40   23   24 1   
    41   23   25 1   
    42   25   43 1   
    43   26   27 1   
    44   26   44 1   
    45   26   45 1   
    46   27   46 1   
    47   27   47 1   
@<TRIPOS>SUBSTRUCTURE
     1 53A         1 TEMP              0 ****  ****    0 ROOT
