@<TRIPOS>MOLECULE
53A
   48    50     1     0     0
SMALL
bcc


@<TRIPOS>ATOM
      1 N1         -2.1880    0.6520   -1.0720 na        1 53A     -0.216200
      2 N3         -3.4060    0.0450   -1.4640 na        1 53A     -0.113700
      3 C4         -0.0290    1.2190    0.6210 cc        1 53A      0.554600
      4 C5         -0.9760    2.2910    0.2690 ca        1 53A     -0.199300
      5 C6         -2.1130    1.9580   -0.5240 ca        1 53A      0.050700
      6 O2          4.5380    0.9500    0.6960 o         1 53A     -0.538000
      7 N4         -3.3380   -1.3460   -1.1660 na        1 53A     -0.184600
      8 C10         2.9640    0.6490    3.1890 c         1 53A      0.592100
      9 C13         3.6200    1.9700    3.4060 c3        1 53A     -0.207100
     10 C7          2.4000    0.4030    1.8000 c3        1 53A     -0.204600
     11 C9          3.4960    0.2950    0.7790 c         1 53A      0.649100
     12 O5          3.2560   -0.6800   -0.1400 os        1 53A     -0.414900
     13 C15         4.2520   -0.8530   -1.1680 c3        1 53A      0.138400
     14 C19         3.7510   -1.9730   -2.0460 c3        1 53A     -0.102100
     15 S1          1.3440    1.7880    1.4460 ss        1 53A     -0.165400
     16 N2         -0.2360   -0.0480    0.3460 nd        1 53A     -0.647000
     17 C11        -0.8070    3.6080    0.7100 ca        1 53A     -0.067000
     18 C16        -1.7410    4.5870    0.3890 ca        1 53A     -0.154000
     19 C17        -2.8600    4.2580   -0.3800 ca        1 53A     -0.076000
     20 C12        -3.0540    2.9600   -0.8380 ca        1 53A     -0.161000
     21 C3         -2.0580   -1.5720   -0.5020 cc        1 53A     -0.194300
     22 C1         -1.4000   -0.3630   -0.3490 cd        1 53A      0.423500
     23 C8         -1.6140   -2.8890   -0.0710 c         1 53A      0.683300
     24 O1         -0.8440   -3.1680    0.8490 o         1 53A     -0.518000
     25 O4         -2.1370   -3.9120   -0.8200 os        1 53A     -0.440900
     26 C14        -1.7560   -5.2430   -0.4240 c3        1 53A      0.141400
     27 C18        -2.4660   -6.1810   -1.3690 c3        1 53A     -0.101100
     28 HN3        -4.1660    0.4030   -0.8710 hn        1 53A      0.196700
     29 HN4        -3.3450   -1.8340   -2.0580 hn        1 53A      0.247700
     30 H13         4.5340    2.0390    2.7610 hc        1 53A      0.081700
     31 H13A        2.9220    2.7990    3.1230 hc        1 53A      0.081700
     32 H13B        3.9150    2.0910    4.4770 hc        1 53A      0.081700
     33 H7          1.8270   -0.5710    1.8090 h1        1 53A      0.169700
     34 H15         4.3560    0.1110   -1.7310 h1        1 53A      0.053200
     35 H15A        5.2290   -1.1030   -0.6800 h1        1 53A      0.053200
     36 H19         4.4920   -2.1540   -2.8610 hc        1 53A      0.052033
     37 H19A        3.6220   -2.9090   -1.4520 hc        1 53A      0.052033
     38 H19B        2.7650   -1.7070   -2.4980 hc        1 53A      0.052033
     39 H11         0.0730    3.8740    1.3210 ha        1 53A      0.148000
     40 H16        -1.5980    5.6190    0.7400 ha        1 53A      0.145000
     41 H17        -3.5980    5.0360   -0.6310 ha        1 53A      0.143000
     42 H12        -3.9340    2.7300   -1.4580 ha        1 53A      0.154000
     43 H14        -0.6400   -5.3330   -0.5000 h1        1 53A      0.053200
     44 H14A       -2.0650   -5.4040    0.6410 h1        1 53A      0.053200
     45 H18        -3.5720   -6.0490   -1.2960 hc        1 53A      0.048367
     46 H18A       -2.1580   -5.9850   -2.4230 hc        1 53A      0.048367
     47 H18B       -2.2040   -7.2320   -1.1000 hc        1 53A      0.048367
     48 O3          2.8590   -0.2140    4.0600 o         1 53A     -0.492100
@<TRIPOS>BOND
     1    1    2 1   
     2    1    5 1   
     3    1   22 1   
     4    2    7 1   
     5    2   28 1   
     6    3    4 1   
     7    3   15 1   
     8    3   16 2   
     9    4    5 ar  
    10    4   17 ar  
    11    5   20 ar  
    12    6   11 2   
    13    7   21 1   
    14    7   29 1   
    15    8    9 1   
    16    8   10 1   
    17    8   48 2   
    18    9   30 1   
    19    9   31 1   
    20    9   32 1   
    21   10   11 1   
    22   10   15 1   
    23   10   33 1   
    24   11   12 1   
    25   12   13 1   
    26   13   14 1   
    27   13   34 1   
    28   13   35 1   
    29   14   36 1   
    30   14   37 1   
    31   14   38 1   
    32   16   22 1   
    33   17   18 ar  
    34   17   39 1   
    35   18   19 ar  
    36   18   40 1   
    37   19   20 ar  
    38   19   41 1   
    39   20   42 1   
    40   21   22 2   
    41   21   23 1   
    42   23   24 2   
    43   23   25 1   
    44   25   26 1   
    45   26   27 1   
    46   26   43 1   
    47   26   44 1   
    48   27   45 1   
    49   27   46 1   
    50   27   47 1   
@<TRIPOS>SUBSTRUCTURE
     1 53A         1 TEMP              0 ****  ****    0 ROOT
