@<TRIPOS>MOLECULE
53A
   48    48     1     0     0
SMALL
bcc


@<TRIPOS>ATOM
      1 N1         -0.8470   -0.7560   -0.0620 n4        1 53A      0.112000
      2 N3          0.3800   -0.8040   -0.8510 na        1 53A     -0.126000
      3 C4         -2.0880    0.9520    1.8610 c2        1 53A     -0.453000
      4 C5         -2.5070    0.9790    0.5060 c2        1 53A      0.141000
      5 C6         -1.8840    0.1970   -0.4890 c2        1 53A     -0.252000
      6 O2         -5.6370    0.5440    2.3610 o         1 53A     -0.362000
      7 N4          1.4530   -1.0390   -0.0270 n2        1 53A     -0.023000
      8 C10        -4.0770    1.3860    5.3200 c2        1 53A      0.259000
      9 C13        -2.9170    1.4620    6.2580 c3        1 53A     -0.268000
     10 C7         -3.7750    0.7020    4.0010 c3        1 53A     -0.320000
     11 C9         -5.0220    0.1660    3.3630 c2        1 53A      0.333000
     12 O5         -5.5100   -0.9340    3.9990 oh        1 53A     -0.316000
     13 C15        -8.3320   -1.4530    2.0900 c2        1 53A     -0.231000
     14 C19        -8.8090   -1.7190    3.3000 c2        1 53A     -0.231000
     15 S1         -2.8780    1.8910    3.0290 ss        1 53A      0.318000
     16 N2         -0.9300    0.3100    2.2170 n2        1 53A      0.058000
     17 C11        -3.6320    1.8490    0.0790 c3        1 53A     -0.159000
     18 C16        -3.9580    1.8160   -1.3640 c2        1 53A     -0.095000
     19 C17        -3.2920    1.0410   -2.2500 c2        1 53A     -0.169000
     20 C12        -2.2170    0.1920   -1.8440 c1        1 53A     -0.139000
     21 C3          1.1170   -0.8230    1.2340 c2        1 53A     -0.004000
     22 C1         -0.3250   -0.4510    1.3500 c2        1 53A     -0.175000
     23 C8          2.0140   -0.8740    2.4020 c2        1 53A      0.388000
     24 O1          2.5060    0.0660    3.0220 o         1 53A     -0.307000
     25 O4          2.2890   -2.1410    2.8070 oh        1 53A     -0.301000
     26 C14         4.0910   -1.3740    5.5980 c2        1 53A     -0.231000
     27 C18         4.8140   -2.3890    5.1430 c2        1 53A     -0.231000
     28 HN3        -1.2970   -1.6840   -0.0460 hn        1 53A      0.220000
     29 HN4         0.3080   -1.5080   -1.5840 hn        1 53A      0.239000
     30 H13        -3.1650    2.1130    7.1310 hc        1 53A      0.115667
     31 H13A       -2.0240    1.8760    5.7280 hc        1 53A      0.115667
     32 H13B       -2.6720    0.4360    6.6290 hc        1 53A      0.115667
     33 H7         -3.1100   -0.1830    4.2130 h1        1 53A      0.163000
     34 H15        -6.3440   -1.2180    3.5790 ho        1 53A      0.255000
     35 H15A       -8.4980   -2.1160    1.2300 ha        1 53A      0.116625
     36 H19        -7.7440   -0.5490    1.8670 ha        1 53A      0.116625
     37 H19A       -9.4000   -2.6180    3.5220 ha        1 53A      0.116625
     38 H19B       -8.6530   -1.0520    4.1590 ha        1 53A      0.116625
     39 H11        -3.4010    2.9130    0.3790 hc        1 53A      0.170500
     40 H16        -4.5510    1.5510    0.6780 hc        1 53A      0.170500
     41 H17        -4.7920    2.4700   -1.6670 ha        1 53A      0.136000
     42 H12        -3.5550    1.0360   -3.3200 ha        1 53A      0.148000
     43 H14         2.8740   -2.1130    3.5910 ho        1 53A      0.264000
     44 H14A        3.6750   -1.3520    6.6140 ha        1 53A      0.116625
     45 H18         3.8640   -0.4830    4.9900 ha        1 53A      0.116625
     46 H18A        5.2420   -2.4070    4.1310 ha        1 53A      0.116625
     47 H18B        5.0450   -3.2740    5.7510 ha        1 53A      0.116625
     48 O3         -5.1940    1.8280    5.5890 o         1 53A     -0.265000
@<TRIPOS>BOND
     1    1    2 1   
     2    1    5 1   
     3    1   22 1   
     4    1   28 1   
     5    2    7 1   
     6    2   29 1   
     7    3    4 1   
     8    3   15 1   
     9    3   16 1   
    10    4    5 1   
    11    4   17 1   
    12    5   20 1   
    13    6   11 1   
    14    7   21 1   
    15    8    9 1   
    16    8   10 1   
    17    8   48 1   
    18    9   30 1   
    19    9   31 1   
    20    9   32 1   
    21   10   11 1   
    22   10   15 1   
    23   10   33 1   
    24   11   12 1   
    25   12   34 1   
    26   13   14 1   
    27   13   35 1   
    28   13   36 1   
    29   14   37 1   
    30   14   38 1   
    31   16   22 1   
    32   17   18 1   
    33   17   39 1   
    34   17   40 1   
    35   18   19 1   
    36   18   41 1   
    37   19   20 1   
    38   19   42 1   
    39   21   22 1   
    40   21   23 1   
    41   23   24 1   
    42   23   25 1   
    43   25   43 1   
    44   26   27 1   
    45   26   44 1   
    46   26   45 1   
    47   27   46 1   
    48   27   47 1   
@<TRIPOS>SUBSTRUCTURE
     1 53A         1 TEMP              0 ****  ****    0 ROOT
