@<TRIPOS>MOLECULE
53A
   48    45     1     0     0
SMALL
bcc


@<TRIPOS>ATOM
      1 N1          2.9590   -0.4900   -1.6000 n3        1 53A     -0.195000
      2 N3          4.0580    0.5800   -1.7210 n3        1 53A     -0.053000
      3 C4          0.4470   -1.3590   -0.5850 c1        1 53A     -0.094000
      4 C5          0.6420   -1.2090   -2.0450 c1        1 53A     -0.145000
      5 C6          1.8660   -0.8540   -2.5340 c2        1 53A      0.114000
      6 O2         -3.8490   -1.8480   -0.5140 o         1 53A     -0.351000
      7 N4          4.3960    0.9490   -0.2490 n3        1 53A     -0.119000
      8 O3         -2.1240   -0.0700    2.9230 o         1 53A     -0.258000
      9 C10        -2.3240   -0.9800    2.1450 c1        1 53A      0.253000
     10 C13        -2.8000   -2.3220    2.6570 c2        1 53A     -0.275000
     11 C7         -2.0980   -0.7720    0.6640 c3        1 53A     -0.329000
     12 C9         -3.4290   -0.8030   -0.0590 c2        1 53A      0.321000
     13 O5         -4.1960    0.3720   -0.1720 os        1 53A     -0.250000
     14 C15        -5.5050    0.1560   -0.6500 c3        1 53A     -0.011000
     15 C19        -6.1400    1.4850   -0.9990 c3        1 53A     -0.221000
     16 S1         -1.0550   -2.0630    0.0390 ss        1 53A      0.347000
     17 N2          1.4910   -1.0760    0.2820 n1        1 53A     -0.129000
     18 C11        -0.4030   -1.5320   -2.9310 c1        1 53A     -0.067000
     19 C16        -0.1880   -1.4900   -4.2990 c1        1 53A     -0.117000
     20 C17         1.0540   -1.1310   -4.7960 c1        1 53A     -0.117000
     21 C12         2.0830   -0.8120   -3.9240 c1        1 53A     -0.153000
     22 C3          3.5700    0.1610    0.4830 c2        1 53A     -0.157000
     23 C1          2.7830   -0.6290   -0.2490 c1        1 53A      0.095000
     24 C8          3.1270    0.6030    1.8600 c2        1 53A      0.385000
     25 O1          1.9680    0.4700    2.1970 o         1 53A     -0.326000
     26 O4          4.0500    1.1970    2.7370 os        1 53A     -0.286000
     27 C14         3.4980    2.2080    3.5450 c3        1 53A     -0.008000
     28 C18         4.5710    3.2200    3.8900 c3        1 53A     -0.219000
     29 HN3         4.7940    0.2170   -2.1200 hn        1 53A      0.137000
     30 HN4         5.1700    1.3320    0.0430 hn        1 53A      0.159000
     31 H13        -2.0280   -2.8640    2.9200 ha        1 53A      0.120667
     32 H13A       -3.3840   -2.1880    3.4320 ha        1 53A      0.120667
     33 H13B       -3.2970   -2.7840    1.9490 ha        1 53A      0.120667
     34 H7         -1.6690    0.0920    0.5190 h1        1 53A      0.208000
     35 H15        -5.4710   -0.4100   -1.4500 h1        1 53A      0.091500
     36 H15A       -6.0360   -0.2890    0.0420 h1        1 53A      0.091500
     37 H19        -5.5280    2.0010   -1.5650 hc        1 53A      0.093000
     38 H19A       -6.3240    1.9850   -0.1760 hc        1 53A      0.093000
     39 H19B       -6.9790    1.3300   -1.4820 hc        1 53A      0.093000
     40 H11        -1.2780   -1.7850   -2.5820 ha        1 53A      0.148000
     41 H16        -0.9130   -1.7140   -4.9130 ha        1 53A      0.142500
     42 H17         1.2050   -1.1020   -5.7590 ha        1 53A      0.142500
     43 H12         2.9580   -0.5590   -4.2740 ha        1 53A      0.156000
     44 H14         2.7720    2.6530    3.0610 h1        1 53A      0.092500
     45 H14A        3.1470    1.8120    4.3690 h1        1 53A      0.092500
     46 H18         5.3730    2.7520    4.2030 hc        1 53A      0.087333
     47 H18A        4.2440    3.8150    4.5960 hc        1 53A      0.087333
     48 H18B        4.7900    3.7480    3.0930 hc        1 53A      0.087333
@<TRIPOS>BOND
     1    1    2 1   
     2    1    5 1   
     3    1   23 1   
     4    2    7 1   
     5    2   29 1   
     6    3   16 1   
     7    3   17 1   
     8    4    5 1   
     9    4   18 1   
    10    5   21 1   
    11    6   12 1   
    12    7   22 1   
    13    7   30 1   
    14    8    9 1   
    15    9   11 1   
    16   10   31 1   
    17   10   32 1   
    18   10   33 1   
    19   11   12 1   
    20   11   16 1   
    21   11   34 1   
    22   12   13 1   
    23   13   14 1   
    24   14   15 1   
    25   14   35 1   
    26   14   36 1   
    27   15   37 1   
    28   15   38 1   
    29   15   39 1   
    30   18   40 1   
    31   19   20 1   
    32   19   41 1   
    33   20   42 1   
    34   21   43 1   
    35   22   23 1   
    36   22   24 1   
    37   24   25 1   
    38   24   26 1   
    39   26   27 1   
    40   27   28 1   
    41   27   44 1   
    42   27   45 1   
    43   28   46 1   
    44   28   47 1   
    45   28   48 1   
@<TRIPOS>SUBSTRUCTURE
     1 53A         1 TEMP              0 ****  ****    0 ROOT
