@<TRIPOS>MOLECULE
53B
   14    14     1     0     0
SMALL
bcc


@<TRIPOS>ATOM
      1 C01         0.0350    0.5440    0.0740 ca        1 53B     -0.090000
      2 C02         1.4170    0.4170    0.1140 ca        1 53B     -0.273300
      3 C03         2.0360   -0.1450    1.2620 ca        1 53B      0.424800
      4 C04         3.5800   -0.2640    1.2560 c         1 53B      0.826100
      5 O05         4.0610   -1.3210    0.7750 o         1 53B     -0.807300
      6 O06         4.2230    0.7240    1.6910 o         1 53B     -0.807300
      7 N07         1.3300   -0.5640    2.3280 nb        1 53B     -0.725000
      8 C08        -0.0250   -0.4260    2.2590 ca        1 53B      0.601600
      9 C09        -0.7280    0.1170    1.1660 ca        1 53B     -0.309300
     10 O10        -0.7950   -0.8440    3.3320 oh        1 53B     -0.648300
     11 H011       -0.4660    0.9760   -0.8030 ha        1 53B      0.110000
     12 H021        2.0500    0.7400   -0.7220 ha        1 53B      0.142000
     13 H091       -1.8190    0.1950    1.1860 ha        1 53B      0.129000
     14 H101       -0.2050   -1.1960    4.0160 ho        1 53B      0.427000
@<TRIPOS>BOND
     1    1    2 ar  
     2    1    9 ar  
     3    1   11 1   
     4    2    3 ar  
     5    2   12 1   
     6    3    4 1   
     7    3    7 ar  
     8    4    5 1   
     9    4    6 1   
    10    7    8 ar  
    11    8    9 ar  
    12    8   10 1   
    13    9   13 1   
    14   10   14 1   
@<TRIPOS>SUBSTRUCTURE
     1 53B         1 TEMP              0 ****  ****    0 ROOT
