@<TRIPOS>MOLECULE
53C
   18    18     1     0     0
SMALL
bcc


@<TRIPOS>ATOM
      1 C01         0.0390   -0.0080    0.0150 c3        1 53C     -0.198100
      2 C02         1.5320    0.0770    0.0020 c         1 53C      0.575700
      3 C03         2.2280    0.0590    1.3100 ca        1 53C     -0.137600
      4 C04         1.5290   -0.0400    2.5170 ca        1 53C     -0.127000
      5 C05         2.2210   -0.0540    3.7300 ca        1 53C     -0.113000
      6 C06         3.6090    0.0300    3.7600 ca        1 53C     -0.129000
      7 C07         4.3080    0.1300    2.5450 ca        1 53C      0.112100
      8 C08         3.6260    0.1440    1.3220 ca        1 53C     -0.160000
      9 O09         5.6790    0.2100    2.6310 oh        1 53C     -0.496100
     10 O10         2.1600    0.1590   -1.0620 o         1 53C     -0.535100
     11 H1         -0.2850   -0.9610    0.5000 hc        1 53C      0.065700
     12 H2         -0.3600    0.0200   -1.0290 hc        1 53C      0.065700
     13 H3         -0.3870    0.8530    0.5860 hc        1 53C      0.065700
     14 H4          0.4310   -0.1080    2.5230 ha        1 53C      0.136000
     15 H5          1.6610   -0.1320    4.6750 ha        1 53C      0.139000
     16 H6          4.1650    0.0210    4.7080 ha        1 53C      0.154000
     17 H7          4.1730    0.2220    0.3690 ha        1 53C      0.158000
     18 H8          6.0320    0.2730    1.7310 ho        1 53C      0.424000
@<TRIPOS>BOND
     1    1    2 1   
     2    1   11 1   
     3    1   12 1   
     4    1   13 1   
     5    2    3 1   
     6    2   10 2   
     7    3    4 ar  
     8    3    8 ar  
     9    4    5 ar  
    10    4   14 1   
    11    5    6 ar  
    12    5   15 1   
    13    6    7 ar  
    14    6   16 1   
    15    7    8 ar  
    16    7    9 1   
    17    8   17 1   
    18    9   18 1   
@<TRIPOS>SUBSTRUCTURE
     1 53C         1 TEMP              0 ****  ****    0 ROOT
