@<TRIPOS>MOLECULE
53E
   20    21     1     0     0
SMALL
bcc


@<TRIPOS>ATOM
      1 C01        -0.1510    0.1430    0.1560 c3        1 53E      0.093400
      2 C02         1.3640    0.2760    0.1630 c3        1 53E      0.091400
      3 O03         1.8680    0.2320    1.4960 os        1 53E     -0.284900
      4 C04         1.3630   -0.8380    2.2280 ca        1 53E      0.062100
      5 C05         2.0700   -1.2600    3.3640 ca        1 53E     -0.076600
      6 C06         1.5180   -2.2920    4.1300 ca        1 53E     -0.128000
      7 C07         0.3140   -2.9000    3.7760 ca        1 53E     -0.149000
      8 C08        -0.3840   -2.4890    2.6430 ca        1 53E     -0.161000
      9 C09         0.1470   -1.4500    1.8710 ca        1 53E      0.032100
     10 O10        -0.5660   -1.0980    0.7270 os        1 53E     -0.338900
     11 C11         3.4060   -0.6510    3.7860 c         1 53E      0.924200
     12 O12         3.3900    0.1850    4.7290 o         1 53E     -0.819300
     13 O13         4.4410   -1.0540    3.1910 o         1 53E     -0.819300
     14 H1         -0.5580    0.1170   -0.8870 h1        1 53E      0.048200
     15 H2         -0.6210    0.9800    0.7370 h1        1 53E      0.048200
     16 H3          1.6890    1.2780   -0.2200 h1        1 53E      0.055700
     17 H4          1.8330   -0.5440   -0.4410 h1        1 53E      0.055700
     18 H5          2.0600   -2.6210    5.0290 ha        1 53E      0.136000
     19 H6         -0.0930   -3.7120    4.3940 ha        1 53E      0.108000
     20 H7         -1.3290   -2.9590    2.3470 ha        1 53E      0.122000
@<TRIPOS>BOND
     1    1    2 1   
     2    1   10 1   
     3    1   14 1   
     4    1   15 1   
     5    2    3 1   
     6    2   16 1   
     7    2   17 1   
     8    3    4 1   
     9    4    5 ar  
    10    4    9 ar  
    11    5    6 ar  
    12    5   11 1   
    13    6    7 ar  
    14    6   18 1   
    15    7    8 ar  
    16    7   19 1   
    17    8    9 ar  
    18    8   20 1   
    19    9   10 1   
    20   11   12 1   
    21   11   13 1   
@<TRIPOS>SUBSTRUCTURE
     1 53E         1 TEMP              0 ****  ****    0 ROOT
