@<TRIPOS>MOLECULE
53G
   27    28     1     0     0
SMALL
bcc


@<TRIPOS>ATOM
      1 N1         -0.2300   -0.7360   -0.5660 nb        1 53G     -0.603000
      2 C4          3.6480    0.5930    0.4090 ca        1 53G     -0.129000
      3 C5          3.2800    0.5440   -0.9110 ca        1 53G     -0.124300
      4 C6          1.9690    0.1100   -1.2800 ca        1 53G      0.328300
      5 C7          1.0520   -0.2950   -0.2510 ca        1 53G      0.261300
      6 C8          1.4660   -0.2480    1.1100 ca        1 53G     -0.040300
      7 C10         0.3780   -0.3510   -2.8860 ca        1 53G      0.343900
      8 O           2.7290   -0.5150    3.7400 o         1 53G     -0.416100
      9 N           4.0570    1.3500    3.2730 n4        1 53G     -0.593200
     10 C1          5.3810    0.7770    3.6230 c3        1 53G      0.082600
     11 C           3.4810    2.1040    4.4140 c3        1 53G      0.082600
     12 C3          2.7370    0.2080    1.4280 ca        1 53G     -0.207600
     13 C9         -0.5500   -0.7620   -1.8430 ca        1 53G      0.320900
     14 N2          1.5980    0.0730   -2.6190 nb        1 53G     -0.617000
     15 H1          4.6770    0.8940    0.6620 ha        1 53G      0.132000
     16 H2          3.9900    0.8330   -1.7060 ha        1 53G      0.182000
     17 H3          0.7680   -0.5780    1.9020 ha        1 53G      0.184000
     18 H4          0.0710   -0.3870   -3.9490 h4        1 53G      0.063100
     19 H5          5.8110    0.2640    2.7220 hx        1 53G      0.108533
     20 H6          6.0710    1.5990    3.9560 hx        1 53G      0.108533
     21 H7          5.2540    0.0330    4.4560 hx        1 53G      0.108533
     22 H8          3.2910    1.3990    5.2690 hx        1 53G      0.108533
     23 H9          4.2010    2.9030    4.7370 hx        1 53G      0.108533
     24 H10         2.5120    2.5730    4.0950 hx        1 53G      0.108533
     25 H11        -1.5650   -1.1120   -2.1100 h4        1 53G      0.063100
     26 C2          3.1040    0.2280    2.8440 c         1 53G      0.575700
     27 HN1         4.1710    1.9940    2.4800 hn        1 53G      0.456800
@<TRIPOS>BOND
     1    1    5 ar  
     2    1   13 ar  
     3    2    3 ar  
     4    2   12 ar  
     5    2   15 1   
     6    3    4 ar  
     7    3   16 1   
     8    4    5 ar  
     9    4   14 ar  
    10    5    6 ar  
    11    6   12 ar  
    12    6   17 1   
    13    7   13 ar  
    14    7   14 ar  
    15    7   18 1   
    16    8   26 2   
    17    9   10 1   
    18    9   11 1   
    19    9   26 1   
    20    9   27 1   
    21   10   19 1   
    22   10   20 1   
    23   10   21 1   
    24   11   22 1   
    25   11   23 1   
    26   11   24 1   
    27   12   26 1   
    28   13   25 1   
@<TRIPOS>SUBSTRUCTURE
     1 53G         1 TEMP              0 ****  ****    0 ROOT
