@<TRIPOS>MOLECULE
53G
   27    26     1     0     0
SMALL
bcc


@<TRIPOS>ATOM
      1 N1          2.1190    1.0770    1.5170 nu        1 53G     -0.166300
      2 C4          4.4190   -1.1440   -1.9520 c3        1 53G      0.031900
      3 C5          3.0460   -1.5790   -1.8620 c1        1 53G     -0.064100
      4 C6          1.9490   -1.6470   -1.3650 cg        1 53G     -0.055000
      5 C7          3.3440    0.9870    1.0410 ce        1 53G      0.421500
      6 C8          3.6230    0.5010   -0.3030 ce        1 53G     -0.293600
      7 C10         0.8730   -0.4210    0.1150 c1        1 53G      0.280500
      8 O           5.7700   -0.4280    1.4020 o         1 53G     -0.498100
      9 N           1.7540    2.0570    4.1400 n2        1 53G     -0.701900
     10 C1          1.8230    1.0210    5.1240 c3        1 53G      0.079100
     11 C           1.5210    3.2760    4.4420 c2        1 53G      0.486100
     12 C3          4.6010   -0.3620   -0.6600 cf        1 53G     -0.085400
     13 C9          0.9690    0.7440    0.7450 c2        1 53G     -0.225200
     14 N2          0.9500   -1.5500   -0.4370 ne        1 53G     -0.154400
     15 H1          4.5910   -0.4930   -2.8540 hc        1 53G      0.115200
     16 H2          5.1360   -2.0080   -2.0070 hc        1 53G      0.115200
     17 H3          2.8810    0.8130   -1.0720 ha        1 53G      0.179000
     18 H4          0.1630    1.5040    0.7500 h4        1 53G      0.224000
     19 H5          1.0440    0.2480    4.8820 h1        1 53G      0.064367
     20 H6          2.8370    0.5400    5.0650 h1        1 53G      0.064367
     21 H7          1.6590    1.3720    6.1790 h1        1 53G      0.064367
     22 H8          4.1970    1.2650    1.7090 h4        1 53G      0.095800
     23 H9          1.3520    3.6680    5.4650 h4        1 53G      0.006800
     24 H10         1.4790    4.0250    3.6280 h4        1 53G      0.006800
     25 H11         1.9450    1.4530    2.4860 hn        1 53G      0.393700
     26 C2          5.7570   -0.7110    0.2030 c         1 53G      0.558100
     27 HN1         6.6020   -1.2230   -0.3070 h4        1 53G      0.059200
@<TRIPOS>BOND
     1    1    5 2   
     2    1   13 1   
     3    1   25 1   
     4    2    3 1   
     5    2   12 1   
     6    2   15 1   
     7    2   16 1   
     8    3    4 3   
     9    4   14 1   
    10    5    6 1   
    11    5   22 1   
    12    6   12 2   
    13    6   17 1   
    14    7   13 2   
    15    7   14 2   
    16    8   26 2   
    17    9   10 1   
    18    9   11 2   
    19   10   19 1   
    20   10   20 1   
    21   10   21 1   
    22   11   23 1   
    23   11   24 1   
    24   12   26 1   
    25   13   18 1   
    26   26   27 1   
@<TRIPOS>SUBSTRUCTURE
     1 53G         1 TEMP              0 ****  ****    0 ROOT
