@<TRIPOS>MOLECULE
53H
   58    70     1     0     0
SMALL
bcc


@<TRIPOS>ATOM
      1 C1          0.0000    0.0000    0.0000 c3        1 53H      0.109000
      2 C2         -1.9180   -4.6820    8.4520 c2        1 53H      0.069000
      3 C3          1.5070    0.0000    0.0000 DU        1 53H     -0.236000
      4 C4         -1.3050   -3.2790    6.7360 c2        1 53H     -0.096000
      5 C5          0.0120   -3.7620    6.8270 c2        1 53H     -0.374000
      6 C6          0.2930   -4.7430    7.7930 c2        1 53H      0.301000
      7 C7          2.0170    0.0000    1.4420 DU        1 53H     -0.187000
      8 N1         -0.6960   -5.1660    8.5740 n2        1 53H     -0.087000
      9 N2         -0.6740    1.1490    0.2010 ny        1 53H     -0.240000
     10 O1         -0.6060   -1.0340   -0.1880 o         1 53H     -0.181000
     11 C8         -0.0260   -2.2820    5.2420 c2        1 53H     -0.288000
     12 O2         -3.6360   -0.5200    7.1220 oh        1 53H     -0.250000
     13 N3         -2.2280   -3.7630    7.5610 n2        1 53H     -0.061000
     14 C9          1.5070   -1.2490    2.1640 c3        1 53H     -0.446500
     15 C10         3.5470    0.0010    1.4420 c3        1 53H     -0.017000
     16 C11         1.5060    1.2490    2.1630 c3        1 53H     -0.446500
     17 N4          1.9970   -1.2000   -0.6920 nz        1 53H      0.046000
     18 S1         -2.3300    1.1490    0.2020 s6        1 53H      2.340000
     19 O1A        -2.7320    2.4840    0.4720 o         1 53H     -0.735000
     20 O2A        -2.7310    0.4370   -0.9610 o         1 53H     -0.735000
     21 O5         -2.7810    0.3150    1.3930 os        1 53H     -0.599000
     22 C25        -2.6310    0.9730    2.6520 DU        1 53H      0.186000
     23 C24        -3.1120    0.0470    3.7720 DU        1 53H     -0.043000
     24 C23        -3.0760    0.7820    5.1300 DU        1 53H     -0.508000
     25 O3         -4.3750    1.2720    5.4690 oh        1 53H     -0.309000
     26 C22        -2.6280   -0.3040    6.1330 DU        1 53H      0.070000
     27 C21        -2.4460   -1.5670    5.2620 c3        1 53H     -0.110000
     28 O4         -2.2030   -1.0650    3.9300 os        1 53H     -0.216000
     29 N9         -1.2980   -2.3480    5.7290 na        1 53H      0.275000
     30 N7          0.7410   -3.1130    5.8880 n2        1 53H      0.100000
     31 H3          1.5140   -0.5990    0.9030 DU        1 53H      0.327000
     32 HN2         0.2650    1.2210   -0.1380 DU        1 53H      0.256000
     33 H8         -0.0450   -1.6620    4.3550 h5        1 53H      0.128000
     34 HO2        -2.9230   -0.7190    6.5390 DU        1 53H      0.243000
     35 H9          0.8330   -1.1940    3.0100 hc        1 53H      0.182667
     36 H9A         2.1870   -2.0810    2.0280 hc        1 53H      0.182667
     37 H9B         0.5630   -1.5180    1.7060 hc        1 53H      0.182667
     38 H10         2.7910   -0.2900    2.1620 DU        1 53H      0.067000
     39 H10A        3.8970   -0.4790    0.5370 hc        1 53H      0.134000
     40 H10B        3.8990    1.0230    1.5130 hc        1 53H      0.134000
     41 H11         2.3110    0.5560    2.3720 hc        1 53H      0.182667
     42 H11A        1.7310    1.1630    3.2190 hc        1 53H      0.182667
     43 H11B        0.4300    1.1530    2.0740 hc        1 53H      0.182667
     44 HN4         2.0270   -0.2800   -0.2980 DU        1 53H      0.141000
     45 HN4A        1.2330   -1.8220   -0.8700 hn        1 53H      0.137000
     46 H25        -1.7430    0.5380    2.2090 ha        1 53H      0.063000
     47 H25A       -1.5960    1.2560    2.8050 ha        1 53H      0.063000
     48 H24        -3.2880    1.0050    3.2970 DU        1 53H      0.229000
     49 H23        -3.6950    0.2460    4.4210 DU        1 53H      0.217000
     50 HO3        -3.4740    1.5080    5.3220 DU        1 53H      0.327000
     51 H22        -3.2300    0.5410    5.8220 DU        1 53H      0.366000
     52 H21        -1.9950   -0.8400    5.9280 DU        1 53H      0.154000
     53 HN6         0.7670   -4.8180    7.5260 hn        1 53H      0.093000
     54 HN6A        2.3750   -4.8040    8.3160 hn        1 53H      0.093000
     55 N6          1.5710   -5.2570    7.9280 nv        1 53H     -0.085000
     56 H221       -0.3910    1.5360    1.0800 hn        1 53H      0.175000
     57 H43         2.6710   -0.8750   -1.3560 hn        1 53H      0.137000
     58 H2         -2.6670   -5.0910    9.1190 h5        1 53H      0.171000
@<TRIPOS>BOND
     1    1    3 1   
     2    1    9 1   
     3    1   10 1   
     4    1   32 1   
     5    2    8 1   
     6    2   13 1   
     7    2   58 1   
     8    3    7 1   
     9    3   17 1   
    10    3   31 1   
    11    3   44 1   
    12    4    5 1   
    13    4   13 1   
    14    4   29 1   
    15    5    6 1   
    16    5   30 1   
    17    6    8 1   
    18    6   55 1   
    19    7   14 1   
    20    7   15 1   
    21    7   16 1   
    22    7   31 1   
    23    7   38 1   
    24    9   18 1   
    25    9   32 1   
    26    9   56 1   
    27   11   29 1   
    28   11   30 1   
    29   11   33 1   
    30   12   26 1   
    31   12   34 1   
    32   14   35 1   
    33   14   36 1   
    34   14   37 1   
    35   15   38 1   
    36   15   39 1   
    37   15   40 1   
    38   16   41 1   
    39   16   42 1   
    40   16   43 1   
    41   17   44 1   
    42   17   45 1   
    43   17   57 1   
    44   18   19 1   
    45   18   20 1   
    46   18   21 1   
    47   21   22 1   
    48   22   23 1   
    49   22   46 1   
    50   22   47 1   
    51   22   48 1   
    52   23   24 1   
    53   23   28 1   
    54   23   48 1   
    55   23   49 1   
    56   24   25 1   
    57   24   26 1   
    58   24   49 1   
    59   24   50 1   
    60   24   51 1   
    61   25   50 1   
    62   26   27 1   
    63   26   34 1   
    64   26   51 1   
    65   26   52 1   
    66   27   28 1   
    67   27   29 1   
    68   27   52 1   
    69   53   55 1   
    70   54   55 1   
@<TRIPOS>SUBSTRUCTURE
     1 53H         1 TEMP              0 ****  ****    0 ROOT
