@<TRIPOS>MOLECULE
53H
   56    58     1     0     0
SMALL
bcc


@<TRIPOS>ATOM
      1 C1         -3.1850   -2.1260    0.5330 c         1 53H      0.636100
      2 C2          6.5390    1.5270    0.0260 ca        1 53H      0.686900
      3 C3         -4.2510   -2.9530   -0.2310 c3        1 53H      0.128500
      4 C4          4.3630    1.1990    0.5500 ca        1 53H      0.446800
      5 C5          4.6860   -0.1040    1.1150 ca        1 53H     -0.226200
      6 C6          6.0620   -0.5120    1.0700 ca        1 53H      0.760200
      7 C7         -3.7030   -3.3310   -1.6370 c3        1 53H     -0.044000
      8 N1          6.9880    0.3430    0.5160 nb        1 53H     -0.795000
      9 N2         -3.2460   -0.7280    0.4660 n         1 53H     -0.702300
     10 O1         -2.3110   -2.6640    1.2290 o         1 53H     -0.551100
     11 C8          2.5350    0.1590    1.3710 cc        1 53H      0.428700
     12 O2          2.4830    4.2690   -1.2740 oh        1 53H     -0.592800
     13 N3          5.2850    2.0400   -0.0100 nb        1 53H     -0.758000
     14 C9         -2.5510   -4.3180   -1.5340 c3        1 53H     -0.095433
     15 C10        -4.8340   -3.9500   -2.4480 c3        1 53H     -0.095433
     16 C11        -3.2280   -2.0730   -2.3520 c3        1 53H     -0.095433
     17 N4         -4.6910   -4.0960    0.5310 n3        1 53H     -0.892800
     18 S1         -2.3770    0.3720    1.3090 s6        1 53H      1.698100
     19 O1A        -2.7310    1.6290    0.8260 o         1 53H     -0.632800
     20 O2A        -2.3050    0.1160    2.6600 o         1 53H     -0.632800
     21 O5         -0.8000    0.1600    0.7740 os        1 53H     -0.550500
     22 C25        -0.3260    0.6530   -0.4520 c3        1 53H      0.172400
     23 C24         0.0310    2.1390   -0.3630 c3        1 53H      0.049100
     24 C23         0.8030    2.5940   -1.6210 c3        1 53H      0.133100
     25 O3          0.1820    3.6870   -2.2480 oh        1 53H     -0.573800
     26 C22         2.2390    2.8870   -1.1280 c3        1 53H      0.081100
     27 C21         2.2260    2.5310    0.3970 c3        1 53H      0.223800
     28 O4          0.8570    2.3840    0.7810 os        1 53H     -0.385600
     29 N9          2.9770    1.3390    0.7170 na        1 53H     -0.300000
     30 N7          3.5230   -0.7140    1.6110 nd        1 53H     -0.549100
     31 H2          7.3290    2.1750   -0.4110 h5        1 53H      0.050100
     32 H3         -5.1640   -2.3020   -0.3910 h1        1 53H      0.073700
     33 HN2        -3.9000   -0.3950   -0.2130 hn        1 53H      0.342500
     34 H8          1.4700    0.0280    1.6250 h5        1 53H      0.107800
     35 HO2         3.4370    4.3960   -1.1800 ho        1 53H      0.432000
     36 H9         -2.9240   -5.3400   -1.2800 hc        1 53H      0.043700
     37 H9A        -2.0160   -4.3790   -2.5130 hc        1 53H      0.043700
     38 H9B        -1.8240   -3.9950   -0.7490 hc        1 53H      0.043700
     39 H10        -5.6820   -3.2310   -2.5460 hc        1 53H      0.043700
     40 H10A       -4.4650   -4.2100   -3.4700 hc        1 53H      0.043700
     41 H10B       -5.2110   -4.8820   -1.9620 hc        1 53H      0.043700
     42 H11        -2.2870   -1.6840   -1.8940 hc        1 53H      0.043700
     43 H11A       -3.0160   -2.3090   -3.4240 hc        1 53H      0.043700
     44 H11B       -4.0120   -1.2790   -2.3200 hc        1 53H      0.043700
     45 HN4        -3.9570   -4.7720    0.6290 hn        1 53H      0.368800
     46 HN4A       -5.0100   -3.8170    1.4380 hn        1 53H      0.368800
     47 H25         0.5890    0.0360   -0.6740 h1        1 53H      0.056700
     48 H25A       -1.0950    0.5020   -1.2580 h1        1 53H      0.056700
     49 H24        -0.8950    2.7580   -0.1890 h1        1 53H      0.124700
     50 H23         0.8150    1.7890   -2.4060 h1        1 53H      0.087700
     51 HO3         0.3330    4.4740   -1.7050 ho        1 53H      0.429000
     52 H22         2.9920    2.2870   -1.7020 h1        1 53H      0.083700
     53 H21         2.6220    3.3920    1.0170 h2        1 53H      0.107700
     54 HN6         5.7600   -2.2830    2.0310 hn        1 53H      0.447300
     55 HN6A        7.3880   -1.9930    1.5970 hn        1 53H      0.447300
     56 N6          6.4320   -1.7440    1.5430 nh        1 53H     -0.954500
@<TRIPOS>BOND
     1    1    3 1   
     2    1    9 1   
     3    1   10 2   
     4    2    8 ar  
     5    2   13 ar  
     6    2   31 1   
     7    3    7 1   
     8    3   17 1   
     9    3   32 1   
    10    4    5 ar  
    11    4   13 ar  
    12    4   29 1   
    13    5    6 ar  
    14    5   30 1   
    15    6    8 ar  
    16    6   56 1   
    17    7   14 1   
    18    7   15 1   
    19    7   16 1   
    20    9   18 1   
    21    9   33 1   
    22   11   29 1   
    23   11   30 2   
    24   11   34 1   
    25   12   26 1   
    26   12   35 1   
    27   14   36 1   
    28   14   37 1   
    29   14   38 1   
    30   15   39 1   
    31   15   40 1   
    32   15   41 1   
    33   16   42 1   
    34   16   43 1   
    35   16   44 1   
    36   17   45 1   
    37   17   46 1   
    38   18   19 2   
    39   18   20 2   
    40   18   21 1   
    41   21   22 1   
    42   22   23 1   
    43   22   47 1   
    44   22   48 1   
    45   23   24 1   
    46   23   28 1   
    47   23   49 1   
    48   24   25 1   
    49   24   26 1   
    50   24   50 1   
    51   25   51 1   
    52   26   27 1   
    53   26   52 1   
    54   27   28 1   
    55   27   29 1   
    56   27   53 1   
    57   54   56 1   
    58   55   56 1   
@<TRIPOS>SUBSTRUCTURE
     1 53H         1 TEMP              0 ****  ****    0 ROOT
