@<TRIPOS>MOLECULE
53H
   58    59     1     0     0
SMALL
bcc


@<TRIPOS>ATOM
      1 C1        219.4180   57.3140 -272.5020 c         1 53H      0.644100
      2 C2       -155.7080  -42.7680  201.9290 ca        1 53H      0.725900
      3 C3        217.9440   56.8530 -272.3260 c3        1 53H      0.039500
      4 C4       -154.8170  -43.0630  199.8710 ca        1 53H      0.487800
      5 C5       -153.8240  -43.9680  200.4170 ca        1 53H     -0.263200
      6 C6       -153.8510  -44.2030  201.8310 ca        1 53H      0.797200
      7 C7        217.1860   56.8230 -273.6800 c3        1 53H     -0.060000
      8 N1       -154.8500  -43.5610  202.5740 nb        1 53H     -0.723000
      9 N2        219.6970   58.6370 -272.3980 n         1 53H     -0.620000
     10 O1        220.2970   56.4420 -272.6710 o         1 53H     -0.598100
     11 C8       -153.3890  -43.9310  198.2700 cc        1 53H      0.399700
     12 O2       -156.9050  -41.2550  196.3770 oh        1 53H     -0.570800
     13 N3       -155.7730  -42.4520  200.5810 nb        1 53H     -0.736000
     14 C9        217.7790   55.7790 -274.6130 c3        1 53H     -0.115767
     15 C10       215.7160   56.5180 -273.4240 c3        1 53H     -0.115767
     16 C11       217.2940   58.2010 -274.3210 c3        1 53H     -0.115767
     17 N4        217.9670   55.4960 -271.6810 n4        1 53H     -0.833600
     18 S1       -151.9640  -39.9380  197.1530 s6        1 53H      1.828000
     19 O1A      -151.5780  -40.4840  198.3300 o         1 53H     -0.618300
     20 O2A      -151.3170  -40.0560  195.9720 o         1 53H     -0.618300
     21 O5       -152.5390  -38.4010  197.3370 os        1 53H     -0.538500
     22 C25      -153.9230  -38.1950  197.1630 c3        1 53H      0.155400
     23 C24      -154.5690  -39.5690  196.8680 c3        1 53H      0.138100
     24 C23      -155.6490  -39.9250  197.9040 c3        1 53H      0.137100
     25 O3       -155.0580  -39.8960  199.1810 oh        1 53H     -0.582800
     26 C22      -156.2550  -41.3330  197.6300 c3        1 53H      0.019800
     27 C21      -155.1330  -42.3380  197.4870 c2        1 53H      0.466200
     28 O4       -153.5390  -40.5310  196.8940 os        1 53H     -0.604500
     29 N9       -154.5490  -43.0140  198.4400 na        1 53H     -0.226000
     30 N7       -152.9800  -44.4650  199.3960 nd        1 53H     -0.406100
     31 H3        217.3930   57.5440 -271.6190 hx        1 53H      0.116700
     32 HN2       220.6360   58.9410 -272.5390 hn        1 53H      0.343500
     33 H8       -152.9710  -44.0790  197.2630 h5        1 53H      0.114800
     34 HO2      -157.7240  -41.7670  196.4310 ho        1 53H      0.440000
     35 H9        218.8960   55.8490 -274.6320 hc        1 53H      0.062367
     36 H9A       217.4010   55.9490 -275.6520 hc        1 53H      0.062367
     37 H9B       217.4820   54.7460 -274.3110 hc        1 53H      0.062367
     38 H10       215.2910   57.2110 -272.6580 hc        1 53H      0.062367
     39 H10A      215.5570   55.4630 -273.0960 hc        1 53H      0.062367
     40 H10B      215.1390   56.6570 -274.3740 hc        1 53H      0.062367
     41 H11       216.5910   58.2630 -275.1890 hc        1 53H      0.062367
     42 H11A      217.0180   59.0030 -273.5950 hc        1 53H      0.062367
     43 H11B      218.3260   58.3820 -274.7090 hc        1 53H      0.062367
     44 HN4       218.6450   54.9060 -272.1930 hn        1 53H      0.471133
     45 HN4A      217.0360   55.0720 -271.7270 hn        1 53H      0.471133
     46 H25      -154.3140  -37.7450  198.1130 h1        1 53H      0.095700
     47 H25A     -154.0540  -37.4880  196.3010 h1        1 53H      0.095700
     48 H24      -155.0380  -39.5990  195.8430 h1        1 53H      0.111700
     49 H23      -156.4910  -39.1810  197.8100 h1        1 53H      0.094700
     50 HO3      -155.7640  -39.7800  199.8330 ho        1 53H      0.436000
     51 H22      -156.9650  -41.6020  198.4610 h1        1 53H      0.116700
     52 H21      -154.7650  -42.4870  196.4380 h4        1 53H      0.091800
     53 HN6      -152.9790  -45.1690  203.4170 hn        1 53H      0.475300
     54 HN6A     -152.2420  -45.4510  201.8920 hn        1 53H      0.475300
     55 N6       -152.9550  -45.0180  202.4330 nh        1 53H     -0.902500
     56 H221      218.9780   59.3180 -272.3740 hn        1 53H      0.343500
     57 H43       218.2720   55.5740 -270.7080 hn        1 53H      0.471133
     58 H2       -156.4900  -42.2800  202.5580 h5        1 53H      0.087100
@<TRIPOS>BOND
     1    1    3 1   
     2    1    9 1   
     3    1   10 2   
     4    2    8 ar  
     5    2   13 ar  
     6    2   58 1   
     7    3    7 1   
     8    3   17 1   
     9    3   31 1   
    10    4    5 ar  
    11    4   13 ar  
    12    4   29 1   
    13    5    6 ar  
    14    5   30 1   
    15    6    8 ar  
    16    6   55 1   
    17    7   14 1   
    18    7   15 1   
    19    7   16 1   
    20    9   32 1   
    21    9   56 1   
    22   11   29 1   
    23   11   30 2   
    24   11   33 1   
    25   12   26 1   
    26   12   34 1   
    27   14   35 1   
    28   14   36 1   
    29   14   37 1   
    30   15   38 1   
    31   15   39 1   
    32   15   40 1   
    33   16   41 1   
    34   16   42 1   
    35   16   43 1   
    36   17   44 1   
    37   17   45 1   
    38   17   57 1   
    39   18   19 2   
    40   18   20 2   
    41   18   21 1   
    42   18   28 1   
    43   21   22 1   
    44   22   23 1   
    45   22   46 1   
    46   22   47 1   
    47   23   24 1   
    48   23   28 1   
    49   23   48 1   
    50   24   25 1   
    51   24   26 1   
    52   24   49 1   
    53   25   50 1   
    54   26   27 1   
    55   26   51 1   
    56   27   29 2   
    57   27   52 1   
    58   53   55 1   
    59   54   55 1   
@<TRIPOS>SUBSTRUCTURE
     1 53H         1 TEMP              0 ****  ****    0 ROOT
