@<TRIPOS>MOLECULE
53H
   56    50     1     0     0
SMALL
bcc


@<TRIPOS>ATOM
      1 C1          1.9060   -2.2240   -3.2110 c1        1 53H      0.349000
      2 C2         -5.4190    1.8170    4.6090 c1        1 53H      0.023000
      3 C3          3.0570   -2.2540   -4.1910 c2        1 53H     -0.030000
      4 C4         -3.0660    1.7220    4.4330 c1        1 53H      0.069000
      5 C5         -2.9690    2.8880    5.1040 c1        1 53H     -0.242000
      6 C6         -4.1170    3.5330    5.5370 c1        1 53H      0.239000
      7 C7          2.9790   -1.0460   -5.0960 c3        1 53H     -0.081000
      8 N1         -5.3220    2.9980    5.2880 n1        1 53H     -0.270000
      9 N2          2.1560   -2.0320   -1.8290 n3        1 53H     -0.860000
     10 O1          0.7660   -2.3650   -3.6080 o         1 53H     -0.337000
     11 C8         -0.9370    2.2220    4.6140 c1        1 53H     -0.043000
     12 O2         -2.9870   -1.5720    2.5630 oh        1 53H     -0.313000
     13 N3         -4.2910    1.1810    4.1820 n1        1 53H     -0.207000
     14 C9          2.9300    0.2110   -4.2560 c3        1 53H     -0.214667
     15 C10         4.1980   -1.0080   -5.9900 c3        1 53H     -0.214667
     16 C11         1.7320   -1.1330   -5.9470 c3        1 53H     -0.214667
     17 N4          4.2870   -2.2340   -3.4780 n3        1 53H     -0.348000
     18 S1          1.1040   -1.1640   -0.9170 s4        1 53H      2.043800
     19 O1A         0.9000    0.2200   -1.4850 o         1 53H     -0.543400
     20 O2A        -0.2930   -1.7280   -1.0080 o         1 53H     -0.543400
     21 O5          1.5780   -1.1050    0.5120 o         1 53H     -0.719000
     22 C25         1.0540   -0.0570    1.2920 c3        1 53H      0.026000
     23 C24        -0.0810   -0.5840    2.1510 c3        1 53H     -0.038000
     24 C23        -1.5000   -0.2060    1.4850 c3        1 53H     -0.016000
     25 O3         -1.8590   -1.1990    0.4730 oh        1 53H     -0.334000
     26 C22        -2.3640   -0.2220    2.4490 c3        1 53H      0.011000
     27 C21        -1.5470    0.0990    3.7170 c3        1 53H      0.163000
     28 O4         -0.0610   -0.0190    3.3020 os        1 53H     -0.265000
     29 N9         -1.8070    1.3080    4.1280 n2        1 53H     -0.211000
     30 N7         -1.6500    3.1990    5.2170 n1        1 53H     -0.120000
     31 N6         -4.4940    4.8120    6.0200 n3        1 53H     -0.356000
     32 H2         -6.2960    1.4290    4.4290 ha        1 53H      0.189000
     33 H3          3.0050   -3.0680   -4.7290 h4        1 53H      0.137000
     34 HN2         2.8960   -2.4010   -1.4440 hn        1 53H      0.272000
     35 H8          0.0360    2.1800    4.5470 DU        1 53H      0.210000
     36 HO2        -3.8430   -1.5240    2.3310 ho        1 53H      0.233000
     37 H9          3.6560    0.1930   -3.5980 hc        1 53H      0.084111
     38 H9A         3.0330    0.9940   -4.8350 hc        1 53H      0.084111
     39 H9B         2.0680    0.2590   -3.7910 hc        1 53H      0.084111
     40 H10         4.0500   -0.3670   -6.7170 hc        1 53H      0.084111
     41 H10A        4.3560   -1.8990   -6.3670 hc        1 53H      0.084111
     42 H10B        4.9790   -0.7320   -5.4660 hc        1 53H      0.084111
     43 H11         1.6280   -2.0490   -6.2820 hc        1 53H      0.084111
     44 H11A        0.9510   -0.8920   -5.4080 hc        1 53H      0.084111
     45 H11B        1.8100   -0.5160   -6.7050 hc        1 53H      0.084111
     46 HN4         4.9830   -2.3240   -4.0660 hn        1 53H      0.161500
     47 HN4A        4.3040   -2.9260   -2.8780 hn        1 53H      0.161500
     48 H25         1.7590    0.3050    1.8680 h1        1 53H      0.104500
     49 H25A        0.7180    0.6510    0.7040 h1        1 53H      0.104500
     50 H24        -0.0050   -1.5530    2.2510 h1        1 53H      0.140000
     51 H23        -1.4580    0.6850    1.0840 h1        1 53H      0.110000
     52 HO3        -2.4810   -0.8610   -0.0660 ho        1 53H      0.247000
     53 H22        -3.0500    0.4600    2.3040 h1        1 53H      0.127000
     54 H21        -1.7520   -0.5480    4.4220 h2        1 53H      0.160000
     55 HN6        -5.3610    4.9710    6.2630 hn        1 53H      0.242500
     56 HN6A       -3.8700    5.4760    6.0920 hn        1 53H      0.242500
@<TRIPOS>BOND
     1    1    9 1   
     2    1   10 1   
     3    2    8 1   
     4    2   32 1   
     5    3    7 1   
     6    3   17 1   
     7    3   33 1   
     8    4   13 1   
     9    5    6 1   
    10    6   31 1   
    11    7   14 1   
    12    7   15 1   
    13    7   16 1   
    14    9   18 1   
    15    9   34 1   
    16   11   29 1   
    17   11   30 1   
    18   12   26 1   
    19   12   36 1   
    20   14   37 1   
    21   14   38 1   
    22   14   39 1   
    23   15   40 1   
    24   15   41 1   
    25   15   42 1   
    26   16   43 1   
    27   16   44 1   
    28   16   45 1   
    29   17   46 1   
    30   17   47 1   
    31   18   19 1   
    32   18   20 1   
    33   21   22 1   
    34   22   23 1   
    35   22   48 1   
    36   22   49 1   
    37   23   24 1   
    38   23   28 1   
    39   23   50 1   
    40   24   25 1   
    41   24   26 1   
    42   24   51 1   
    43   25   52 1   
    44   26   27 1   
    45   26   53 1   
    46   27   28 1   
    47   27   29 1   
    48   27   54 1   
    49   31   55 1   
    50   31   56 1   
@<TRIPOS>SUBSTRUCTURE
     1 53H         1 TEMP              0 ****  ****    0 ROOT
