@<TRIPOS>MOLECULE
53I
   67    70     1     0     0
SMALL
bcc


@<TRIPOS>ATOM
      1 O30         3.1540   -2.9450   -0.5450 o         1 53I     -0.578100
      2 C16         2.4510   -2.1360    0.0840 c         1 53I      0.712300
      3 N17         3.0010   -1.3220    1.1160 n         1 53I     -0.250800
      4 N18         4.2560   -1.5620    1.5380 n2        1 53I     -0.412300
      5 C19         4.7000   -0.9960    2.6290 ce        1 53I      0.368800
      6 C25         3.9150   -0.0970    3.4700 ca        1 53I     -0.150900
      7 C26         4.3320    0.3240    4.7340 ca        1 53I     -0.101000
      8 C27         3.4950    1.1350    5.5010 ca        1 53I     -0.128000
      9 C28         2.2450    1.5170    5.0110 ca        1 53I     -0.119000
     10 C29         1.8250    1.1020    3.7470 ca        1 53I     -0.116000
     11 C24         2.6610    0.3010    2.9700 ca        1 53I     -0.081300
     12 C20         2.2550   -0.1240    1.5730 c3        1 53I      0.178200
     13 C21         2.4740    1.0570    0.6630 c2        1 53I     -0.208200
     14 C22         1.5000    1.7930    0.1070 c2        1 53I     -0.085400
     15 C23         0.0520    1.5100    0.2510 c3        1 53I     -0.069400
     16 C37         1.8290    2.9740   -0.7320 c3        1 53I     -0.069400
     17 C15         0.9850   -2.0390   -0.1300 ce        1 53I     -0.240200
     18 C14         0.3580   -1.8490   -1.2960 cf        1 53I     -0.013200
     19 C13         0.9400   -1.6770   -2.6200 ca        1 53I     -0.084800
     20 C10         0.4870   -0.6200   -3.4400 ca        1 53I      0.113100
     21 O11        -0.5220    0.1560   -2.9060 os        1 53I     -0.337900
     22 C12        -0.5890    1.5130   -3.3410 c3        1 53I      0.124700
     23 C07         1.0240   -0.4720   -4.7390 ca        1 53I      0.069100
     24 O08         0.5240    0.5770   -5.4940 os        1 53I     -0.337900
     25 C09         1.1430    0.7900   -6.7590 c3        1 53I      0.112700
     26 C06         1.9980   -1.3600   -5.2020 ca        1 53I     -0.153000
     27 C05         2.4290   -2.4170   -4.3940 ca        1 53I     -0.074300
     28 C04         3.4560   -3.3730   -4.9070 c3        1 53I      0.036200
     29 C03         4.8040   -2.7660   -5.0090 ca        1 53I     -0.433900
     30 C32         5.3220   -2.3850   -6.2550 ca        1 53I      0.485200
     31 N33         6.5270   -1.8310   -6.4470 nb        1 53I     -0.789000
     32 C34         7.2800   -1.6190   -5.2940 ca        1 53I      0.891900
     33 N35         8.4950   -0.9300   -5.4320 nh        1 53I     -0.924500
     34 N36         6.8990   -1.9740   -4.0160 nb        1 53I     -0.823000
     35 C02         5.6620   -2.5540   -3.8710 ca        1 53I      0.728200
     36 N01         5.2910   -3.0040   -2.6190 nh        1 53I     -0.932500
     37 C31         1.8850   -2.5790   -3.1190 ca        1 53I     -0.115000
     38 H1          5.7350   -1.2460    2.9210 h4        1 53I      0.044800
     39 H2          5.3130    0.0130    5.1210 ha        1 53I      0.139000
     40 H3          3.8210    1.4700    6.4970 ha        1 53I      0.136000
     41 H4          1.5870    2.1520    5.6240 ha        1 53I      0.135000
     42 H5          0.8420    1.4110    3.3620 ha        1 53I      0.136000
     43 H6          1.1570   -0.3970    1.5950 h1        1 53I      0.074700
     44 H7          3.5330    1.3150    0.4930 ha        1 53I      0.139000
     45 H8         -0.5620    2.3860   -0.0760 hc        1 53I      0.046367
     46 H9         -0.2270    0.6320   -0.3920 hc        1 53I      0.046367
     47 H10        -0.2160    1.2770    1.3110 hc        1 53I      0.046367
     48 H11         2.9280    3.0600   -0.9180 hc        1 53I      0.046367
     49 H12         1.3070    2.8970   -1.7190 hc        1 53I      0.046367
     50 H13         1.4820    3.9090   -0.2240 hc        1 53I      0.046367
     51 H14         0.3880   -2.1900    0.7880 ha        1 53I      0.147000
     52 H15        -0.7500   -1.7870   -1.2940 ha        1 53I      0.145000
     53 H16        -1.1270    2.0300   -2.5060 h1        1 53I      0.047033
     54 H17        -1.1760    1.5640   -4.2910 h1        1 53I      0.047033
     55 H18         0.4270    1.9490   -3.4890 h1        1 53I      0.047033
     56 H19         0.6200    1.6990   -7.1510 h1        1 53I      0.046700
     57 H20         2.2360    0.9840   -6.6390 h1        1 53I      0.046700
     58 H21         0.9690   -0.0830   -7.4330 h1        1 53I      0.046700
     59 H22         2.4370   -1.2420   -6.2040 ha        1 53I      0.144000
     60 H23         3.1320   -3.7270   -5.9270 hc        1 53I      0.056200
     61 H24         3.4910   -4.2850   -4.2500 hc        1 53I      0.056200
     62 H25         4.7280   -2.5410   -7.1760 h4        1 53I      0.014100
     63 H26         8.8940   -0.9350   -6.3420 hn        1 53I      0.419800
     64 H27         9.1380   -1.0220   -4.6790 hn        1 53I      0.419800
     65 H28         4.3170   -3.1310   -2.4570 hn        1 53I      0.437800
     66 H29         5.8260   -2.7220   -1.8300 hn        1 53I      0.437800
     67 H30         2.1950   -3.4290   -2.4870 ha        1 53I      0.164000
@<TRIPOS>BOND
     1    1    2 2   
     2    2    3 1   
     3    2   17 1   
     4    3    4 1   
     5    3   12 1   
     6    4    5 2   
     7    5    6 1   
     8    5   38 1   
     9    6    7 ar  
    10    6   11 ar  
    11    7    8 ar  
    12    7   39 1   
    13    8    9 ar  
    14    8   40 1   
    15    9   10 ar  
    16    9   41 1   
    17   10   11 ar  
    18   10   42 1   
    19   11   12 1   
    20   12   13 1   
    21   12   43 1   
    22   13   14 2   
    23   13   44 1   
    24   14   15 1   
    25   14   16 1   
    26   15   45 1   
    27   15   46 1   
    28   15   47 1   
    29   16   48 1   
    30   16   49 1   
    31   16   50 1   
    32   17   18 2   
    33   17   51 1   
    34   18   19 1   
    35   18   52 1   
    36   19   20 ar  
    37   19   37 ar  
    38   20   21 1   
    39   20   23 ar  
    40   21   22 1   
    41   22   53 1   
    42   22   54 1   
    43   22   55 1   
    44   23   24 1   
    45   23   26 ar  
    46   24   25 1   
    47   25   56 1   
    48   25   57 1   
    49   25   58 1   
    50   26   27 ar  
    51   26   59 1   
    52   27   28 1   
    53   27   37 ar  
    54   28   29 1   
    55   28   60 1   
    56   28   61 1   
    57   29   30 ar  
    58   29   35 ar  
    59   30   31 ar  
    60   30   62 1   
    61   31   32 ar  
    62   32   33 1   
    63   32   34 ar  
    64   33   63 1   
    65   33   64 1   
    66   34   35 ar  
    67   35   36 1   
    68   36   65 1   
    69   36   66 1   
    70   37   67 1   
@<TRIPOS>SUBSTRUCTURE
     1 53I         1 TEMP              0 ****  ****    0 ROOT
