@<TRIPOS>MOLECULE
53I
   67    57     1     0     0
SMALL
bcc


@<TRIPOS>ATOM
      1 O30         0.3310   -2.0160   -0.1770 o         1 53I     -0.350000
      2 C16        -0.1000   -1.7760    0.9660 c1        1 53I      0.376000
      3 N17        -1.4690   -2.1700    1.3120 n2        1 53I     -0.272000
      4 N18        -2.0470   -1.7250    2.5280 n2        1 53I     -0.005000
      5 C19        -3.4110   -1.3790    2.5670 c1        1 53I     -0.127000
      6 C25        -4.3270   -1.7770    1.4210 c1        1 53I     -0.072000
      7 C26        -5.7170   -1.8370    1.6880 c2        1 53I     -0.101000
      8 C27        -6.5620   -2.5610    0.8390 c1        1 53I     -0.130000
      9 C28        -6.0320   -3.2280   -0.2790 c1        1 53I     -0.116500
     10 C29        -4.6650   -3.1700   -0.5430 c1        1 53I     -0.116500
     11 C24        -3.8060   -2.4350    0.3180 c1        1 53I     -0.068000
     12 C20        -2.3100   -2.8490    0.2970 c2        1 53I      0.083000
     13 C21        -1.6870   -2.6630   -1.1250 c2        1 53I     -0.197000
     14 C22        -0.9490   -3.6820   -1.6910 c1        1 53I     -0.079000
     15 C23        -0.3520   -3.5070   -3.0610 c3        1 53I     -0.188000
     16 C37        -0.7360   -5.0270   -0.9030 c2        1 53I     -0.205000
     17 C15         0.9290   -1.4460    2.1260 c2        1 53I     -0.167000
     18 C14         1.3700   -0.1170    2.3250 c1        1 53I     -0.056000
     19 C13         0.8580    0.9970    1.4340 c1        1 53I     -0.035000
     20 C10         0.1080    2.0240    1.9990 c2        1 53I      0.042000
     21 O11        -0.3740    1.8970    3.3210 os        1 53I     -0.211000
     22 C12         0.5690    2.3400    4.3390 c3        1 53I     -0.076000
     23 C07        -0.1320    3.1860    1.2810 c1        1 53I      0.049000
     24 O08        -0.8720    4.2820    1.8990 os        1 53I     -0.210000
     25 C09        -0.1220    5.4330    2.0860 c3        1 53I     -0.076000
     26 C06         0.3890    3.3300   -0.0370 c1        1 53I     -0.198000
     27 C05         1.1380    2.3050   -0.6030 c1        1 53I     -0.058000
     28 C04         1.6490    2.4300   -2.0690 c2        1 53I     -0.062000
     29 C03         3.0990    2.0280   -2.1280 c2        1 53I     -0.284000
     30 C32         3.4300    0.7240   -2.0660 c2        1 53I      0.026000
     31 N33         4.6850    0.3300   -2.3700 n1        1 53I     -0.249000
     32 C34         5.6070    1.2410   -2.7370 c1        1 53I      0.178000
     33 N35         6.9460    0.8340   -3.0060 n2        1 53I     -0.329500
     34 N36         5.2760    2.5550   -2.8010 n1        1 53I     -0.291000
     35 C02         4.0360    2.9480   -2.5000 c1        1 53I      0.185000
     36 N01         3.6920    4.3210   -2.5720 n2        1 53I     -0.329500
     37 C31         1.3780    1.1400    0.1180 c2        1 53I     -0.124000
     38 H1         -3.7770   -0.8480    3.3440 ha        1 53I      0.172000
     39 H2         -6.0970   -1.3610    2.4860 ha        1 53I      0.137000
     40 H3         -7.4800   -2.5990    1.0160 ha        1 53I      0.135000
     41 H4         -6.6440   -3.7500   -0.8930 ha        1 53I      0.137500
     42 H5         -4.2810   -3.6550   -1.3520 ha        1 53I      0.137500
     43 H6         -2.2410   -3.8030    0.3950 h4        1 53I      0.132000
     44 H7         -1.8590   -1.8000   -1.6520 ha        1 53I      0.133000
     45 H8         -0.1590   -4.4500   -3.4810 hc        1 53I      0.083000
     46 H9         -0.9850   -3.0160   -3.6330 hc        1 53I      0.083000
     47 H10         0.5110   -2.9890   -2.9900 hc        1 53I      0.083000
     48 H11        -0.5680   -4.8350    0.0220 ha        1 53I      0.093333
     49 H12        -1.4940   -5.5520   -0.9760 ha        1 53I      0.093333
     50 H13         0.0350   -5.5100   -1.2800 ha        1 53I      0.093333
     51 H14         1.2580   -2.1600    2.7010 ha        1 53I      0.154000
     52 H15         2.0130    0.0870    3.0500 ha        1 53I      0.143000
     53 H16         1.2910    2.8870    3.9120 h1        1 53I      0.083667
     54 H17         0.1030    2.8800    4.9980 h1        1 53I      0.083667
     55 H18         0.9700    1.5550    4.7800 h1        1 53I      0.083667
     56 H19         0.8170    5.2050    2.1180 h1        1 53I      0.084333
     57 H20        -0.2790    6.0370    1.3570 h1        1 53I      0.084333
     58 H21        -0.3970    5.8850    2.9720 h1        1 53I      0.084333
     59 H22         0.2110    4.1890   -0.5690 ha        1 53I      0.140000
     60 H23         1.1030    1.8210   -2.6730 ha        1 53I      0.097500
     61 H24         1.5530    3.3750   -2.3730 ha        1 53I      0.097500
     62 H25         2.7820    0.0830   -1.8080 h4        1 53I      0.165000
     63 H26         7.5790    1.4460   -3.1140 hn        1 53I      0.215750
     64 H27         7.1420   -0.0690   -3.1360 hn        1 53I      0.215750
     65 H28         4.3110    4.9370   -2.8710 hn        1 53I      0.215750
     66 H29         2.8660    4.6060   -2.2710 hn        1 53I      0.215750
     67 H30         1.9000    0.4270   -0.2760 ha        1 53I      0.167000
@<TRIPOS>BOND
     1    1    2 1   
     2    2   17 1   
     3    3    4 1   
     4    3   12 1   
     5    4    5 1   
     6    5   38 1   
     7    6    7 1   
     8    6   11 1   
     9    7    8 1   
    10    7   39 1   
    11    8   40 1   
    12    9   10 1   
    13    9   41 1   
    14   10   42 1   
    15   12   13 1   
    16   12   43 1   
    17   13   14 1   
    18   13   44 1   
    19   14   15 1   
    20   15   45 1   
    21   15   46 1   
    22   15   47 1   
    23   16   48 1   
    24   16   49 1   
    25   16   50 1   
    26   17   18 1   
    27   17   51 1   
    28   18   52 1   
    29   19   20 1   
    30   19   37 1   
    31   20   21 1   
    32   20   23 1   
    33   21   22 1   
    34   22   53 1   
    35   22   54 1   
    36   22   55 1   
    37   23   24 1   
    38   24   25 1   
    39   25   56 1   
    40   25   57 1   
    41   25   58 1   
    42   26   27 1   
    43   26   59 1   
    44   27   37 1   
    45   28   29 1   
    46   28   60 1   
    47   28   61 1   
    48   29   30 1   
    49   29   35 1   
    50   30   31 1   
    51   30   62 1   
    52   32   34 1   
    53   33   63 1   
    54   33   64 1   
    55   36   65 1   
    56   36   66 1   
    57   37   67 1   
@<TRIPOS>SUBSTRUCTURE
     1 53I         1 TEMP              0 ****  ****    0 ROOT
