@<TRIPOS>MOLECULE
53I
   67    70     1     0     0
SMALL
bcc


@<TRIPOS>ATOM
      1 O30         2.5080   -1.9870   -0.6810 o         1 53I     -0.594100
      2 C16         2.0160   -0.9800   -0.1380 c         1 53I      0.697300
      3 N17         2.8530    0.1460    0.0800 n         1 53I     -0.242800
      4 N18         2.3270    1.2960    0.5240 n2        1 53I     -0.437300
      5 C19         2.9950    2.4140    0.4150 ce        1 53I      0.375800
      6 C25         4.3060    2.5340   -0.2160 ca        1 53I     -0.156900
      7 C26         4.9110    3.7640   -0.4830 ca        1 53I     -0.101000
      8 C27         6.1380    3.7990   -1.1430 ca        1 53I     -0.131000
      9 C28         6.7560    2.6130   -1.5410 ca        1 53I     -0.118000
     10 C29         6.1590    1.3810   -1.2740 ca        1 53I     -0.115000
     11 C24         4.9360    1.3370   -0.6030 ca        1 53I     -0.074300
     12 C20         4.2930    0.0100   -0.2630 c3        1 53I      0.172200
     13 C21         5.0700   -0.6060    0.8700 c2        1 53I     -0.207200
     14 C22         5.7180   -1.7780    0.7960 c2        1 53I     -0.077400
     15 C23         5.7260   -2.6380   -0.4130 c3        1 53I     -0.071400
     16 C37         6.4850   -2.3000    1.9550 c3        1 53I     -0.071400
     17 C15         0.5980   -0.9240    0.2860 ce        1 53I     -0.207200
     18 C14        -0.3110   -1.7130   -0.3080 cf        1 53I     -0.038200
     19 C13        -1.7230   -1.7470    0.0410 ca        1 53I     -0.051800
     20 C10        -2.4970   -2.8680   -0.3180 ca        1 53I      0.092100
     21 O11        -1.9180   -3.8500   -1.1030 os        1 53I     -0.329900
     22 C12        -1.8000   -5.1230   -0.4650 c3        1 53I      0.115700
     23 C07        -3.8680   -2.9150    0.0250 ca        1 53I      0.097100
     24 O08        -4.5370   -4.0660   -0.3460 os        1 53I     -0.320900
     25 C09        -5.9220   -4.1220   -0.0220 c3        1 53I      0.111700
     26 C06        -4.4630   -1.8450    0.7000 ca        1 53I     -0.198000
     27 C05        -3.6960   -0.7230    1.0370 ca        1 53I     -0.069300
     28 C04        -4.3300    0.4100    1.7780 c3        1 53I      0.033200
     29 C03        -4.1750    1.7220    1.1090 ca        1 53I     -0.427900
     30 C32        -3.4420    2.7570    1.7120 ca        1 53I      0.490200
     31 N33        -3.2960    3.9840    1.1980 nb        1 53I     -0.778000
     32 C34        -3.9380    4.2120   -0.0190 ca        1 53I      0.898900
     33 N35        -3.9010    5.5090   -0.5380 nh        1 53I     -0.929500
     34 N36        -4.6490    3.2640   -0.7320 nb        1 53I     -0.818000
     35 C02        -4.7880    2.0300   -0.1530 ca        1 53I      0.714200
     36 N01        -5.5910    1.0860   -0.7880 nh        1 53I     -0.933500
     37 C31        -2.3410   -0.6810    0.7100 ca        1 53I     -0.125000
     38 H1          2.5050    3.3160    0.8210 h4        1 53I      0.041800
     39 H2          4.4170    4.6970   -0.1760 ha        1 53I      0.136000
     40 H3          6.6190    4.7660   -1.3540 ha        1 53I      0.135000
     41 H4          7.7220    2.6470   -2.0680 ha        1 53I      0.135000
     42 H5          6.6490    0.4460   -1.5840 ha        1 53I      0.140000
     43 H6          4.3440   -0.6590   -1.1770 h1        1 53I      0.094700
     44 H7          5.0880   -0.0100    1.7960 ha        1 53I      0.131000
     45 H8          6.2470   -2.1190   -1.2560 hc        1 53I      0.047867
     46 H9          6.2550   -3.6030   -0.2180 hc        1 53I      0.047867
     47 H10         4.6770   -2.8670   -0.7340 hc        1 53I      0.047867
     48 H11         6.4620   -1.5950    2.8220 hc        1 53I      0.047867
     49 H12         6.0550   -3.2790    2.2840 hc        1 53I      0.047867
     50 H13         7.5520   -2.4670    1.6630 hc        1 53I      0.047867
     51 H14         0.3390   -0.2350    1.1050 ha        1 53I      0.158000
     52 H15        -0.0070   -2.4130   -1.1130 ha        1 53I      0.166000
     53 H16        -1.1580   -5.0420    0.4450 h1        1 53I      0.046700
     54 H17        -2.8070   -5.5260   -0.2020 h1        1 53I      0.046700
     55 H18        -1.3070   -5.7570   -1.2440 h1        1 53I      0.046700
     56 H19        -6.0720   -4.0750    1.0830 h1        1 53I      0.046367
     57 H20        -6.4810   -3.3000   -0.5310 h1        1 53I      0.046367
     58 H21        -6.2380   -5.1190   -0.4220 h1        1 53I      0.046367
     59 H22        -5.5280   -1.8770    0.9730 ha        1 53I      0.143000
     60 H23        -5.4260    0.2000    1.9290 hc        1 53I      0.057700
     61 H24        -3.8650    0.4560    2.8030 hc        1 53I      0.057700
     62 H25        -2.9320    2.5900    2.6800 h4        1 53I      0.022100
     63 H26        -3.1930    6.1090   -0.1870 hn        1 53I      0.427300
     64 H27        -4.1410    5.6170   -1.4960 hn        1 53I      0.427300
     65 H28        -5.8530    1.2730   -1.7300 hn        1 53I      0.418800
     66 H29        -5.3590    0.1380   -0.5910 hn        1 53I      0.418800
     67 H30        -1.7530    0.2120    0.9730 ha        1 53I      0.149000
@<TRIPOS>BOND
     1    1    2 2   
     2    2    3 1   
     3    2   17 1   
     4    3    4 1   
     5    3   12 1   
     6    4    5 2   
     7    5    6 1   
     8    5   38 1   
     9    6    7 ar  
    10    6   11 ar  
    11    7    8 ar  
    12    7   39 1   
    13    8    9 ar  
    14    8   40 1   
    15    9   10 ar  
    16    9   41 1   
    17   10   11 ar  
    18   10   42 1   
    19   11   12 1   
    20   12   13 1   
    21   12   43 1   
    22   13   14 2   
    23   13   44 1   
    24   14   15 1   
    25   14   16 1   
    26   15   45 1   
    27   15   46 1   
    28   15   47 1   
    29   16   48 1   
    30   16   49 1   
    31   16   50 1   
    32   17   18 2   
    33   17   51 1   
    34   18   19 1   
    35   18   52 1   
    36   19   20 ar  
    37   19   37 ar  
    38   20   21 1   
    39   20   23 ar  
    40   21   22 1   
    41   22   53 1   
    42   22   54 1   
    43   22   55 1   
    44   23   24 1   
    45   23   26 ar  
    46   24   25 1   
    47   25   56 1   
    48   25   57 1   
    49   25   58 1   
    50   26   27 ar  
    51   26   59 1   
    52   27   28 1   
    53   27   37 ar  
    54   28   29 1   
    55   28   60 1   
    56   28   61 1   
    57   29   30 ar  
    58   29   35 ar  
    59   30   31 ar  
    60   30   62 1   
    61   31   32 ar  
    62   32   33 1   
    63   32   34 ar  
    64   33   63 1   
    65   33   64 1   
    66   34   35 ar  
    67   35   36 1   
    68   36   65 1   
    69   36   66 1   
    70   37   67 1   
@<TRIPOS>SUBSTRUCTURE
     1 53I         1 TEMP              0 ****  ****    0 ROOT
