@<TRIPOS>MOLECULE
53I
   67    70     1     0     0
SMALL
bcc


@<TRIPOS>ATOM
      1 O30         3.2550   -3.1770   -0.2450 o         1 53I     -0.550100
      2 C16         2.4880   -2.2970    0.1770 c         1 53I      0.698300
      3 N17         2.8430   -1.4670    1.2780 n         1 53I     -0.250800
      4 N18         4.0530   -1.6180    1.8480 n2        1 53I     -0.406300
      5 C19         4.2650   -1.1980    3.0680 ce        1 53I      0.364800
      6 C25         3.2430   -0.5960    3.9200 ca        1 53I     -0.150900
      7 C26         3.4250   -0.3740    5.2860 ca        1 53I     -0.101000
      8 C27         2.3740    0.1390    6.0460 ca        1 53I     -0.127000
      9 C28         1.1460    0.4210    5.4460 ca        1 53I     -0.120000
     10 C29         0.9600    0.2040    4.0800 ca        1 53I     -0.116000
     11 C24         2.0110   -0.2950    3.3110 ca        1 53I     -0.084300
     12 C20         1.8630   -0.4910    1.8140 c3        1 53I      0.177200
     13 C21         2.0150    0.8620    1.1670 c2        1 53I     -0.194200
     14 C22         1.0070    1.5790    0.6500 c2        1 53I     -0.095400
     15 C23        -0.3980    1.1070    0.5930 c3        1 53I     -0.066900
     16 C37         1.2480    2.9310    0.0830 c3        1 53I     -0.066900
     17 C15         1.1280   -2.1280   -0.3950 ce        1 53I     -0.233200
     18 C14         0.7850   -1.6280   -1.5860 cf        1 53I     -0.032200
     19 C13         1.6080   -1.0200   -2.6200 ca        1 53I     -0.059800
     20 C10         1.0040   -0.1070   -3.5110 ca        1 53I      0.089100
     21 O11        -0.3660    0.0800   -3.4380 os        1 53I     -0.335900
     22 C12        -0.7710    1.4070   -3.1010 c3        1 53I      0.111700
     23 C07         1.7730    0.4980   -4.5320 ca        1 53I      0.092100
     24 O08         1.1060    1.4080   -5.3300 os        1 53I     -0.327900
     25 C09         1.8000    1.8440   -6.4950 c3        1 53I      0.112700
     26 C06         3.1270    0.1820   -4.6730 ca        1 53I     -0.175000
     27 C05         3.7160   -0.7500   -3.8120 ca        1 53I     -0.060300
     28 C04         5.1660   -1.0750   -3.9460 c3        1 53I      0.034200
     29 C03         5.5060   -1.9240   -5.1120 ca        1 53I     -0.414900
     30 C32         4.5420   -2.4180   -6.0060 ca        1 53I      0.489200
     31 N33         4.8140   -3.1710   -7.0790 nb        1 53I     -0.773000
     32 C34         6.1590   -3.4650   -7.2890 ca        1 53I      0.889900
     33 N35         6.4990   -4.1560   -8.4600 nv        1 53I     -0.924500
     34 N36         7.1940   -3.0840   -6.4550 nb        1 53I     -0.816000
     35 C02         6.8680   -2.2940   -5.3850 ca        1 53I      0.699200
     36 N01         7.9020   -1.8010   -4.5900 nv        1 53I     -0.933500
     37 C31         2.9580   -1.3440   -2.8010 ca        1 53I     -0.122000
     38 H1          5.2870   -1.3370    3.4610 h4        1 53I      0.043800
     39 H2          4.3900   -0.6090    5.7580 ha        1 53I      0.139000
     40 H3          2.5130    0.3190    7.1220 ha        1 53I      0.136000
     41 H4          0.3180    0.8190    6.0520 ha        1 53I      0.135000
     42 H5         -0.0090    0.4320    3.6120 ha        1 53I      0.136000
     43 H6          0.8260   -0.8980    1.6160 h1        1 53I      0.073700
     44 H7          3.0430    1.2620    1.1670 ha        1 53I      0.139000
     45 H8         -0.7770    0.8600    1.6150 hc        1 53I      0.044867
     46 H9         -0.4680    0.1850   -0.0420 hc        1 53I      0.044867
     47 H10        -1.0680    1.8860    0.1540 hc        1 53I      0.044867
     48 H11         0.6350    3.6890    0.6310 hc        1 53I      0.044867
     49 H12         2.3240    3.2260    0.1560 hc        1 53I      0.044867
     50 H13         0.9500    2.9520   -0.9960 hc        1 53I      0.044867
     51 H14         0.3440   -2.5610    0.2550 ha        1 53I      0.146000
     52 H15        -0.2940   -1.6450   -1.8510 ha        1 53I      0.149000
     53 H16        -1.8870    1.3670   -3.1820 h1        1 53I      0.045367
     54 H17        -0.3490    2.1510   -3.8180 h1        1 53I      0.045367
     55 H18        -0.4570    1.6460   -2.0550 h1        1 53I      0.045367
     56 H19         2.1210    0.9750   -7.1180 h1        1 53I      0.047033
     57 H20         2.6810    2.4710   -6.2120 h1        1 53I      0.047033
     58 H21         1.0370    2.4580   -7.0360 h1        1 53I      0.047033
     59 H22         3.7350    0.6490   -5.4620 ha        1 53I      0.148000
     60 H23         5.5100   -1.5910   -3.0040 hc        1 53I      0.055200
     61 H24         5.7370   -0.1060   -4.0190 hc        1 53I      0.055200
     62 H25         3.4690   -2.1930   -5.8490 h4        1 53I      0.033100
     63 H26         7.3960   -4.5830   -8.4770 hn        1 53I      0.423300
     64 H27         5.7650   -4.6650   -8.8960 hn        1 53I      0.423300
     65 H28         7.6530   -1.6160   -3.6450 hn        1 53I      0.414800
     66 H29         8.8020   -2.2080   -4.7160 hn        1 53I      0.414800
     67 H30         3.4310   -2.0940   -2.1440 ha        1 53I      0.170000
@<TRIPOS>BOND
     1    1    2 2   
     2    2    3 1   
     3    2   17 1   
     4    3    4 1   
     5    3   12 1   
     6    4    5 2   
     7    5    6 1   
     8    5   38 1   
     9    6    7 ar  
    10    6   11 ar  
    11    7    8 ar  
    12    7   39 1   
    13    8    9 ar  
    14    8   40 1   
    15    9   10 ar  
    16    9   41 1   
    17   10   11 ar  
    18   10   42 1   
    19   11   12 1   
    20   12   13 1   
    21   12   43 1   
    22   13   14 2   
    23   13   44 1   
    24   14   15 1   
    25   14   16 1   
    26   15   45 1   
    27   15   46 1   
    28   15   47 1   
    29   16   48 1   
    30   16   49 1   
    31   16   50 1   
    32   17   18 2   
    33   17   51 1   
    34   18   19 1   
    35   18   52 1   
    36   19   20 ar  
    37   19   37 ar  
    38   20   21 1   
    39   20   23 ar  
    40   21   22 1   
    41   22   53 1   
    42   22   54 1   
    43   22   55 1   
    44   23   24 1   
    45   23   26 ar  
    46   24   25 1   
    47   25   56 1   
    48   25   57 1   
    49   25   58 1   
    50   26   27 ar  
    51   26   59 1   
    52   27   28 1   
    53   27   37 ar  
    54   28   29 1   
    55   28   60 1   
    56   28   61 1   
    57   29   30 ar  
    58   29   35 ar  
    59   30   31 ar  
    60   30   62 1   
    61   31   32 ar  
    62   32   33 1   
    63   32   34 ar  
    64   33   63 1   
    65   33   64 1   
    66   34   35 ar  
    67   35   36 1   
    68   36   65 1   
    69   36   66 1   
    70   37   67 1   
@<TRIPOS>SUBSTRUCTURE
     1 53I         1 TEMP              0 ****  ****    0 ROOT
