@<TRIPOS>MOLECULE
53I
   69    72     1     0     0
SMALL
bcc


@<TRIPOS>ATOM
      1 O30         2.8640   -2.5750   -2.3030 o         1 53I     -0.715100
      2 C16         2.2760   -1.9920   -1.3550 c         1 53I      0.725300
      3 N17         2.8520   -1.9320   -0.0760 n         1 53I     -0.219800
      4 N18         4.0130   -2.5850    0.1730 n2        1 53I     -0.536300
      5 C19         4.3500   -2.8640    1.4060 ce        1 53I      0.445800
      6 C25         3.5620   -2.5360    2.5850 ca        1 53I     -0.197900
      7 C26         3.8560   -3.0270    3.8590 ca        1 53I     -0.078000
      8 C27         3.0220   -2.7000    4.9290 ca        1 53I     -0.115000
      9 C28         1.9030   -1.8910    4.7250 ca        1 53I     -0.079000
     10 C29         1.6090   -1.3950    3.4530 ca        1 53I     -0.112000
     11 C24         2.4420   -1.7100    2.3810 ca        1 53I     -0.072300
     12 C20         2.1700   -1.1510    1.0010 c3        1 53I      0.180200
     13 C21         2.5990    0.2900    0.9820 c2        1 53I     -0.248200
     14 C22         1.7580    1.3350    0.9330 c2        1 53I     -0.048400
     15 C23         0.2830    1.2090    0.8380 c3        1 53I     -0.079900
     16 C37         2.2710    2.7280    0.9960 c3        1 53I     -0.079900
     17 C15         0.9440   -1.3740   -1.5640 ce        1 53I     -0.234200
     18 C14         0.6040   -0.4840   -2.5070 cf        1 53I     -0.019200
     19 C13         1.4310    0.1040   -3.5480 ca        1 53I     -0.097800
     20 C10         0.8070    0.6360   -4.7060 ca        1 53I      0.176100
     21 O11        -0.5520    0.5300   -4.7260 os        1 53I     -0.316900
     22 C12        -1.3020    1.3170   -5.6590 c3        1 53I      0.119700
     23 C07         1.6190    1.1530   -5.7560 ca        1 53I      0.079100
     24 O08         0.9560    1.6360   -6.8600 os        1 53I     -0.320900
     25 C09         1.7060    2.4640   -7.7520 c3        1 53I      0.105700
     26 C06         3.0110    1.1070   -5.6620 ca        1 53I     -0.163000
     27 C05         3.6160    0.5880   -4.5100 ca        1 53I     -0.185300
     28 C04         5.1020    0.5380   -4.4030 c3        1 53I     -0.013800
     29 C03         5.5940   -0.6790   -3.7060 ca        1 53I     -0.191900
     30 C32         6.6220   -0.5680   -2.7200 ca        1 53I      0.483200
     31 N33         7.0640   -1.5990   -1.9930 nb        1 53I     -0.617000
     32 C34         6.4890   -2.8210   -2.2800 ca        1 53I      0.741900
     33 N35         6.8710   -3.9640   -1.4060 n4        1 53I     -0.814300
     34 N36         5.5690   -3.0850   -3.2480 nb        1 53I     -0.628000
     35 C02         5.1040   -1.9910   -3.9260 ca        1 53I      0.551200
     36 N01         3.9760   -2.2290   -4.8440 n4        1 53I     -0.828300
     37 C31         2.8260    0.1510   -3.4500 ca        1 53I     -0.141000
     38 H1          5.3120   -3.3890    1.5460 h4        1 53I      0.014800
     39 H2          4.7330   -3.6720    4.0180 ha        1 53I      0.142000
     40 H3          3.2470   -3.0840    5.9370 ha        1 53I      0.161000
     41 H4          1.2460   -1.6400    5.5740 ha        1 53I      0.161000
     42 H5          0.7280   -0.7520    3.3020 ha        1 53I      0.150000
     43 H6          1.0550   -1.2280    0.8240 h1        1 53I      0.086700
     44 H7          3.6850    0.4530    1.0730 ha        1 53I      0.133000
     45 H8         -0.1280    0.7240    1.7600 hc        1 53I      0.055867
     46 H9         -0.2030    2.2110    0.7320 hc        1 53I      0.055867
     47 H10        -0.0050    0.5860   -0.0480 hc        1 53I      0.055867
     48 H11         1.9430    3.2980    0.0910 hc        1 53I      0.055867
     49 H12         3.3860    2.7610    1.0540 hc        1 53I      0.055867
     50 H13         1.8550    3.2420    1.9000 hc        1 53I      0.055867
     51 H14         0.1560   -1.7630   -0.8890 ha        1 53I      0.173000
     52 H15        -0.4590   -0.1570   -2.5430 ha        1 53I      0.177000
     53 H16        -1.1750    0.9040   -6.6890 h1        1 53I      0.071033
     54 H17        -2.3550    1.1820   -5.2980 h1        1 53I      0.071033
     55 H18        -0.9930    2.3880   -5.6140 h1        1 53I      0.071033
     56 H19         2.2140    3.2900   -7.1990 h1        1 53I      0.063367
     57 H20         0.9180    2.8690   -8.4400 h1        1 53I      0.063367
     58 H21         2.4420    1.8470   -8.3200 h1        1 53I      0.063367
     59 H22         3.6340    1.5000   -6.4820 ha        1 53I      0.161000
     60 H23         5.4550    1.4570   -3.8500 hc        1 53I      0.106700
     61 H24         5.5730    0.5850   -5.4270 hc        1 53I      0.106700
     62 H25         7.0910    0.4180   -2.4960 h4        1 53I      0.100100
     63 H26         6.8870   -4.8410   -1.9460 hn        1 53I      0.496467
     64 H27         6.1600   -4.0350   -0.6570 hn        1 53I      0.496467
     65 H28         3.0960   -2.1380   -4.2740 hn        1 53I      0.498467
     66 H29         3.9770   -1.5090   -5.5800 hn        1 53I      0.498467
     67 H30         3.3050   -0.1560   -2.5060 ha        1 53I      0.146000
     68 H353        7.7990   -3.7950   -0.9900 hn        1 53I      0.496467
     69 H013        4.0130   -3.1700   -5.2550 hn        1 53I      0.498467
@<TRIPOS>BOND
     1    1    2 2   
     2    2    3 1   
     3    2   17 1   
     4    3    4 1   
     5    3   12 1   
     6    4    5 2   
     7    5    6 1   
     8    5   38 1   
     9    6    7 ar  
    10    6   11 ar  
    11    7    8 ar  
    12    7   39 1   
    13    8    9 ar  
    14    8   40 1   
    15    9   10 ar  
    16    9   41 1   
    17   10   11 ar  
    18   10   42 1   
    19   11   12 1   
    20   12   13 1   
    21   12   43 1   
    22   13   14 2   
    23   13   44 1   
    24   14   15 1   
    25   14   16 1   
    26   15   45 1   
    27   15   46 1   
    28   15   47 1   
    29   16   48 1   
    30   16   49 1   
    31   16   50 1   
    32   17   18 2   
    33   17   51 1   
    34   18   19 1   
    35   18   52 1   
    36   19   20 ar  
    37   19   37 ar  
    38   20   21 1   
    39   20   23 ar  
    40   21   22 1   
    41   22   53 1   
    42   22   54 1   
    43   22   55 1   
    44   23   24 1   
    45   23   26 ar  
    46   24   25 1   
    47   25   56 1   
    48   25   57 1   
    49   25   58 1   
    50   26   27 ar  
    51   26   59 1   
    52   27   28 1   
    53   27   37 ar  
    54   28   29 1   
    55   28   60 1   
    56   28   61 1   
    57   29   30 ar  
    58   29   35 ar  
    59   30   31 ar  
    60   30   62 1   
    61   31   32 ar  
    62   32   33 1   
    63   32   34 ar  
    64   33   63 1   
    65   33   64 1   
    66   33   68 1   
    67   34   35 ar  
    68   35   36 1   
    69   36   65 1   
    70   36   66 1   
    71   36   69 1   
    72   37   67 1   
@<TRIPOS>SUBSTRUCTURE
     1 53I         1 TEMP              0 ****  ****    0 ROOT
