@<TRIPOS>MOLECULE
53J
   67    68     1     0     0
SMALL
bcc


@<TRIPOS>ATOM
      1 C10         1.3520    0.4700    0.2250 c2        1 53J      0.206000
      2 C12         0.3000    1.3120   -1.7650 c3        1 53J     -0.068000
      3 C13         2.6420    0.2000    0.8650 c2        1 53J     -0.117000
      4 C14         3.8510    0.5380    0.1290 c2        1 53J     -0.020000
      5 C15         5.0530   -0.0190    0.3540 c2        1 53J     -0.221000
      6 C16         6.2250    0.3990   -0.4420 c2        1 53J      0.313000
      7 C19         7.7760   -2.6440   -0.6570 c1        1 53J     -0.094000
      8 C02         0.1860    1.8770    4.6400 c2        1 53J      0.206000
      9 C03         1.4290    1.1490    4.6090 c2        1 53J     -0.308000
     10 C04         1.5070   -0.3010    4.3390 c3        1 53J     -0.044000
     11 C05         1.4350   -0.6870    2.8560 c3        1 53J     -0.125000
     12 C06         0.1750   -0.2950    2.2310 c1        1 53J     -0.185000
     13 C07         0.1770    0.2030    0.9260 c2        1 53J     -0.119000
     14 O08        -1.0260    0.4860    0.2810 os        1 53J     -0.238000
     15 C09        -2.1870    0.0940    1.0090 c3        1 53J     -0.048000
     16 O11         1.4810    0.9850   -1.0240 os        1 53J     -0.193000
     17 N17         7.4710   -0.2570   -0.2550 ns        1 53J     -0.317000
     18 N18         7.5470   -1.5910    0.0810 n7        1 53J     -0.086000
     19 C20         6.3780    0.7230   -4.5930 c2        1 53J     -0.021000
     20 C21         5.7600    1.3420   -5.5650 c1        1 53J     -0.139000
     21 C22         5.1320    1.9820   -6.5160 c2        1 53J     -0.052000
     22 C23         3.7350    1.6540   -6.9030 c3        1 53J     -0.175000
     23 C24         7.1620   -0.4280   -4.7670 c1        1 53J     -0.097000
     24 C25         7.9260   -2.6780   -2.0930 c2        1 53J     -0.192000
     25 C26         9.0270   -3.1640   -2.6920 c2        1 53J     -0.099000
     26 C27         9.1870   -3.3080   -4.1200 c2        1 53J     -0.120000
     27 C28         8.6490   -2.5370   -5.0830 c2        1 53J     -0.045000
     28 C29         7.8410   -1.4120   -4.8920 c1        1 53J     -0.136000
     29 O30         6.2030    1.3700   -1.2240 o         1 53J     -0.346000
     30 C31         2.6680   -0.3220    2.1190 c2        1 53J     -0.062000
     31 C32         2.5860    1.8840    4.9120 c2        1 53J      0.025000
     32 N33         2.6050    3.1850    5.2260 n2        1 53J     -0.259000
     33 C34         1.3610    3.8150    5.2550 c2        1 53J      0.183000
     34 N35         1.3220    5.1450    5.6850 nv        1 53J     -0.328000
     35 N36         0.1580    3.2170    4.9380 n2        1 53J     -0.303000
     36 C37         5.7690    3.0880   -7.2780 c3        1 53J     -0.175000
     37 H1         -0.2910    2.0890   -1.2230 h1        1 53J      0.103000
     38 H2          0.7150    1.7110   -2.7250 h1        1 53J      0.103000
     39 H3         -0.3130    0.3950   -1.9360 h1        1 53J      0.103000
     40 H4          3.7350    1.3020   -0.6660 ha        1 53J      0.173000
     41 H5          5.2040   -0.7870    1.1270 ha        1 53J      0.136000
     42 H6          7.4550   -1.7240    1.0740 hn        1 53J      0.267000
     43 H8         -0.9620    0.4030    3.8360 hn        1 53J      0.231500
     44 H9         -1.8250    1.7830    4.3070 hn        1 53J      0.231500
     45 H10         0.6730   -0.8380    4.8710 hc        1 53J      0.093500
     46 H11         2.4740   -0.7030    4.7480 hc        1 53J      0.093500
     47 H12         1.3840   -1.8320    2.8300 hc        1 53J      0.169000
     48 H13        -2.1350   -0.9850    1.2890 h1        1 53J      0.079667
     49 H14        -3.0220    0.2890    0.2900 h1        1 53J      0.079667
     50 H15        -2.2930    0.7210    1.9280 h1        1 53J      0.079667
     51 H17         8.1540    0.0070   -0.9510 hn        1 53J      0.224000
     52 H18         6.3080    1.1050   -3.5500 ha        1 53J      0.175000
     53 H21         3.0840    2.5540   -6.7680 hc        1 53J      0.085000
     54 H22         3.3220    0.8190   -6.2890 hc        1 53J      0.085000
     55 H23         3.7030    1.3540   -7.9800 hc        1 53J      0.085000
     56 H24         7.0410   -2.3850   -2.6910 ha        1 53J      0.144000
     57 H25         9.8900   -3.4990   -2.0880 ha        1 53J      0.135000
     58 H26         9.8430   -4.1460   -4.4220 ha        1 53J      0.132000
     59 H27         8.8600   -2.7690   -6.1460 ha        1 53J      0.139000
     60 H28         3.6270   -0.5010    2.6340 ha        1 53J      0.141000
     61 H29         3.5770    1.3920    4.9010 h4        1 53J      0.150000
     62 H30         2.1770    5.6490    5.6540 hn        1 53J      0.221500
     63 H31         0.4970    5.6590    5.4820 hn        1 53J      0.221500
     64 H32         6.8140    3.2780   -6.9340 hc        1 53J      0.085000
     65 H33         5.1750    4.0270   -7.1490 hc        1 53J      0.085000
     66 H34         5.7920    2.8320   -8.3670 hc        1 53J      0.085000
     67 N01        -1.0140    1.2190    4.4250 nv        1 53J     -0.337000
@<TRIPOS>BOND
     1    1    3 1   
     2    1   13 1   
     3    1   16 1   
     4    2   16 1   
     5    2   37 1   
     6    2   38 1   
     7    2   39 1   
     8    3    4 1   
     9    3   30 1   
    10    4    5 1   
    11    4   40 1   
    12    5    6 1   
    13    5   41 1   
    14    6   17 1   
    15    6   29 1   
    16    7   18 1   
    17    7   24 1   
    18    8    9 1   
    19    8   35 1   
    20    8   67 1   
    21    9   10 1   
    22    9   31 1   
    23   10   11 1   
    24   10   45 1   
    25   10   46 1   
    26   11   12 1   
    27   11   30 1   
    28   11   47 1   
    29   12   13 1   
    30   13   14 1   
    31   14   15 1   
    32   15   48 1   
    33   15   49 1   
    34   15   50 1   
    35   17   18 1   
    36   17   51 1   
    37   18   42 1   
    38   19   20 1   
    39   19   23 1   
    40   19   52 1   
    41   20   21 1   
    42   21   22 1   
    43   21   36 1   
    44   22   53 1   
    45   22   54 1   
    46   22   55 1   
    47   23   28 1   
    48   24   25 1   
    49   24   56 1   
    50   25   26 1   
    51   25   57 1   
    52   26   27 1   
    53   26   58 1   
    54   27   28 1   
    55   27   59 1   
    56   30   60 1   
    57   31   32 1   
    58   31   61 1   
    59   32   33 1   
    60   33   34 1   
    61   33   35 1   
    62   34   62 1   
    63   34   63 1   
    64   36   64 1   
    65   36   65 1   
    66   36   66 1   
    67   43   67 1   
    68   44   67 1   
@<TRIPOS>SUBSTRUCTURE
     1 53J         1 TEMP              0 ****  ****    0 ROOT
