@<TRIPOS>MOLECULE
53J
   67    70     1     0     0
SMALL
bcc


@<TRIPOS>ATOM
      1 C10        -0.3090   -0.6580    0.4510 ca        1 53J      0.097100
      2 C12        -1.5500   -1.9920   -1.0590 c3        1 53J      0.115700
      3 C13         1.0270   -0.2230    0.3320 ca        1 53J     -0.058800
      4 C14         1.5670    0.0520   -0.9900 ce        1 53J     -0.016200
      5 C15         2.8730    0.1760   -1.2750 cf        1 53J     -0.241200
      6 C16         3.3050    0.4320   -2.6670 c         1 53J      0.640300
      7 C19         6.7800    0.7280   -2.0310 c1        1 53J     -0.109100
      8 C02         1.9480    2.3850    4.2970 ca        1 53J      0.714200
      9 C03         2.7160    1.1860    4.1050 ca        1 53J     -0.431900
     10 C04         2.0960   -0.1530    3.9810 c3        1 53J      0.033200
     11 C05         1.2560   -0.3160    2.7560 ca        1 53J     -0.070300
     12 C06        -0.0650   -0.7650    2.8760 ca        1 53J     -0.194000
     13 C07        -0.8460   -0.9380    1.7300 ca        1 53J      0.097100
     14 O08        -2.1540   -1.3810    1.7430 os        1 53J     -0.319900
     15 C09        -2.7170   -1.6490    3.0230 c3        1 53J      0.111700
     16 O11        -1.0990   -0.6890   -0.6830 os        1 53J     -0.329900
     17 N17         4.5300    1.1010   -2.9180 n         1 53J     -0.446300
     18 N18         5.5480    1.1550   -1.9980 n3        1 53J     -0.310000
     19 C20         6.5770    0.1210   -5.5470 ce        1 53J     -0.057000
     20 C21         7.2110    1.2330   -5.8670 cu        1 53J     -0.185400
     21 C22         8.1630    2.3100   -5.5530 cx        1 53J     -0.081500
     22 C23         7.4600    2.2430   -6.8970 cx        1 53J     -0.085200
     23 C24         6.6820   -0.5830   -4.2930 ce        1 53J     -0.149300
     24 C25         7.4570   -0.0330   -3.1060 c3        1 53J     -0.054200
     25 C26         8.2430   -1.1560   -2.4540 c2        1 53J     -0.115200
     26 C27         7.9390   -2.4670   -2.5850 ce        1 53J     -0.150000
     27 C28         6.6500   -2.7930   -3.2160 ce        1 53J     -0.155100
     28 C29         6.2960   -1.8370   -4.0650 c1        1 53J     -0.009800
     29 O30         2.5950    0.1670   -3.6540 o         1 53J     -0.575100
     30 C31         1.7900   -0.0510    1.4950 ca        1 53J     -0.122000
     31 C32         4.1120    1.3380    4.0950 ca        1 53J      0.489200
     32 N33         4.7510    2.5060    4.2330 nb        1 53J     -0.778000
     33 C34         3.9360    3.6280    4.3800 ca        1 53J      0.898900
     34 N35         4.5580    4.8790    4.4170 nh        1 53J     -0.930500
     35 N36         2.5540    3.6070    4.4270 nb        1 53J     -0.817000
     36 C37         7.8110    3.3860   -4.5850 c3        1 53J     -0.074100
     37 H1         -2.1930   -2.4310   -0.2580 h1        1 53J      0.047700
     38 H2         -0.6780   -2.6570   -1.2720 h1        1 53J      0.047700
     39 H3         -2.1430   -1.8010   -1.9880 h1        1 53J      0.047700
     40 H4          0.8120    0.1460   -1.7980 ha        1 53J      0.171000
     41 H5          3.6540    0.0640   -0.5090 ha        1 53J      0.139000
     42 H6          5.2810    1.7000   -1.1920 hn        1 53J      0.471800
     43 H8          0.1390    1.5440    3.9570 hn        1 53J      0.419300
     44 H9          0.0590    3.1710    4.3800 hn        1 53J      0.419300
     45 H10         1.4750   -0.3590    4.8980 hc        1 53J      0.058200
     46 H11         2.9030   -0.9390    3.9540 hc        1 53J      0.058200
     47 H12        -0.4760   -0.9820    3.8720 ha        1 53J      0.144000
     48 H13        -2.7300   -0.7250    3.6510 h1        1 53J      0.047033
     49 H14        -2.1570   -2.4660    3.5380 h1        1 53J      0.047033
     50 H15        -3.7600   -1.9750    2.7810 h1        1 53J      0.047033
     51 H17         4.8540    1.0000   -3.8700 hn        1 53J      0.321500
     52 H18         5.9010   -0.3480   -6.2880 ha        1 53J      0.148000
     53 H21         9.2420    2.0450   -5.5220 hc        1 53J      0.083700
     54 H22         8.0430    1.9680   -7.7960 hc        1 53J      0.079700
     55 H23         6.6720    2.9860   -7.1260 hc        1 53J      0.079700
     56 H24         8.2090    0.6930   -3.5560 hc        1 53J      0.123700
     57 H25         9.0820   -0.8130   -1.8300 ha        1 53J      0.148000
     58 H26         8.5440   -3.2720   -2.1530 ha        1 53J      0.143000
     59 H27         6.0640   -3.6520   -2.8840 ha        1 53J      0.160000
     60 H28         2.8270    0.3100    1.4210 ha        1 53J      0.145000
     61 H29         4.7700    0.4560    3.9720 h4        1 53J      0.022100
     62 H30         5.5280    4.8890    4.6260 hn        1 53J      0.429300
     63 H31         4.0200    5.6410    4.7580 hn        1 53J      0.429300
     64 H32         6.7390    3.6860   -4.6830 hc        1 53J      0.043033
     65 H33         7.9860    3.0380   -3.5370 hc        1 53J      0.043033
     66 H34         8.4460    4.2870   -4.7700 hc        1 53J      0.043033
     67 N01         0.5640    2.3140    4.4260 nh        1 53J     -0.933500
@<TRIPOS>BOND
     1    1    3 ar  
     2    1   13 ar  
     3    1   16 1   
     4    2   16 1   
     5    2   37 1   
     6    2   38 1   
     7    2   39 1   
     8    3    4 1   
     9    3   30 ar  
    10    4    5 2   
    11    4   40 1   
    12    5    6 1   
    13    5   41 1   
    14    6   17 1   
    15    6   29 2   
    16    7   18 3   
    17    7   24 1   
    18    8    9 ar  
    19    8   35 ar  
    20    8   67 1   
    21    9   10 1   
    22    9   31 ar  
    23   10   11 1   
    24   10   45 1   
    25   10   46 1   
    26   11   12 ar  
    27   11   30 ar  
    28   12   13 ar  
    29   12   47 1   
    30   13   14 1   
    31   14   15 1   
    32   15   48 1   
    33   15   49 1   
    34   15   50 1   
    35   17   18 1   
    36   17   51 1   
    37   18   42 1   
    38   19   20 2   
    39   19   23 1   
    40   19   52 1   
    41   20   21 1   
    42   20   22 1   
    43   21   22 1   
    44   21   36 1   
    45   21   53 1   
    46   22   54 1   
    47   22   55 1   
    48   23   24 1   
    49   23   28 2   
    50   24   25 1   
    51   24   56 1   
    52   25   26 2   
    53   25   57 1   
    54   26   27 1   
    55   26   58 1   
    56   27   28 2   
    57   27   59 1   
    58   30   60 1   
    59   31   32 ar  
    60   31   61 1   
    61   32   33 ar  
    62   33   34 1   
    63   33   35 ar  
    64   34   62 1   
    65   34   63 1   
    66   36   64 1   
    67   36   65 1   
    68   36   66 1   
    69   43   67 1   
    70   44   67 1   
@<TRIPOS>SUBSTRUCTURE
     1 53J         1 TEMP              0 ****  ****    0 ROOT
