@<TRIPOS>MOLECULE
53J
   67    68     1     0     0
SMALL
bcc


@<TRIPOS>ATOM
      1 C10         0.1400   -0.3310   -0.0390 ca        1 53J      0.095100
      2 C12        -0.9710   -1.4710   -1.7890 c3        1 53J      0.115700
      3 C13         1.5220   -0.0960    0.1020 ca        1 53J     -0.057800
      4 C14         2.3370    0.0970   -1.0870 ce        1 53J     -0.021200
      5 C15         3.6670   -0.0790   -1.1330 cf        1 53J     -0.238200
      6 C16         4.3960    0.1250   -2.4080 c         1 53J      0.661300
      7 C19         7.2640   -0.4260   -0.6530 cg        1 53J     -0.118300
      8 C02         1.9530    2.3620    4.2780 ca        1 53J      0.712200
      9 C03         2.6140    1.0910    4.1720 ca        1 53J     -0.429900
     10 C04         1.8920   -0.1700    3.8850 c3        1 53J      0.033200
     11 C05         1.2810   -0.2150    2.5230 ca        1 53J     -0.068300
     12 C06        -0.0890   -0.4720    2.3850 ca        1 53J     -0.196000
     13 C07        -0.6600   -0.5300    1.1110 ca        1 53J      0.097100
     14 O08        -1.9970   -0.7800    0.8710 os        1 53J     -0.320900
     15 C09        -2.8180   -0.9750    2.0170 c3        1 53J      0.111700
     16 O11        -0.4200   -0.2460   -1.3010 os        1 53J     -0.329900
     17 N17         5.7590    0.5340   -2.3620 n         1 53J     -0.318400
     18 N18         6.4770    0.4810   -1.1710 n3        1 53J     -0.302000
     19 C20         6.4740    0.5380   -3.6270 ce        1 53J      0.138800
     20 C21         6.3650    1.5580   -4.4550 c1        1 53J     -0.000800
     21 C22         6.2190    2.5460   -5.2950 c2        1 53J     -0.082500
     22 C23         5.1370    2.5490   -6.3160 c3        1 53J     -0.063400
     23 C24         7.2990   -0.5800   -3.9070 cg        1 53J     -0.146300
     24 C25         7.6450   -1.6480   -1.3280 ce        1 53J     -0.148700
     25 C26         8.9320   -2.0160   -1.4820 cf        1 53J     -0.093000
     26 C27         9.3120   -2.9130   -2.5680 cf        1 53J     -0.125000
     27 C28         8.8650   -2.6470   -3.8190 ce        1 53J     -0.013700
     28 C29         8.0020   -1.5500   -4.0060 cg        1 53J     -0.143300
     29 O30         3.8310    0.0160   -3.5110 o         1 53J     -0.570100
     30 C31         2.0730   -0.0330    1.3890 ca        1 53J     -0.123000
     31 C32         3.9990    1.0910    4.4120 ca        1 53J      0.490200
     32 N33         4.7180    2.1780    4.7120 nb        1 53J     -0.776000
     33 C34         4.0100    3.3780    4.7630 ca        1 53J      0.897900
     34 N35         4.7410    4.5530    4.9640 nh        1 53J     -0.929500
     35 N36         2.6480    3.5070    4.5660 nb        1 53J     -0.817000
     36 C37         7.1230    3.7250   -5.3010 c3        1 53J     -0.063400
     37 H1         -1.8070   -1.8140   -1.1330 h1        1 53J      0.047033
     38 H2         -0.1770   -2.2530   -1.8570 h1        1 53J      0.047033
     39 H3         -1.3470   -1.1970   -2.8070 h1        1 53J      0.047033
     40 H4          1.7800    0.3930   -2.0000 ha        1 53J      0.169000
     41 H5          4.2430   -0.4070   -0.2540 ha        1 53J      0.145000
     42 H6          6.3280    1.3250   -0.6400 hn        1 53J      0.472800
     43 H8          0.1590    1.7380    3.5820 hn        1 53J      0.417800
     44 H9          0.1720    3.3480    4.0620 hn        1 53J      0.417800
     45 H10         1.0950   -0.3250    4.6660 hc        1 53J      0.058200
     46 H11         2.6050   -1.0370    3.9750 hc        1 53J      0.058200
     47 H12        -0.7050   -0.6290    3.2820 ha        1 53J      0.143000
     48 H13        -2.8210   -0.0630    2.6610 h1        1 53J      0.046367
     49 H14        -2.4790   -1.8660    2.5990 h1        1 53J      0.046367
     50 H15        -3.8330   -1.1510    1.5790 h1        1 53J      0.046367
     51 H17         2.9510   -0.0840   -5.7770 ha        1 53J      0.001500
     52 H18         2.5440    0.4110   -5.5570 ha        1 53J      0.001500
     53 H21         4.4060    1.7200   -6.1390 hc        1 53J      0.052367
     54 H22         4.5880    3.5220   -6.2830 hc        1 53J      0.052367
     55 H23         5.5810    2.4260   -7.3350 hc        1 53J      0.052367
     56 H24         6.8400   -2.2440   -1.8020 ha        1 53J      0.128000
     57 H25         9.7530   -1.5490   -0.9150 ha        1 53J      0.148000
     58 H26        10.0010   -3.7410   -2.3540 ha        1 53J      0.144000
     59 H27         9.1610   -3.2410   -4.6970 ha        1 53J      0.149000
     60 H28         3.1470    0.1750    1.5140 ha        1 53J      0.147000
     61 H29         4.5740    0.1460    4.3650 h4        1 53J      0.024100
     62 H30         5.6540    4.4500    5.3420 hn        1 53J      0.428300
     63 H31         4.2310    5.3580    5.2440 hn        1 53J      0.428300
     64 H32         6.5380    4.6480   -5.0580 hc        1 53J      0.052367
     65 H33         7.9460    3.6190   -4.5540 hc        1 53J      0.052367
     66 H34         7.5750    3.8500   -6.3160 hc        1 53J      0.052367
     67 N01         0.5670    2.4390    4.1580 nh        1 53J     -0.932500
@<TRIPOS>BOND
     1    1    3 ar  
     2    1   13 ar  
     3    1   16 1   
     4    2   16 1   
     5    2   37 1   
     6    2   38 1   
     7    2   39 1   
     8    3    4 1   
     9    3   30 ar  
    10    4    5 2   
    11    4   40 1   
    12    5    6 1   
    13    5   41 1   
    14    6   17 1   
    15    6   29 2   
    16    7   18 3   
    17    7   24 1   
    18    8    9 ar  
    19    8   35 ar  
    20    8   67 1   
    21    9   10 1   
    22    9   31 ar  
    23   10   11 1   
    24   10   45 1   
    25   10   46 1   
    26   11   12 ar  
    27   11   30 ar  
    28   12   13 ar  
    29   12   47 1   
    30   13   14 1   
    31   14   15 1   
    32   15   48 1   
    33   15   49 1   
    34   15   50 1   
    35   17   18 1   
    36   17   19 1   
    37   18   42 1   
    38   19   20 2   
    39   19   23 1   
    40   20   21 2   
    41   21   22 1   
    42   21   36 1   
    43   22   53 1   
    44   22   54 1   
    45   22   55 1   
    46   23   28 3   
    47   24   25 2   
    48   24   56 1   
    49   25   26 1   
    50   25   57 1   
    51   26   27 2   
    52   26   58 1   
    53   27   28 1   
    54   27   59 1   
    55   30   60 1   
    56   31   32 ar  
    57   31   61 1   
    58   32   33 ar  
    59   33   34 1   
    60   33   35 ar  
    61   34   62 1   
    62   34   63 1   
    63   36   64 1   
    64   36   65 1   
    65   36   66 1   
    66   43   67 1   
    67   44   67 1   
    68   51   52 1   
@<TRIPOS>SUBSTRUCTURE
     1 53J         1 TEMP              0 ****  ****    0 ROOT
