@<TRIPOS>MOLECULE
53J
   67    70     1     0     0
SMALL
bcc


@<TRIPOS>ATOM
      1 C10        -2.4440   -2.7830    0.4030 ca        1 53J      0.092100
      2 C12        -1.6430   -4.9420    0.9420 c3        1 53J      0.115700
      3 C13        -1.7210   -1.5750    0.3380 ca        1 53J     -0.051800
      4 C14        -0.3330   -1.5970   -0.0960 ce        1 53J     -0.036200
      5 C15         0.5580   -0.6250    0.1610 cf        1 53J     -0.209200
      6 C16         1.9470   -0.7490   -0.3390 c         1 53J      0.697300
      7 C19         3.7130    1.1570    2.1210 ce        1 53J      0.374800
      8 C02        -4.9570    1.8390   -0.8590 ca        1 53J      0.714200
      9 C03        -4.2970    1.9620    0.4110 ca        1 53J     -0.428900
     10 C04        -4.3680    0.9160    1.4570 c3        1 53J      0.034200
     11 C05        -3.7040   -0.3670    1.0750 ca        1 53J     -0.069300
     12 C06        -4.4200   -1.5670    1.1550 ca        1 53J     -0.197000
     13 C07        -3.7950   -2.7720    0.8210 ca        1 53J      0.097100
     14 O08        -4.4140   -4.0060    0.8730 os        1 53J     -0.321900
     15 C09        -5.7810   -4.0100    1.2710 c3        1 53J      0.111700
     16 O11        -1.8400   -3.9400   -0.0570 os        1 53J     -0.329900
     17 N17         2.9790    0.0150    0.2680 n         1 53J     -0.242800
     18 N18         2.7290    0.7210    1.3780 n2        1 53J     -0.436300
     19 C20         4.3320   -0.0490   -0.3450 c3        1 53J      0.172200
     20 C21         4.4630    0.9260   -1.4860 c2        1 53J     -0.207200
     21 C22         4.6960    0.5760   -2.7600 c2        1 53J     -0.076400
     22 C23         4.8260   -0.8290   -3.2160 c3        1 53J     -0.071400
     23 C24         5.4340    0.2450    0.6480 ca        1 53J     -0.074300
     24 C25         5.1240    0.8940    1.8580 ca        1 53J     -0.156900
     25 C26         6.1380    1.2120    2.7640 ca        1 53J     -0.101000
     26 C27         7.4580    0.8750    2.4670 ca        1 53J     -0.131000
     27 C28         7.7640    0.2180    1.2750 ca        1 53J     -0.118000
     28 C29         6.7560   -0.0990    0.3640 ca        1 53J     -0.115000
     29 O30         2.2500   -1.5060   -1.2810 o         1 53J     -0.594100
     30 C31        -2.3690   -0.3770    0.6710 ca        1 53J     -0.124000
     31 C32        -3.6030    3.1620    0.6370 ca        1 53J      0.490200
     32 N33        -3.5310    4.1750   -0.2350 nb        1 53J     -0.778000
     33 C34        -4.2130    3.9880   -1.4380 ca        1 53J      0.898900
     34 N35        -4.2530    5.0600   -2.3330 nh        1 53J     -0.928500
     35 N36        -4.8940    2.8380   -1.7950 nb        1 53J     -0.818000
     36 C37         4.8390    1.6070   -3.8190 c3        1 53J     -0.071400
     37 H1         -1.1350   -5.7670    0.3820 h1        1 53J      0.046367
     38 H2         -0.9870   -4.5530    1.7580 h1        1 53J      0.046367
     39 H3         -2.6220   -5.2850    1.3540 h1        1 53J      0.046367
     40 H4         -0.0310   -2.5000   -0.6640 ha        1 53J      0.167000
     41 H5          0.2970    0.2810    0.7290 ha        1 53J      0.158000
     42 H6          3.4280    1.7460    3.0100 h4        1 53J      0.040800
     43 H8         -6.0210    0.5890   -2.0820 hn        1 53J      0.418800
     44 H9         -5.4440   -0.1160   -0.6680 hn        1 53J      0.418800
     45 H10        -3.8750    1.2940    2.3970 hc        1 53J      0.057700
     46 H11        -5.4470    0.7240    1.7130 hc        1 53J      0.057700
     47 H12        -5.4690   -1.5520    1.4840 ha        1 53J      0.143000
     48 H13        -6.4020   -3.4140    0.5590 h1        1 53J      0.046700
     49 H14        -6.0590   -5.0940    1.2250 h1        1 53J      0.046700
     50 H15        -5.8910   -3.6180    2.3110 h1        1 53J      0.046700
     51 H17         4.4630   -1.1100   -0.7250 h1        1 53J      0.094700
     52 H18         4.3650    1.9860   -1.2020 ha        1 53J      0.131000
     53 H21         3.9210   -1.4210   -2.9160 hc        1 53J      0.048033
     54 H22         4.9320   -0.8850   -4.3270 hc        1 53J      0.048033
     55 H23         5.7270   -1.3070   -2.7540 hc        1 53J      0.048033
     56 H24         5.8920    1.7220    3.7070 ha        1 53J      0.136000
     57 H25         8.2590    1.1260    3.1780 ha        1 53J      0.135000
     58 H26         8.8070   -0.0510    1.0490 ha        1 53J      0.135000
     59 H27         6.9990   -0.6130   -0.5780 ha        1 53J      0.140000
     60 H28        -1.8220    0.5760    0.6030 ha        1 53J      0.148000
     61 H29        -3.0620    3.3240    1.5890 h4        1 53J      0.022100
     62 H30        -3.5670    5.7680   -2.2110 hn        1 53J      0.427800
     63 H31        -4.5210    4.8570   -3.2670 hn        1 53J      0.427800
     64 H32         5.8330    1.5020   -4.3230 hc        1 53J      0.048033
     65 H33         4.0400    1.4690   -4.5900 hc        1 53J      0.048033
     66 H34         4.7580    2.6420   -3.4070 hc        1 53J      0.048033
     67 N01        -5.7270    0.7140   -1.1390 nh        1 53J     -0.933500
@<TRIPOS>BOND
     1    1    3 ar  
     2    1   13 ar  
     3    1   16 1   
     4    2   16 1   
     5    2   37 1   
     6    2   38 1   
     7    2   39 1   
     8    3    4 1   
     9    3   30 ar  
    10    4    5 2   
    11    4   40 1   
    12    5    6 1   
    13    5   41 1   
    14    6   17 1   
    15    6   29 2   
    16    7   18 2   
    17    7   24 1   
    18    7   42 1   
    19    8    9 ar  
    20    8   35 ar  
    21    8   67 1   
    22    9   10 1   
    23    9   31 ar  
    24   10   11 1   
    25   10   45 1   
    26   10   46 1   
    27   11   12 ar  
    28   11   30 ar  
    29   12   13 ar  
    30   12   47 1   
    31   13   14 1   
    32   14   15 1   
    33   15   48 1   
    34   15   49 1   
    35   15   50 1   
    36   17   18 1   
    37   17   19 1   
    38   19   20 1   
    39   19   23 1   
    40   19   51 1   
    41   20   21 2   
    42   20   52 1   
    43   21   22 1   
    44   21   36 1   
    45   22   53 1   
    46   22   54 1   
    47   22   55 1   
    48   23   24 ar  
    49   23   28 ar  
    50   24   25 ar  
    51   25   26 ar  
    52   25   56 1   
    53   26   27 ar  
    54   26   57 1   
    55   27   28 ar  
    56   27   58 1   
    57   28   59 1   
    58   30   60 1   
    59   31   32 ar  
    60   31   61 1   
    61   32   33 ar  
    62   33   34 1   
    63   33   35 ar  
    64   34   62 1   
    65   34   63 1   
    66   36   64 1   
    67   36   65 1   
    68   36   66 1   
    69   43   67 1   
    70   44   67 1   
@<TRIPOS>SUBSTRUCTURE
     1 53J         1 TEMP              0 ****  ****    0 ROOT
