@<TRIPOS>MOLECULE
53J
   67    59     1     0     0
SMALL
bcc


@<TRIPOS>ATOM
      1 C10        -0.7070   -2.6260   -0.3930 c1        1 53J      0.045000
      2 C12        -1.1500   -4.9140   -0.9080 c3        1 53J     -0.074000
      3 C13         0.6810   -2.5020   -0.3910 c1        1 53J     -0.039000
      4 C14         1.4590   -2.6180   -1.7060 c2        1 53J     -0.059000
      5 C15         1.2420   -1.7060   -2.7210 c1        1 53J     -0.155000
      6 C16         0.2170   -0.5700   -2.5330 c1        1 53J      0.379000
      7 C19         2.4520    2.3560   -2.3250 c1        1 53J     -0.140000
      8 N01         4.1540   -1.6500    3.4410 n3        1 53J     -0.336000
      9 C02         3.1110   -0.7410    3.8200 c2        1 53J      0.197000
     10 C03         1.8070   -1.1680    3.8470 c2        1 53J     -0.290000
     11 C04         1.4490   -2.5750    3.3540 c3        1 53J     -0.060000
     12 C05         0.6750   -2.4750    2.0260 c2        1 53J     -0.059000
     13 C06        -0.7140   -2.5980    2.0220 c2        1 53J     -0.181000
     14 C07        -1.4050   -2.6740    0.8120 c1        1 53J      0.057000
     15 O08        -2.8350   -2.6620    0.8070 os        1 53J     -0.206000
     16 C09        -3.4200   -3.1970    1.9860 c3        1 53J     -0.078000
     17 O11        -1.1400   -3.8970    0.0850 os        1 53J     -0.203000
     18 N17         0.6280    0.8060   -2.7290 n2        1 53J     -0.275000
     19 N18         1.9870    1.1230   -2.8130 n2        1 53J     -0.019000
     20 C20        -0.3850    1.8800   -2.7750 c3        1 53J      0.081000
     21 C21        -1.6730    1.4670   -2.0010 c2        1 53J     -0.208000
     22 C22        -2.9000    1.5110   -2.6310 c1        1 53J     -0.058000
     23 C23        -4.1670    1.1050   -1.8700 c3        1 53J     -0.188000
     24 C24         0.1370    3.2820   -2.2960 c1        1 53J     -0.068000
     25 C25         1.4770    3.4680   -2.0470 c1        1 53J     -0.082000
     26 C26         1.9580    4.7480   -1.6960 c1        1 53J     -0.098000
     27 C27         1.0780    5.8210   -1.6020 c1        1 53J     -0.123000
     28 C28        -0.2780    5.6330   -1.8540 c1        1 53J     -0.123000
     29 C29        -0.7540    4.3700   -2.2010 c1        1 53J     -0.115000
     30 O30        -0.9620   -0.8360   -2.4050 o         1 53J     -0.330000
     31 C31         1.3730   -2.4270    0.8200 c1        1 53J     -0.144000
     32 C32         0.8230   -0.3270    4.2880 c1        1 53J      0.021000
     33 N33         1.1340    0.9170    4.6950 n1        1 53J     -0.257000
     34 C34         2.4340    1.3410    4.6690 c1        1 53J      0.178000
     35 N35         2.7600    2.6720    5.0740 n3        1 53J     -0.328000
     36 N36         3.4200    0.5000    4.2280 n1        1 53J     -0.294000
     37 C37        -2.9970    1.9650   -4.0930 c2        1 53J     -0.202000
     38 H1         -1.6770   -4.6130   -1.6810 h1        1 53J      0.083000
     39 H2         -0.2300   -5.1030   -1.1940 h1        1 53J      0.083000
     40 H3         -1.5520   -5.7320   -0.5360 h1        1 53J      0.083000
     41 H4          2.1130   -3.3410   -1.8270 ha        1 53J      0.136000
     42 H5          1.7410   -1.7810   -3.5630 ha        1 53J      0.153000
     43 H6          3.4020    2.4700   -2.1050 ha        1 53J      0.175000
     44 H8          5.0300   -1.3780    3.4600 hn        1 53J      0.221500
     45 H9          3.9470   -2.5080    3.1960 hn        1 53J      0.221500
     46 H10         0.8900   -3.0260    4.0260 hc        1 53J      0.096500
     47 H11         2.2730   -3.0920    3.2140 hc        1 53J      0.096500
     48 H12        -1.2050   -2.6320    2.8710 ha        1 53J      0.144000
     49 H13        -4.2300   -2.6860    2.2120 h1        1 53J      0.085333
     50 H14        -3.6580   -4.1400    1.8350 h1        1 53J      0.085333
     51 H15        -2.7790   -3.1370    2.7240 h1        1 53J      0.085333
     52 H17        -0.7400    1.9560   -3.6870 h1        1 53J      0.136000
     53 H18        -1.6190    1.2380   -1.0490 ha        1 53J      0.125000
     54 H21        -4.1080    1.4220   -0.9420 hc        1 53J      0.084000
     55 H22        -4.9540    1.5070   -2.3040 hc        1 53J      0.084000
     56 H23        -4.2540    0.1270   -1.8760 hc        1 53J      0.084000
     57 H24         2.9140    4.8810   -1.5180 ha        1 53J      0.139000
     58 H25         1.4130    6.7100   -1.3580 ha        1 53J      0.136000
     59 H26        -0.8990    6.3900   -1.7880 ha        1 53J      0.136000
     60 H27        -1.7080    4.2380   -2.3780 ha        1 53J      0.141000
     61 H28         2.3510   -2.3400    0.8220 ha        1 53J      0.145000
     62 H29        -0.1090   -0.6300    4.3070 ha        1 53J      0.156000
     63 H30         3.6390    2.9330    5.1270 hn        1 53J      0.221500
     64 H31         2.0920    3.2750    5.2440 hn        1 53J      0.221500
     65 H32        -3.0980    2.9430   -4.1260 ha        1 53J      0.092667
     66 H33        -3.7750    1.5400   -4.5180 ha        1 53J      0.092667
     67 H34        -2.1820    1.7050   -4.5700 ha        1 53J      0.092667
@<TRIPOS>BOND
     1    1    3 1   
     2    1   17 1   
     3    2   17 1   
     4    2   38 1   
     5    2   39 1   
     6    2   40 1   
     7    3    4 1   
     8    4    5 1   
     9    4   41 1   
    10    5   42 1   
    11    6   30 1   
    12    7   19 1   
    13    7   43 1   
    14    8    9 1   
    15    8   44 1   
    16    8   45 1   
    17    9   10 1   
    18    9   36 1   
    19   10   11 1   
    20   10   32 1   
    21   11   12 1   
    22   11   46 1   
    23   11   47 1   
    24   12   13 1   
    25   12   31 1   
    26   13   14 1   
    27   13   48 1   
    28   14   15 1   
    29   15   16 1   
    30   16   49 1   
    31   16   50 1   
    32   16   51 1   
    33   18   19 1   
    34   18   20 1   
    35   20   21 1   
    36   20   24 1   
    37   20   52 1   
    38   21   22 1   
    39   21   53 1   
    40   22   23 1   
    41   23   54 1   
    42   23   55 1   
    43   23   56 1   
    44   24   29 1   
    45   25   26 1   
    46   26   57 1   
    47   27   28 1   
    48   27   58 1   
    49   28   59 1   
    50   29   60 1   
    51   31   61 1   
    52   32   62 1   
    53   33   34 1   
    54   34   35 1   
    55   35   63 1   
    56   35   64 1   
    57   37   65 1   
    58   37   66 1   
    59   37   67 1   
@<TRIPOS>SUBSTRUCTURE
     1 53J         1 TEMP              0 ****  ****    0 ROOT
