@<TRIPOS>MOLECULE
53K
   46    49     1     0     0
SMALL
bcc


@<TRIPOS>ATOM
      1 N1         -0.1480   -0.5390   -0.0930 na        1 53K      0.046400
      2 N3          1.0250   -1.2080    0.0540 nc        1 53K     -0.169800
      3 C4         -1.5870    5.3790   -7.7660 ca        1 53K     -0.146000
      4 C5         -1.7390    4.0340   -7.4310 ca        1 53K     -0.112000
      5 C6         -0.9800    3.4780   -6.4040 ca        1 53K     -0.172000
      6 C7         -0.0690    4.2850   -5.7140 ca        1 53K      0.099100
      7 C8          0.3010    2.7400   -3.9630 ca        1 53K      0.088100
      8 C10        -1.3720    1.6940   -2.5680 ca        1 53K     -0.131000
      9 C13        -0.4660    0.1150    1.1050 cc        1 53K     -0.209600
     10 C15         0.7710    0.1460    3.3650 ca        1 53K     -0.104500
     11 C17         0.0920    1.4770    5.2760 ca        1 53K     -0.131500
     12 C20         1.7850   -0.4330    4.1430 ca        1 53K     -0.113000
     13 C21         0.8270    0.6950   -2.7530 ca        1 53K     -0.174000
     14 C22         1.2190    1.7180   -3.6250 ca        1 53K      0.119100
     15 O2          2.4710    1.7840   -4.1840 oh        1 53K     -0.472100
     16 O1          0.7870    3.7890   -4.7310 os        1 53K     -0.224200
     17 C3         -0.6730    6.1740   -7.0770 ca        1 53K     -0.113000
     18 C2          0.1010    5.6460   -6.0390 ca        1 53K     -0.081300
     19 C1          1.0870    6.4790   -5.3160 c3        1 53K     -0.048800
     20 C11        -0.4670    0.6850   -2.2280 ca        1 53K     -0.102300
     21 C9         -0.9920    2.7180   -3.4340 ca        1 53K     -0.140000
     22 C12        -0.9020   -0.4340   -1.3270 c3        1 53K      0.102600
     23 N2          1.4660   -1.0620    1.2320 nd        1 53K     -0.346000
     24 C14         0.5850   -0.2320    1.9820 cd        1 53K      0.316800
     25 C19         1.9450   -0.0560    5.4760 ca        1 53K     -0.131500
     26 C18         1.1010    0.8970    6.0450 ca        1 53K     -0.126000
     27 C16        -0.0740    1.1060    3.9440 ca        1 53K     -0.113000
     28 H2         -2.4560    3.4050   -7.9800 ha        1 53K      0.134000
     29 H3         -1.0890    2.4180   -6.1340 ha        1 53K      0.145000
     30 H4         -2.3910    1.6880   -2.1540 ha        1 53K      0.136000
     31 H5         -1.3570    0.7240    1.2340 h4        1 53K      0.191000
     32 H6         -0.5750    2.2300    5.7200 ha        1 53K      0.132500
     33 H7          2.4590   -1.1860    3.7060 ha        1 53K      0.139000
     34 H8          1.5420   -0.1000   -2.4870 ha        1 53K      0.157000
     35 H9          3.0090    1.0820   -3.7870 ho        1 53K      0.423000
     36 H10        -0.5560    7.2340   -7.3480 ha        1 53K      0.136000
     37 H11         0.8920    7.5670   -5.4760 hc        1 53K      0.050033
     38 H12         2.1200    6.2420   -5.6770 hc        1 53K      0.050033
     39 H13         1.0510    6.2600   -4.2190 hc        1 53K      0.050033
     40 H14        -1.7020    3.5130   -3.7090 ha        1 53K      0.155000
     41 H15        -0.8030   -1.4090   -1.8900 h1        1 53K      0.077200
     42 H16        -1.9850   -0.2980   -1.0410 h1        1 53K      0.077200
     43 H17         2.7420   -0.5140    6.0790 ha        1 53K      0.132500
     44 H18         1.2300    1.1910    7.0970 ha        1 53K      0.132000
     45 H19        -0.8680    1.5710    3.3420 ha        1 53K      0.139000
     46 H1         -2.1870    5.8140   -8.5780 ha        1 53K      0.134000
@<TRIPOS>BOND
     1    1    2 1   
     2    1    9 1   
     3    1   22 1   
     4    2   23 2   
     5    3    4 ar  
     6    3   17 ar  
     7    3   46 1   
     8    4    5 ar  
     9    4   28 1   
    10    5    6 ar  
    11    5   29 1   
    12    6   16 1   
    13    6   18 ar  
    14    7   14 ar  
    15    7   16 1   
    16    7   21 ar  
    17    8   20 ar  
    18    8   21 ar  
    19    8   30 1   
    20    9   24 2   
    21    9   31 1   
    22   10   12 ar  
    23   10   24 1   
    24   10   27 ar  
    25   11   26 ar  
    26   11   27 ar  
    27   11   32 1   
    28   12   25 ar  
    29   12   33 1   
    30   13   14 ar  
    31   13   20 ar  
    32   13   34 1   
    33   14   15 1   
    34   15   35 1   
    35   17   18 ar  
    36   17   36 1   
    37   18   19 1   
    38   19   37 1   
    39   19   38 1   
    40   19   39 1   
    41   20   22 1   
    42   21   40 1   
    43   22   41 1   
    44   22   42 1   
    45   23   24 1   
    46   25   26 ar  
    47   25   43 1   
    48   26   44 1   
    49   27   45 1   
@<TRIPOS>SUBSTRUCTURE
     1 53K         1 TEMP              0 ****  ****    0 ROOT
