@<TRIPOS>MOLECULE
53N
   29    30     1     0     0
SMALL
bcc


@<TRIPOS>ATOM
      1 C5         -0.0850   -0.5530    0.4650 c2        1 53N     -0.072000
      2 C6          1.1100    0.1720    0.4330 c2        1 53N     -0.139000
      3 C7          1.9460    0.1240   -0.7320 c2        1 53N     -0.300000
      4 C15         3.6750    0.4350   -2.3680 c3        1 53N     -0.105000
      5 C17         1.4740    0.9450    1.5640 c2        1 53N     -0.101000
      6 C1         -0.8920   -0.4860    1.6170 c2        1 53N     -0.168000
      7 N2         -2.1520   -1.2630    1.6170 no        1 53N      0.572000
      8 O3         -2.3050   -2.1260    0.7750 o         1 53N     -0.419500
      9 O4         -3.0300   -1.0520    2.4110 o         1 53N     -0.419500
     10 S8          1.5330   -0.9100   -2.1150 ss        1 53N      0.833000
     11 C9          2.7320   -0.5210   -2.9320 c1        1 53N     -0.735000
     12 C11         2.7200   -1.1710   -6.9240 cy        1 53N     -0.222000
     13 C12         3.9630   -0.6160   -7.6040 cv        1 53N      0.299000
     14 O13         4.3400   -0.0270   -8.5990 o         1 53N     -0.298000
     15 O14         4.8290   -1.0320   -6.5910 os        1 53N     -0.275000
     16 C16         3.1000    0.7740   -1.0080 c2        1 53N     -0.224000
     17 C18         0.6590    0.9760    2.6790 c2        1 53N     -0.164000
     18 C19        -0.5480    0.2610    2.7450 c1        1 53N     -0.270000
     19 H5         -0.3820   -1.1650   -0.4040 ha        1 53N      0.119000
     20 H10         3.6060   -1.1080   -4.8270 h1        1 53N      0.146000
     21 H10A        3.8690   -2.7130   -5.7300 h1        1 53N      0.146000
     22 H15         3.7610    1.3530   -3.0070 hc        1 53N      0.130000
     23 H17         3.6190    1.4840   -0.3630 ha        1 53N      0.149000
     24 H11         1.9860   -0.4000   -6.6080 hc        1 53N      0.125000
     25 H11A        2.2140   -1.9860   -7.4790 hc        1 53N      0.125000
     26 H16         4.7010   -0.0080   -2.2710 hc        1 53N      0.130000
     27 H18         2.4160    1.5110    1.5320 ha        1 53N      0.094000
     28 H19         0.9520    1.5770    3.5520 ha        1 53N      0.106000
     29 C10         3.7120   -1.6190   -5.8190 cy        1 53N     -0.063000
@<TRIPOS>BOND
     1    1    2 1   
     2    1    6 1   
     3    1   19 1   
     4    2    3 1   
     5    2    5 1   
     6    3   10 1   
     7    3   16 1   
     8    4   11 1   
     9    4   16 1   
    10    4   22 1   
    11    4   26 1   
    12    5   17 1   
    13    5   27 1   
    14    6    7 1   
    15    6   18 1   
    16    7    8 1   
    17    7    9 1   
    18   10   11 1   
    19   12   13 1   
    20   12   24 1   
    21   12   25 1   
    22   12   29 1   
    23   13   14 1   
    24   13   15 1   
    25   15   29 1   
    26   16   23 1   
    27   17   18 1   
    28   17   28 1   
    29   20   29 1   
    30   21   29 1   
@<TRIPOS>SUBSTRUCTURE
     1 53N         1 TEMP              0 ****  ****    0 ROOT
