@<TRIPOS>MOLECULE
53N
   29    30     1     0     0
SMALL
bcc


@<TRIPOS>ATOM
      1 C5         -0.1290    0.4880    0.3090 c2        1 53N     -0.072000
      2 C6          1.0440   -0.2600    0.4580 c2        1 53N     -0.139000
      3 C7          1.7940   -0.6520   -0.7000 c2        1 53N     -0.300000
      4 C15         3.3960   -1.5780   -2.2290 c3        1 53N     -0.105000
      5 C17         1.4690   -0.6150    1.7620 c2        1 53N     -0.101000
      6 C1         -0.8520    0.8570    1.4600 c2        1 53N     -0.168000
      7 N2         -2.0900    1.6460    1.2680 no        1 53N      0.572000
      8 O3         -2.2780    2.1830    0.1930 o         1 53N     -0.420000
      9 O4         -2.9170    1.7540    2.1330 o         1 53N     -0.420000
     10 S8          1.2980   -0.1470   -2.3290 ss        1 53N      0.833000
     11 C9          2.4300   -0.8410   -3.0310 c1        1 53N     -0.734000
     12 C11         3.4530    0.2860   -6.7750 cy        1 53N     -0.222000
     13 C12         4.6770   -0.4570   -7.2900 cv        1 53N      0.299000
     14 O13         5.7070   -0.3070   -7.9190 o         1 53N     -0.298000
     15 O14         4.2810   -1.6870   -6.7600 os        1 53N     -0.275000
     16 C16         2.9150   -1.4010   -0.8030 c2        1 53N     -0.224000
     17 C18         0.7360   -0.2250    2.8660 c2        1 53N     -0.164000
     18 C19        -0.4460    0.5260    2.7530 c1        1 53N     -0.270000
     19 H5         -0.4730    0.7790   -0.6980 ha        1 53N      0.119000
     20 H10         3.0350   -1.1810   -5.0850 h1        1 53N      0.146000
     21 H10A        2.1660   -1.5730   -6.6830 h1        1 53N      0.146000
     22 H15         4.4330   -1.1710   -2.3560 hc        1 53N      0.130000
     23 H17         3.4690   -1.8620    0.0150 ha        1 53N      0.149000
     24 H11         3.6740    1.0620   -6.0130 hc        1 53N      0.125500
     25 H11A        2.7940    0.6950   -7.5670 hc        1 53N      0.125500
     26 H16         3.4210   -2.6630   -2.5120 hc        1 53N      0.130000
     27 H18         2.3930   -1.2020    1.8700 ha        1 53N      0.094000
     28 H19         1.0780   -0.5040    3.8730 ha        1 53N      0.106000
     29 C10         3.0440   -1.0970   -6.2020 cy        1 53N     -0.063000
@<TRIPOS>BOND
     1    1    2 1   
     2    1    6 1   
     3    1   19 1   
     4    2    3 1   
     5    2    5 1   
     6    3   10 1   
     7    3   16 1   
     8    4   11 1   
     9    4   16 1   
    10    4   22 1   
    11    4   26 1   
    12    5   17 1   
    13    5   27 1   
    14    6    7 1   
    15    6   18 1   
    16    7    8 1   
    17    7    9 1   
    18   10   11 1   
    19   12   13 1   
    20   12   24 1   
    21   12   25 1   
    22   12   29 1   
    23   13   14 1   
    24   13   15 1   
    25   15   29 1   
    26   16   23 1   
    27   17   18 1   
    28   17   28 1   
    29   20   29 1   
    30   21   29 1   
@<TRIPOS>SUBSTRUCTURE
     1 53N         1 TEMP              0 ****  ****    0 ROOT
