@<TRIPOS>MOLECULE
53N
   29    30     1     0     0
SMALL
bcc


@<TRIPOS>ATOM
      1 C5          2.4860    0.2390   -0.2390 ca        1 53N     -0.086000
      2 C6          1.7390   -0.9040    0.0930 ca        1 53N      0.041000
      3 C7          0.3120   -0.9190   -0.0850 cc        1 53N     -0.144100
      4 C15        -1.8540   -1.7310   -0.3830 cd        1 53N     -0.195000
      5 C17         2.4100   -2.0300    0.6020 ca        1 53N     -0.096000
      6 C1          3.8760    0.2340   -0.0600 ca        1 53N     -0.165200
      7 N2          4.6650    1.4420   -0.4140 no        1 53N      0.311200
      8 O3          4.0990    2.4100   -0.8470 o         1 53N     -0.218500
      9 O4          5.8590    1.4260   -0.2590 o         1 53N     -0.218500
     10 S8         -0.6390    0.4740   -0.1410 ss        1 53N      0.000200
     11 C9         -2.0780   -0.3650   -0.3510 cc        1 53N     -0.011400
     12 C11        -4.3470   -0.0490    0.6260 c3        1 53N     -0.193400
     13 C12        -5.7840    0.3770    0.2600 c         1 53N      0.909600
     14 O13        -6.5450    0.7200    1.2080 o         1 53N     -0.843300
     15 O14        -6.1290    0.3440   -0.9560 o         1 53N     -0.843300
     16 C16        -0.4790   -2.0520   -0.2280 cd        1 53N     -0.115000
     17 C18         3.7920   -2.0210    0.7710 ca        1 53N     -0.136000
     18 C19         4.5420   -0.8950    0.4450 ca        1 53N     -0.095000
     19 H5          1.9760    1.1330   -0.6400 ha        1 53N      0.174000
     20 H10        -3.2390    1.4230   -0.5030 hc        1 53N      0.071700
     21 H10A       -3.8610    0.0210   -1.4630 hc        1 53N      0.071700
     22 H15        -2.6420   -2.4770   -0.5080 ha        1 53N      0.165000
     23 H17         1.8300   -2.9260    0.8740 ha        1 53N      0.147000
     24 H11        -4.3530   -1.1560    0.7890 hc        1 53N      0.027700
     25 H11A       -4.0480    0.4410    1.5850 hc        1 53N      0.027700
     26 H16        -0.1030   -3.0780   -0.2350 ha        1 53N      0.138000
     27 H18         4.3010   -2.9120    1.1710 ha        1 53N      0.139000
     28 H19         5.6360   -0.8860    0.5800 ha        1 53N      0.161000
     29 C10        -3.3810    0.3090   -0.4820 c3        1 53N     -0.025100
@<TRIPOS>BOND
     1    1    2 ar  
     2    1    6 ar  
     3    1   19 1   
     4    2    3 1   
     5    2    5 ar  
     6    3   10 1   
     7    3   16 2   
     8    4   11 2   
     9    4   16 1   
    10    4   22 1   
    11    5   17 ar  
    12    5   23 1   
    13    6    7 1   
    14    6   18 ar  
    15    7    8 1   
    16    7    9 1   
    17   10   11 1   
    18   11   29 1   
    19   12   13 1   
    20   12   24 1   
    21   12   25 1   
    22   12   29 1   
    23   13   14 1   
    24   13   15 1   
    25   16   26 1   
    26   17   18 ar  
    27   17   27 1   
    28   18   28 1   
    29   20   29 1   
    30   21   29 1   
@<TRIPOS>SUBSTRUCTURE
     1 53N         1 TEMP              0 ****  ****    0 ROOT
