@<TRIPOS>MOLECULE
53N
   29    30     1     0     0
SMALL
bcc


@<TRIPOS>ATOM
      1 C5         -0.0870   -0.5480    0.4610 c2        1 53N     -0.072000
      2 C6          1.1110    0.1720    0.4330 c2        1 53N     -0.139000
      3 C7          1.9480    0.1260   -0.7310 c2        1 53N     -0.300000
      4 C15         3.6780    0.4380   -2.3650 c3        1 53N     -0.105000
      5 C17         1.4770    0.9390    1.5680 c2        1 53N     -0.101000
      6 C1         -0.8950   -0.4820    1.6130 c2        1 53N     -0.168000
      7 N2         -2.1580   -1.2550    1.6090 no        1 53N      0.572000
      8 O3         -2.3120   -2.1150    0.7640 o         1 53N     -0.419500
      9 O4         -3.0360   -1.0430    2.4020 o         1 53N     -0.419500
     10 S8          1.5350   -0.9060   -2.1160 ss        1 53N      0.833000
     11 C9          2.7350   -0.5170   -2.9320 c1        1 53N     -0.734000
     12 C11         2.7180   -1.1830   -6.9210 cy        1 53N     -0.222000
     13 C12         3.9520   -0.6190   -7.6080 cv        1 53N      0.299000
     14 O13         4.3200   -0.0300   -8.6070 o         1 53N     -0.298000
     15 O14         4.8260   -1.0200   -6.5960 os        1 53N     -0.275000
     16 C16         3.1030    0.7750   -1.0050 c2        1 53N     -0.224000
     17 C18         0.6610    0.9690    2.6820 c2        1 53N     -0.164000
     18 C19        -0.5490    0.2580    2.7440 c1        1 53N     -0.270000
     19 H5         -0.3850   -1.1560   -0.4100 ha        1 53N      0.119000
     20 H10         3.6100   -1.1010   -4.8270 h1        1 53N      0.146000
     21 H10A        3.8870   -2.7070   -5.7240 h1        1 53N      0.146000
     22 H15         3.7650    1.3570   -3.0030 hc        1 53N      0.130000
     23 H17         3.6220    1.4830   -0.3590 ha        1 53N      0.149000
     24 H11         1.9770   -0.4190   -6.6070 hc        1 53N      0.125000
     25 H11A        2.2190   -2.0070   -7.4700 hc        1 53N      0.125000
     26 H16         4.7030   -0.0060   -2.2690 hc        1 53N      0.130000
     27 H18         2.4210    1.5020    1.5380 ha        1 53N      0.094000
     28 H19         0.9560    1.5650    3.5580 ha        1 53N      0.106000
     29 C10         3.7190   -1.6150   -5.8170 cy        1 53N     -0.063000
@<TRIPOS>BOND
     1    1    2 1   
     2    1    6 1   
     3    1   19 1   
     4    2    3 1   
     5    2    5 1   
     6    3   10 1   
     7    3   16 1   
     8    4   11 1   
     9    4   16 1   
    10    4   22 1   
    11    4   26 1   
    12    5   17 1   
    13    5   27 1   
    14    6    7 1   
    15    6   18 1   
    16    7    8 1   
    17    7    9 1   
    18   10   11 1   
    19   12   13 1   
    20   12   24 1   
    21   12   25 1   
    22   12   29 1   
    23   13   14 1   
    24   13   15 1   
    25   15   29 1   
    26   16   23 1   
    27   17   18 1   
    28   17   28 1   
    29   20   29 1   
    30   21   29 1   
@<TRIPOS>SUBSTRUCTURE
     1 53N         1 TEMP              0 ****  ****    0 ROOT
