@<TRIPOS>MOLECULE
53N
   29    24     1     0     0
SMALL
bcc


@<TRIPOS>ATOM
      1 C5         -2.0110   -0.3900    1.5540 c1        1 53N     -0.083000
      2 C6         -1.1520    0.6650    1.2890 c1        1 53N      0.041000
      3 C7         -0.4090    0.6780    0.1190 c1        1 53N     -0.436000
      4 C10         2.7700   -0.2500   -1.9240 c3        1 53N     -0.113000
      5 C15         0.3210    0.9790   -2.2200 c1        1 53N     -0.212000
      6 C17        -1.0150    1.6940    2.2080 c1        1 53N     -0.097000
      7 C1         -2.7330   -0.4160    2.7370 c1        1 53N     -0.120000
      8 N2         -3.6120   -1.4960    3.0070 n2        1 53N      0.457400
      9 O3         -4.3010   -1.5380    4.1860 o         1 53N     -0.312700
     10 O4         -3.7630   -2.3830    2.1800 o         1 53N     -0.312700
     11 S8          0.9610   -0.0190   -0.1000 ss        1 53N      0.615000
     12 C9          1.3680    0.2030   -1.5820 c2        1 53N     -0.292000
     13 C11         2.7490   -1.0120   -3.2310 c3        1 53N     -0.240000
     14 C12         4.1250   -1.5760   -3.5090 c2        1 53N      0.333000
     15 O13         4.8850   -1.0050   -4.3350 o         1 53N     -0.575500
     16 O14         4.5060   -2.6240   -2.9240 o         1 53N     -0.575500
     17 C16        -0.8080    1.2810   -1.1390 c1        1 53N     -0.120000
     18 C18        -1.7370    1.6680    3.3910 c1        1 53N     -0.138000
     19 C19        -2.5960    0.6130    3.6550 c2        1 53N     -0.095000
     20 H5         -2.1180   -1.1080    0.9010 ha        1 53N      0.177000
     21 H10         3.3530    0.5310   -2.0120 hc        1 53N      0.118000
     22 H10A        3.1080   -0.8310   -1.2140 hc        1 53N      0.118000
     23 H15         0.3110    1.2670   -3.1530 DU        1 53N      0.143500
     24 H17        -0.4100    2.4380    2.0220 ha        1 53N      0.145000
     25 H11         2.4920   -0.4080   -3.9560 hc        1 53N      0.067000
     26 H11A        2.1030   -1.7440   -3.1710 hc        1 53N      0.067000
     27 H16        -1.6290    1.7860   -1.2960 DU        1 53N      0.143500
     28 H18        -1.6540    2.4010    4.0300 ha        1 53N      0.137000
     29 H19        -3.1050    0.5940    4.4880 ha        1 53N      0.161000
@<TRIPOS>BOND
     1    1    7 1   
     2    1   20 1   
     3    2    6 1   
     4    3   11 1   
     5    3   17 1   
     6    4   12 1   
     7    4   13 1   
     8    4   21 1   
     9    4   22 1   
    10    5   12 1   
    11    5   17 1   
    12    6   24 1   
    13    7   19 1   
    14    8    9 2   
    15    8   10 2   
    16   11   12 1   
    17   13   14 1   
    18   13   25 1   
    19   13   26 1   
    20   14   15 1   
    21   14   16 1   
    22   18   19 1   
    23   18   28 1   
    24   19   29 1   
@<TRIPOS>SUBSTRUCTURE
     1 53N         1 TEMP              0 ****  ****    0 ROOT
