@<TRIPOS>MOLECULE
53Q
   40    42     1     0     0
SMALL
bcc


@<TRIPOS>ATOM
      1 C5          0.1090    0.1720   -0.2180 c3        1 53Q      0.113700
      2 C6          2.0170    0.3140    1.1980 ca        1 53Q      0.131100
      3 C7          1.2960   -0.1470    2.3040 ca        1 53Q     -0.183500
      4 C8          1.9440   -0.2890    3.5300 ca        1 53Q     -0.075500
      5 C9          3.3000    0.0280    3.6660 ca        1 53Q     -0.091800
      6 C10         4.0080    0.4980    2.5470 ca        1 53Q     -0.075500
      7 C11         3.3820    0.6390    1.3170 ca        1 53Q     -0.183500
      8 C12         3.9820   -0.0960    4.9570 ce        1 53Q      0.014600
      9 C13         3.8810   -1.1930    5.7380 cf        1 53Q      0.050200
     10 C14         3.1360   -2.4110    5.4140 ca        1 53Q     -0.061800
     11 C15         3.6440   -3.3200    4.4770 ca        1 53Q     -0.105000
     12 Cl          4.6650   -1.2660    7.2580 cl        1 53Q     -0.102400
     13 C19         1.9300   -2.6930    6.0690 ca        1 53Q     -0.105000
     14 C18         1.2370   -3.8680    5.7810 ca        1 53Q     -0.133000
     15 C17         1.7440   -4.7680    4.8440 ca        1 53Q     -0.121000
     16 C16         2.9460   -4.4930    4.1940 ca        1 53Q     -0.133000
     17 C20         4.7920    1.0680    5.3520 ca        1 53Q     -0.057800
     18 C25         4.1760    2.1960    5.9070 ca        1 53Q     -0.109500
     19 C24         4.9420    3.3030    6.2680 ca        1 53Q     -0.131500
     20 C23         6.3240    3.2940    6.0760 ca        1 53Q     -0.125000
     21 C22         6.9400    2.1720    5.5210 ca        1 53Q     -0.131500
     22 C21         6.1800    1.0620    5.1590 ca        1 53Q     -0.109500
     23 O           1.4870    0.4920   -0.0650 os        1 53Q     -0.326900
     24 H1         -0.0730   -0.9060    0.0080 h1        1 53Q      0.044700
     25 H2         -0.0900    0.3880   -1.2980 h1        1 53Q      0.044700
     26 H3         -0.5220    0.8210    0.4370 h1        1 53Q      0.044700
     27 H4          0.2300   -0.4010    2.2230 ha        1 53Q      0.144500
     28 H5          1.3830   -0.6630    4.4020 ha        1 53Q      0.141500
     29 H6          5.0740    0.7590    2.6530 ha        1 53Q      0.141500
     30 H7          3.9310    1.0010    0.4360 ha        1 53Q      0.144500
     31 H8          4.5930   -3.1040    3.9630 ha        1 53Q      0.139500
     32 H9          1.5350   -1.9870    6.8150 ha        1 53Q      0.139500
     33 H10         0.2910   -4.0850    6.2980 ha        1 53Q      0.133500
     34 H11         1.1960   -5.6960    4.6200 ha        1 53Q      0.132000
     35 H12         3.3490   -5.2020    3.4560 ha        1 53Q      0.133500
     36 H13         3.0870    2.2070    6.0580 ha        1 53Q      0.136500
     37 H14         4.4540    4.1860    6.7060 ha        1 53Q      0.132000
     38 H15         6.9260    4.1680    6.3620 ha        1 53Q      0.131000
     39 H16         8.0300    2.1620    5.3690 ha        1 53Q      0.132000
     40 H17         6.6680    0.1760    4.7260 ha        1 53Q      0.136500
@<TRIPOS>BOND
     1    1   23 1   
     2    1   24 1   
     3    1   25 1   
     4    1   26 1   
     5    2    3 ar  
     6    2    7 ar  
     7    2   23 1   
     8    3    4 ar  
     9    3   27 1   
    10    4    5 ar  
    11    4   28 1   
    12    5    6 ar  
    13    5    8 1   
    14    6    7 ar  
    15    6   29 1   
    16    7   30 1   
    17    8    9 2   
    18    8   17 1   
    19    9   10 1   
    20    9   12 1   
    21   10   11 ar  
    22   10   13 ar  
    23   11   16 ar  
    24   11   31 1   
    25   13   14 ar  
    26   13   32 1   
    27   14   15 ar  
    28   14   33 1   
    29   15   16 ar  
    30   15   34 1   
    31   16   35 1   
    32   17   18 ar  
    33   17   22 ar  
    34   18   19 ar  
    35   18   36 1   
    36   19   20 ar  
    37   19   37 1   
    38   20   21 ar  
    39   20   38 1   
    40   21   22 ar  
    41   21   39 1   
    42   22   40 1   
@<TRIPOS>SUBSTRUCTURE
     1 53Q         1 TEMP              0 ****  ****    0 ROOT
