@<TRIPOS>MOLECULE
53R
   49    51     1     0     0
SMALL
bcc


@<TRIPOS>ATOM
      1 C20        -0.1340   -0.1730   -0.3860 ca        1 53R     -0.116500
      2 C21         1.2310   -0.0400   -0.6330 ca        1 53R     -0.131000
      3 C22         2.0630    0.5430    0.3230 ca        1 53R     -0.125000
      4 C23         1.5250    0.9910    1.5300 ca        1 53R     -0.131000
      5 C24         0.1620    0.8560    1.7820 ca        1 53R     -0.116500
      6 C25        -0.6810    0.2740    0.8250 cp        1 53R     -0.042000
      7 C18        -2.1130    0.1330    1.0890 cp        1 53R      0.000000
      8 C19        -2.5600   -0.2790    2.3490 ca        1 53R     -0.148000
      9 C17        -3.0410    0.4100    0.0740 ca        1 53R     -0.193000
     10 C16        -4.4060    0.2730    0.3420 ca        1 53R      0.122100
     11 O17        -5.4090    0.5060   -0.5820 os        1 53R     -0.330900
     12 C2         -4.9940    1.0130   -1.8450 c3        1 53R      0.113700
     13 C15        -4.8600   -0.1370    1.6070 ca        1 53R     -0.150000
     14 C14        -3.9290   -0.4140    2.6080 ca        1 53R     -0.043300
     15 C12        -4.3890   -0.8490    3.9720 c3        1 53R      0.069700
     16 C13        -4.8850    0.3550    4.7660 c3        1 53R     -0.086100
     17 C11        -5.4040   -1.8660    3.8850 c1        1 53R     -0.156100
     18 C10        -6.2380   -2.7250    3.8150 cg        1 53R     -0.080000
     19 C6         -7.2180   -3.7130    3.7000 ca        1 53R     -0.344600
     20 C5         -7.5020   -4.6200    4.7520 ca        1 53R      0.538600
     21 C8         -6.7250   -4.5000    6.0250 c3        1 53R     -0.157400
     22 N4         -8.4420   -5.5790    4.6540 nb        1 53R     -0.793000
     23 C3         -9.1480   -5.6400    3.4550 ca        1 53R      0.916900
     24 N7        -10.1910   -6.5640    3.3760 nh        1 53R     -0.933500
     25 N2         -8.9340   -4.8350    2.3530 nb        1 53R     -0.834000
     26 C1         -7.9860   -3.8540    2.4860 ca        1 53R      0.750200
     27 N9         -7.7950   -2.9740    1.4430 nh        1 53R     -0.957500
     28 H20        -0.7860   -0.6400   -1.1400 ha        1 53R      0.135000
     29 H21         1.6520   -0.3970   -1.5840 ha        1 53R      0.132500
     30 H22         3.1390    0.6480    0.1260 ha        1 53R      0.132000
     31 H23         2.1790    1.4520    2.2850 ha        1 53R      0.132500
     32 H24        -0.2600    1.2140    2.7340 ha        1 53R      0.135000
     33 H19        -1.8270   -0.5060    3.1380 ha        1 53R      0.139000
     34 H17        -2.6840    0.7370   -0.9120 ha        1 53R      0.142000
     35 H2         -4.4490    1.9800   -1.7240 h1        1 53R      0.045033
     36 H2A        -4.3550    0.2670   -2.3770 h1        1 53R      0.045033
     37 H2B        -5.9580    1.1680   -2.3920 h1        1 53R      0.045033
     38 H15        -5.9390   -0.2330    1.7970 ha        1 53R      0.152000
     39 H12        -3.5050   -1.2920    4.5250 hc        1 53R      0.069700
     40 H13        -4.0640    1.1040    4.8670 hc        1 53R      0.043700
     41 H13A       -5.7480    0.8360    4.2470 hc        1 53R      0.043700
     42 H13B       -5.2110    0.0340    5.7830 hc        1 53R      0.043700
     43 H8         -7.0940   -3.6070    6.5890 hc        1 53R      0.060700
     44 H8A        -6.8330   -5.4020    6.6750 hc        1 53R      0.060700
     45 H8B        -5.6430   -4.3520    5.7870 hc        1 53R      0.060700
     46 HN7       -10.1990   -7.2950    4.0460 hn        1 53R      0.430300
     47 HN7A      -10.5440   -6.7760    2.4730 hn        1 53R      0.430300
     48 HN9        -6.9980   -2.3850    1.4750 hn        1 53R      0.440300
     49 HN9A       -8.2290   -3.1400    0.5690 hn        1 53R      0.440300
@<TRIPOS>BOND
     1    1    2 ar  
     2    1    6 ar  
     3    1   28 1   
     4    2    3 ar  
     5    2   29 1   
     6    3    4 ar  
     7    3   30 1   
     8    4    5 ar  
     9    4   31 1   
    10    5    6 ar  
    11    5   32 1   
    12    6    7 1   
    13    7    8 ar  
    14    7    9 ar  
    15    8   14 ar  
    16    8   33 1   
    17    9   10 ar  
    18    9   34 1   
    19   10   11 1   
    20   10   13 ar  
    21   11   12 1   
    22   12   35 1   
    23   12   36 1   
    24   12   37 1   
    25   13   14 ar  
    26   13   38 1   
    27   14   15 1   
    28   15   16 1   
    29   15   17 1   
    30   15   39 1   
    31   16   40 1   
    32   16   41 1   
    33   16   42 1   
    34   17   18 3   
    35   18   19 1   
    36   19   20 ar  
    37   19   26 ar  
    38   20   21 1   
    39   20   22 ar  
    40   21   43 1   
    41   21   44 1   
    42   21   45 1   
    43   22   23 ar  
    44   23   24 1   
    45   23   25 ar  
    46   24   46 1   
    47   24   47 1   
    48   25   26 ar  
    49   26   27 1   
    50   27   48 1   
    51   27   49 1   
@<TRIPOS>SUBSTRUCTURE
     1 53R         1 TEMP              0 ****  ****    0 ROOT
