@<TRIPOS>MOLECULE
53R
   51    53     1     0     0
SMALL
bcc


@<TRIPOS>ATOM
      1 C20        -0.6240   -0.8550   -0.4400 ca        1 53R     -0.103500
      2 C21         0.6480   -0.7170   -0.9900 ca        1 53R     -0.122000
      3 C22         1.5670    0.1670   -0.4220 ca        1 53R     -0.089000
      4 C23         1.2100    0.9120    0.7030 ca        1 53R     -0.122000
      5 C24        -0.0580    0.7730    1.2620 ca        1 53R     -0.103500
      6 C25        -0.9870   -0.1110    0.6930 cp        1 53R     -0.099000
      7 C18        -2.3200   -0.2460    1.2720 cp        1 53R      0.063000
      8 C19        -2.4820   -0.2490    2.6730 ca        1 53R     -0.124000
      9 C17        -3.4410   -0.3970    0.4430 ca        1 53R     -0.163000
     10 C16        -4.7120   -0.4860    1.0200 ca        1 53R      0.105100
     11 O17        -5.8680   -0.7660    0.3050 os        1 53R     -0.423900
     12 C2         -5.9310   -0.1970   -1.0090 c3        1 53R      0.118700
     13 C15        -4.8850   -0.3880    2.4060 ca        1 53R     -0.261000
     14 C14        -3.7530   -0.3310    3.2310 ca        1 53R     -0.062300
     15 C12        -3.9570   -0.4530    4.7220 c3        1 53R      0.018700
     16 C13        -4.3240    0.8780    5.3600 c3        1 53R     -0.092100
     17 C11        -4.9970   -1.4440    4.8970 c1        1 53R      0.151900
     18 C10        -5.8750   -2.2660    4.8030 cg        1 53R     -0.321000
     19 C6         -6.8930   -3.1820    4.5910 ca        1 53R     -0.023600
     20 C5         -7.5840   -3.8600    5.6680 ca        1 53R      0.536600
     21 C8         -7.1840   -3.5640    7.0730 c3        1 53R     -0.182400
     22 N4         -8.5730   -4.7350    5.4180 nb        1 53R     -0.638000
     23 C3         -8.8940   -4.9530    4.0940 ca        1 53R      0.724900
     24 N7         -9.9970   -5.9280    3.8490 n4        1 53R     -0.813300
     25 N2         -8.3200   -4.3850    3.0000 nb        1 53R     -0.661000
     26 C1         -7.3140   -3.4950    3.2680 ca        1 53R      0.486200
     27 N9         -6.6610   -2.8520    2.1140 n4        1 53R     -0.821300
     28 H20        -1.3400   -1.5570   -0.8920 ha        1 53R      0.131000
     29 H21         0.9290   -1.3070   -1.8770 ha        1 53R      0.152500
     30 H22         2.5710    0.2770   -0.8610 ha        1 53R      0.156000
     31 H23         1.9320    1.6140    1.1500 ha        1 53R      0.152500
     32 H24        -0.3360    1.3730    2.1420 ha        1 53R      0.131000
     33 H19        -1.5910   -0.1880    3.3190 ha        1 53R      0.166000
     34 H17        -3.3180   -0.4210   -0.6510 ha        1 53R      0.170000
     35 H2         -7.0110   -0.2900   -1.2880 h1        1 53R      0.065367
     36 H2A        -5.6140    0.8730   -0.9920 h1        1 53R      0.065367
     37 H2B        -5.2870   -0.7920   -1.7010 h1        1 53R      0.065367
     38 H15        -5.8930   -0.2690    2.8300 ha        1 53R      0.130000
     39 H12        -3.0040   -0.8320    5.2060 hc        1 53R      0.123700
     40 H13        -5.2520    1.2980    4.9010 hc        1 53R      0.069367
     41 H13A       -4.4810    0.7540    6.4580 hc        1 53R      0.069367
     42 H13B       -3.4890    1.6030    5.1960 hc        1 53R      0.069367
     43 H8         -7.5680   -2.5470    7.3540 hc        1 53R      0.108367
     44 H8A        -6.0660   -3.5570    7.1490 hc        1 53R      0.108367
     45 H8B        -7.5930   -4.3100    7.8020 hc        1 53R      0.108367
     46 HN7        -9.7300   -6.8430    4.2450 hn        1 53R      0.496467
     47 HN7A      -10.8510   -5.5930    4.3220 hn        1 53R      0.496467
     48 HN9        -6.5810   -3.4980    1.3170 hn        1 53R      0.496133
     49 HN9A       -5.7100   -2.5230    2.3840 hn        1 53R      0.496133
     50 H73       -10.1790   -6.0290    2.8400 hn        1 53R      0.496467
     51 H93        -7.1960   -2.0200    1.8060 hn        1 53R      0.496133
@<TRIPOS>BOND
     1    1    2 ar  
     2    1    6 ar  
     3    1   28 1   
     4    2    3 ar  
     5    2   29 1   
     6    3    4 ar  
     7    3   30 1   
     8    4    5 ar  
     9    4   31 1   
    10    5    6 ar  
    11    5   32 1   
    12    6    7 1   
    13    7    8 ar  
    14    7    9 ar  
    15    8   14 ar  
    16    8   33 1   
    17    9   10 ar  
    18    9   34 1   
    19   10   11 1   
    20   10   13 ar  
    21   11   12 1   
    22   12   35 1   
    23   12   36 1   
    24   12   37 1   
    25   13   14 ar  
    26   13   38 1   
    27   14   15 1   
    28   15   16 1   
    29   15   17 1   
    30   15   39 1   
    31   16   40 1   
    32   16   41 1   
    33   16   42 1   
    34   17   18 3   
    35   18   19 1   
    36   19   20 ar  
    37   19   26 ar  
    38   20   21 1   
    39   20   22 ar  
    40   21   43 1   
    41   21   44 1   
    42   21   45 1   
    43   22   23 ar  
    44   23   24 1   
    45   23   25 ar  
    46   24   46 1   
    47   24   47 1   
    48   24   50 1   
    49   25   26 ar  
    50   26   27 1   
    51   27   48 1   
    52   27   49 1   
    53   27   51 1   
@<TRIPOS>SUBSTRUCTURE
     1 53R         1 TEMP              0 ****  ****    0 ROOT
