@<TRIPOS>MOLECULE
53R
   49    51     1     0     0
SMALL
bcc


@<TRIPOS>ATOM
      1 C20         0.2760   -0.5700    0.4370 ca        1 53R     -0.116500
      2 C21         1.6500   -0.3380    0.4560 ca        1 53R     -0.131000
      3 C22         2.1840    0.6440    1.2900 ca        1 53R     -0.125000
      4 C23         1.3390    1.3950    2.1070 ca        1 53R     -0.131000
      5 C24        -0.0350    1.1650    2.0940 ca        1 53R     -0.116500
      6 C25        -0.5790    0.1800    1.2560 cp        1 53R     -0.042000
      7 C18        -2.0220   -0.0620    1.2400 cp        1 53R      0.000000
      8 C19        -2.7460   -0.0810    2.4380 ca        1 53R     -0.148000
      9 C17        -2.6810   -0.2780    0.0220 ca        1 53R     -0.193000
     10 C16        -4.0600   -0.5060    0.0220 ca        1 53R      0.122100
     11 O17        -4.8120   -0.7420   -1.1140 os        1 53R     -0.330900
     12 C2         -4.1220   -0.6460   -2.3550 c3        1 53R      0.113700
     13 C15        -4.7920   -0.5230    1.2220 ca        1 53R     -0.150000
     14 C14        -4.1260   -0.3120    2.4290 ca        1 53R     -0.043300
     15 C12        -4.8880   -0.3190    3.7260 c3        1 53R      0.069700
     16 C13        -5.6360    0.9980    3.9010 c3        1 53R     -0.086100
     17 C11        -5.7870   -1.4400    3.8010 c1        1 53R     -0.154100
     18 C10        -6.5240   -2.3840    3.8720 cg        1 53R     -0.081000
     19 C6         -7.3820   -3.4850    3.9180 ca        1 53R     -0.341600
     20 C5         -7.8730   -4.0070    5.1420 ca        1 53R      0.537600
     21 C8         -7.4580   -3.3420    6.4170 c3        1 53R     -0.157400
     22 N4         -8.6890   -5.0760    5.2030 nb        1 53R     -0.791000
     23 C3         -9.0220   -5.6750    3.9910 ca        1 53R      0.914900
     24 N7         -9.7740   -6.8520    4.0460 nv        1 53R     -0.931500
     25 N2         -8.6280   -5.2390    2.7410 nb        1 53R     -0.831000
     26 C1         -7.8110   -4.1390    2.7060 ca        1 53R      0.745200
     27 N9         -7.4440   -3.6270    1.4780 nv        1 53R     -0.952500
     28 H20        -0.1410   -1.3510   -0.2170 ha        1 53R      0.135000
     29 H21         2.3140   -0.9340   -0.1870 ha        1 53R      0.133000
     30 H22         3.2690    0.8270    1.3030 ha        1 53R      0.132000
     31 H23         1.7570    2.1720    2.7640 ha        1 53R      0.133000
     32 H24        -0.6990    1.7610    2.7370 ha        1 53R      0.135000
     33 H19        -2.2220    0.0770    3.3920 ha        1 53R      0.139000
     34 H17        -2.1080   -0.2580   -0.9150 ha        1 53R      0.142000
     35 H2         -3.3320   -1.4320   -2.4270 h1        1 53R      0.045033
     36 H2A        -3.6760    0.3700   -2.4830 h1        1 53R      0.045033
     37 H2B        -4.9260   -0.8240   -3.1140 h1        1 53R      0.045033
     38 H15        -5.8770   -0.7000    1.1980 ha        1 53R      0.152000
     39 H12        -4.1460   -0.4160    4.5780 hc        1 53R      0.069700
     40 H13        -6.1880    0.9980    4.8710 hc        1 53R      0.043367
     41 H13A       -6.3680    1.1450    3.0720 hc        1 53R      0.043367
     42 H13B       -4.9120    1.8470    3.8960 hc        1 53R      0.043367
     43 H8         -6.3890   -3.5970    6.6250 hc        1 53R      0.060700
     44 H8A        -8.0790   -3.6680    7.2870 hc        1 53R      0.060700
     45 H8B        -7.5460   -2.2340    6.3030 hc        1 53R      0.060700
     46 HN7       -10.2550   -7.0380    4.8950 hn        1 53R      0.429300
     47 HN7A      -10.2150   -7.1470    3.2070 hn        1 53R      0.429300
     48 HN9        -7.6110   -4.1570    0.6580 hn        1 53R      0.437300
     49 HN9A       -6.7070   -2.9620    1.4640 hn        1 53R      0.437300
@<TRIPOS>BOND
     1    1    2 ar  
     2    1    6 ar  
     3    1   28 1   
     4    2    3 ar  
     5    2   29 1   
     6    3    4 ar  
     7    3   30 1   
     8    4    5 ar  
     9    4   31 1   
    10    5    6 ar  
    11    5   32 1   
    12    6    7 1   
    13    7    8 ar  
    14    7    9 ar  
    15    8   14 ar  
    16    8   33 1   
    17    9   10 ar  
    18    9   34 1   
    19   10   11 1   
    20   10   13 ar  
    21   11   12 1   
    22   12   35 1   
    23   12   36 1   
    24   12   37 1   
    25   13   14 ar  
    26   13   38 1   
    27   14   15 1   
    28   15   16 1   
    29   15   17 1   
    30   15   39 1   
    31   16   40 1   
    32   16   41 1   
    33   16   42 1   
    34   17   18 3   
    35   18   19 1   
    36   19   20 ar  
    37   19   26 ar  
    38   20   21 1   
    39   20   22 ar  
    40   21   43 1   
    41   21   44 1   
    42   21   45 1   
    43   22   23 ar  
    44   23   24 1   
    45   23   25 ar  
    46   24   46 1   
    47   24   47 1   
    48   25   26 ar  
    49   26   27 1   
    50   27   48 1   
    51   27   49 1   
@<TRIPOS>SUBSTRUCTURE
     1 53R         1 TEMP              0 ****  ****    0 ROOT
