@<TRIPOS>MOLECULE
53R
   49    51     1     0     0
SMALL
bcc


@<TRIPOS>ATOM
      1 C20        -5.1030    0.1490   -1.5440 ca        1 53R     -0.116500
      2 C21        -6.3090    0.6860   -1.9890 ca        1 53R     -0.131000
      3 C22        -6.9120    1.7320   -1.2890 ca        1 53R     -0.125000
      4 C23        -6.3030    2.2410   -0.1420 ca        1 53R     -0.131000
      5 C24        -5.0950    1.7090    0.3040 ca        1 53R     -0.116500
      6 C25        -4.4840    0.6560   -0.3930 cp        1 53R     -0.042000
      7 C18        -3.2170    0.0960    0.0760 cp        1 53R      0.001000
      8 C19        -2.2000    0.9410    0.5350 ca        1 53R     -0.148000
      9 C17        -3.0190   -1.2920    0.0620 ca        1 53R     -0.193000
     10 C16        -1.8030   -1.8130    0.5140 ca        1 53R      0.123100
     11 O17        -1.4910   -3.1600    0.5380 os        1 53R     -0.331900
     12 C2         -2.5310   -4.0510    0.1530 c3        1 53R      0.113700
     13 C15        -0.7800   -0.9680    0.9800 ca        1 53R     -0.151000
     14 C14        -0.9850    0.4110    0.9850 ca        1 53R     -0.042300
     15 C12         0.0900    1.3370    1.4840 c3        1 53R      0.069700
     16 C13         0.0860    1.3710    3.0070 c3        1 53R     -0.086100
     17 C11         1.3840    0.9630    0.9760 c1        1 53R     -0.157100
     18 C10         2.4610    0.6620    0.5410 cg        1 53R     -0.079000
     19 C6          3.7020    0.2780    0.0290 ca        1 53R     -0.347600
     20 C5          4.8480    1.1050    0.1290 ca        1 53R      0.539600
     21 C8          4.7100    2.4360    0.7990 c3        1 53R     -0.157400
     22 N4          6.0540    0.7420   -0.3490 nb        1 53R     -0.794000
     23 C3          6.1360   -0.5150   -0.9430 ca        1 53R      0.916900
     24 N7          7.4020   -0.9510   -1.3410 nh        1 53R     -0.931500
     25 N2          5.0840   -1.3910   -1.1240 nb        1 53R     -0.836000
     26 C1          3.8650   -0.9940   -0.6360 ca        1 53R      0.756200
     27 N9          2.7830   -1.8210   -0.8150 nh        1 53R     -0.966500
     28 H20        -4.6270   -0.6710   -2.1030 ha        1 53R      0.135000
     29 H21        -6.7850    0.2850   -2.8960 ha        1 53R      0.133000
     30 H22        -7.8640    2.1540   -1.6410 ha        1 53R      0.132000
     31 H23        -6.7760    3.0640    0.4130 ha        1 53R      0.133000
     32 H24        -4.6190    2.1100    1.2120 ha        1 53R      0.135000
     33 H19        -2.3560    2.0310    0.5320 ha        1 53R      0.139000
     34 H17        -3.8220   -1.9510   -0.2950 ha        1 53R      0.142000
     35 H2         -3.4230   -3.9300    0.8140 h1        1 53R      0.045033
     36 H2A        -2.8110   -3.8900   -0.9170 h1        1 53R      0.045033
     37 H2B        -2.0710   -5.0630    0.2910 h1        1 53R      0.045033
     38 H15         0.1670   -1.3990    1.3350 ha        1 53R      0.150000
     39 H12        -0.1360    2.3830    1.1090 hc        1 53R      0.069700
     40 H13         0.8720    2.0720    3.3770 hc        1 53R      0.043367
     41 H13A       -0.9090    1.7160    3.3740 hc        1 53R      0.043367
     42 H13B        0.2890    0.3550    3.4210 hc        1 53R      0.043367
     43 H8          4.6250    2.2760    1.9030 hc        1 53R      0.060700
     44 H8A         5.5840    3.1030    0.6020 hc        1 53R      0.060700
     45 H8B         3.7800    2.9390    0.4380 hc        1 53R      0.060700
     46 HN7         8.1050   -0.2570   -1.4390 hn        1 53R      0.428800
     47 HN7A        7.4390   -1.7190   -1.9690 hn        1 53R      0.428800
     48 HN9         1.9220   -1.5740   -0.3920 hn        1 53R      0.445300
     49 HN9A        2.8950   -2.7260   -1.1990 hn        1 53R      0.445300
@<TRIPOS>BOND
     1    1    2 ar  
     2    1    6 ar  
     3    1   28 1   
     4    2    3 ar  
     5    2   29 1   
     6    3    4 ar  
     7    3   30 1   
     8    4    5 ar  
     9    4   31 1   
    10    5    6 ar  
    11    5   32 1   
    12    6    7 1   
    13    7    8 ar  
    14    7    9 ar  
    15    8   14 ar  
    16    8   33 1   
    17    9   10 ar  
    18    9   34 1   
    19   10   11 1   
    20   10   13 ar  
    21   11   12 1   
    22   12   35 1   
    23   12   36 1   
    24   12   37 1   
    25   13   14 ar  
    26   13   38 1   
    27   14   15 1   
    28   15   16 1   
    29   15   17 1   
    30   15   39 1   
    31   16   40 1   
    32   16   41 1   
    33   16   42 1   
    34   17   18 3   
    35   18   19 1   
    36   19   20 ar  
    37   19   26 ar  
    38   20   21 1   
    39   20   22 ar  
    40   21   43 1   
    41   21   44 1   
    42   21   45 1   
    43   22   23 ar  
    44   23   24 1   
    45   23   25 ar  
    46   24   46 1   
    47   24   47 1   
    48   25   26 ar  
    49   26   27 1   
    50   27   48 1   
    51   27   49 1   
@<TRIPOS>SUBSTRUCTURE
     1 53R         1 TEMP              0 ****  ****    0 ROOT
