@<TRIPOS>MOLECULE
53R
   49    41     1     0     0
SMALL
bcc


@<TRIPOS>ATOM
      1 C20         4.3980   -1.4820   -2.2190 c1        1 53R     -0.133500
      2 C21         5.7830   -1.5140   -2.2530 c1        1 53R     -0.127000
      3 C22         6.5090   -1.3500   -1.0840 c1        1 53R     -0.127000
      4 C23         5.8510   -1.1550    0.1190 c1        1 53R     -0.127000
      5 C24         4.4650   -1.1240    0.1540 c1        1 53R     -0.127000
      6 C25         3.7380   -1.2870   -1.0150 c1        1 53R     -0.023500
      7 C18         2.3540   -1.3850   -0.9600 c1        1 53R     -0.023500
      8 C19         1.5690   -0.2700   -1.2180 c1        1 53R     -0.133500
      9 C17         1.7560   -2.6120   -0.7180 c1        1 53R     -0.194000
     10 C16         0.3740   -2.7260   -0.7320 c1        1 53R      0.081000
     11 O17        -0.2330   -3.9600   -0.4370 o         1 53R     -0.211000
     12 C2         -0.3000   -4.8420   -1.5370 c3        1 53R     -0.076000
     13 C15        -0.4110   -1.6110   -0.9900 c2        1 53R     -0.149000
     14 C14         0.1860   -0.3840   -1.2320 c1        1 53R     -0.036000
     15 C12        -0.6650    0.8030   -1.6340 c3        1 53R      0.049000
     16 C13         0.2290    1.9580   -2.0120 c3        1 53R     -0.203000
     17 C11        -1.5490    1.2080   -0.4710 c1        1 53R     -0.180000
     18 C10        -2.2470    1.5290    0.4460 c1        1 53R     -0.087000
     19 C6         -3.1320    1.9350    1.6100 c1        1 53R     -0.206000
     20 C5         -3.1210    3.2250    2.0570 c2        1 53R      0.115000
     21 C8         -2.1960    4.2400    1.4180 c3        1 53R     -0.181000
     22 N4         -3.9540    3.6010    3.0370 n1        1 53R     -0.265000
     23 C3         -4.8130    2.6960    3.5870 c1        1 53R      0.196000
     24 N7         -5.6740    3.0890    4.6440 n3        1 53R     -0.330000
     25 N2         -4.8240    1.4090    3.1420 n1        1 53R     -0.304000
     26 C1         -3.9910    1.0300    2.1620 c1        1 53R      0.222000
     27 N9         -4.0520   -0.2900    1.6520 n3        1 53R     -0.348000
     28 H20         3.8870   -1.5970   -3.0420 ha        1 53R      0.139500
     29 H21         6.2470   -1.6510   -3.1010 ha        1 53R      0.133500
     30 H22         7.4860   -1.3730   -1.1080 ha        1 53R      0.133500
     31 H23         6.3630   -1.0400    0.9430 ha        1 53R      0.133500
     32 H24         4.0020   -0.9860    1.0020 ha        1 53R      0.133500
     33 H19         1.9890    0.5940   -1.3880 ha        1 53R      0.139500
     34 H17         2.3080   -3.3980   -0.5440 ha        1 53R      0.142000
     35 H2         -0.1480   -5.7620   -1.2290 h1        1 53R      0.084333
     36 H2A         0.3880   -4.6000   -2.1940 h1        1 53R      0.084333
     37 H2B        -1.1870   -4.7790   -1.9540 h1        1 53R      0.084333
     38 H15        -1.3840   -1.6910   -1.0000 ha        1 53R      0.151000
     39 H12        -1.2220    0.5600   -2.3970 hc        1 53R      0.110000
     40 H13        -0.3180    2.7010   -2.3390 hc        1 53R      0.082667
     41 H13A        0.7390    2.2480   -1.2270 hc        1 53R      0.082667
     42 H13B        0.8480    1.6740   -2.7170 hc        1 53R      0.082667
     43 H8         -2.1380    5.0340    1.9900 hc        1 53R      0.100333
     44 H8A        -2.5480    4.4950    0.5390 hc        1 53R      0.100333
     45 H8B        -1.3040    3.8470    1.3120 hc        1 53R      0.100333
     46 HN7        -5.3600    3.6250    5.3140 hn        1 53R      0.225000
     47 HN7A       -6.5410    2.7990    4.6590 hn        1 53R      0.225000
     48 HN9        -3.5190   -0.5350    0.9510 hn        1 53R      0.231000
     49 HN9A       -4.6350   -0.8940    2.0150 hn        1 53R      0.231000
@<TRIPOS>BOND
     1    1    6 1   
     2    1   28 1   
     3    2    3 1   
     4    2   29 1   
     5    3   30 1   
     6    4    5 1   
     7    4   31 1   
     8    5   32 1   
     9    7    8 1   
    10    8   33 1   
    11    9   10 1   
    12    9   34 1   
    13   10   13 1   
    14   11   12 1   
    15   12   35 1   
    16   12   36 1   
    17   12   37 1   
    18   13   14 1   
    19   13   38 1   
    20   14   15 1   
    21   15   16 1   
    22   15   17 1   
    23   15   39 1   
    24   16   40 1   
    25   16   41 1   
    26   16   42 1   
    27   17   18 1   
    28   19   20 1   
    29   19   26 1   
    30   20   21 1   
    31   20   22 1   
    32   21   43 1   
    33   21   44 1   
    34   21   45 1   
    35   23   24 1   
    36   23   25 1   
    37   24   46 1   
    38   24   47 1   
    39   26   27 1   
    40   27   48 1   
    41   27   49 1   
@<TRIPOS>SUBSTRUCTURE
     1 53R         1 TEMP              0 ****  ****    0 ROOT
