@<TRIPOS>MOLECULE
53S
   54    56     1     0     0
SMALL
bcc


@<TRIPOS>ATOM
      1 C6          0.0820   -0.2110   -0.1990 ca        1 53S     -0.023600
      2 C5          0.9370   -1.0620    0.6010 ca        1 53S      0.536600
      3 C2         -4.4060    4.1360   -1.6620 c3        1 53S      0.118700
      4 C20        -2.5580    4.3540   -6.7010 ca        1 53S     -0.096500
      5 C21        -2.6200    4.9500   -7.9560 ca        1 53S     -0.129000
      6 C22        -3.0310    4.2140   -9.0750 ca        1 53S     -0.026300
      7 C26        -3.0910    4.8460  -10.4120 c3        1 53S     -0.071800
      8 C23        -3.3770    2.8660   -8.9120 ca        1 53S     -0.129000
      9 C24        -3.3090    2.2640   -7.6600 ca        1 53S     -0.096500
     10 C25        -2.9000    3.0030   -6.5390 cp        1 53S     -0.110000
     11 C18        -2.8430    2.3730   -5.2250 cp        1 53S      0.068000
     12 C19        -2.3890    1.0440   -5.0990 ca        1 53S     -0.126000
     13 C17        -3.2180    3.0890   -4.0790 ca        1 53S     -0.165000
     14 C16        -3.1920    2.4520   -2.8340 ca        1 53S      0.106100
     15 O17        -3.4150    3.1010   -1.6280 os        1 53S     -0.423900
     16 C15        -2.8370    1.1020   -2.7200 ca        1 53S     -0.264000
     17 C14        -2.3770    0.4220   -3.8560 ca        1 53S     -0.061300
     18 C12        -1.7910   -0.9570   -3.6660 c3        1 53S      0.018700
     19 C13        -2.8650   -2.0330   -3.6170 c3        1 53S     -0.092100
     20 C11        -1.0280   -0.8940   -2.4380 c1        1 53S      0.151900
     21 C10        -0.4820   -0.6180   -1.3970 cg        1 53S     -0.321000
     22 C8          1.2460   -2.4330    0.1060 c3        1 53S     -0.182400
     23 N4          1.4540   -0.6320    1.7660 nb        1 53S     -0.638000
     24 C3          1.1310    0.6520    2.1540 ca        1 53S      0.723900
     25 N7          1.7180    1.1000    3.4510 n4        1 53S     -0.813300
     26 N2          0.3480    1.5440    1.4920 nb        1 53S     -0.661000
     27 C1         -0.1730    1.0930    0.3090 ca        1 53S      0.486200
     28 N9         -1.0330    2.0240   -0.4450 n4        1 53S     -0.822300
     29 H2         -5.3170    3.7950   -2.2100 h1        1 53S      0.065033
     30 H2A        -4.6350    4.3220   -0.5830 h1        1 53S      0.065033
     31 H2B        -3.9740    5.0480   -2.1410 h1        1 53S      0.065033
     32 H26        -3.9330    4.4260  -11.0150 hc        1 53S      0.062033
     33 H26A       -2.1360    4.6540  -10.9650 hc        1 53S      0.062033
     34 H26B       -3.2310    5.9520  -10.3300 hc        1 53S      0.062033
     35 H23        -3.7090    2.2800   -9.7840 ha        1 53S      0.151500
     36 H24        -3.5960    1.2070   -7.5490 ha        1 53S      0.130000
     37 H19        -2.0410    0.5060   -5.9970 ha        1 53S      0.166000
     38 H17        -3.5490    4.1360   -4.1660 ha        1 53S      0.169000
     39 H15        -3.0030    0.5650   -1.7750 ha        1 53S      0.130000
     40 H12        -1.0870   -1.1920   -4.5230 hc        1 53S      0.122700
     41 H13        -3.4210   -2.0380   -4.5870 hc        1 53S      0.069367
     42 H13A       -3.5920   -1.8330   -2.7930 hc        1 53S      0.069367
     43 H13B       -2.4030   -3.0370   -3.4630 hc        1 53S      0.069367
     44 H8          1.9440   -2.3560   -0.7690 hc        1 53S      0.108367
     45 H8A         0.3000   -2.9280   -0.2340 hc        1 53S      0.108367
     46 H8B         1.7290   -3.0740    0.8880 hc        1 53S      0.108367
     47 HN7         2.7470    1.0510    3.3890 hn        1 53S      0.496467
     48 HN7A        1.3960    0.4670    4.2010 hn        1 53S      0.496467
     49 HN9        -2.0090    1.9840   -0.0990 hn        1 53S      0.496133
     50 HN9A       -0.7000    2.9940   -0.3650 hn        1 53S      0.496133
     51 H20        -2.2280    4.9460   -5.8350 ha        1 53S      0.130000
     52 H73         1.4310    2.0650    3.6690 hn        1 53S      0.496467
     53 H93        -1.0520    1.7510   -1.4510 hn        1 53S      0.496133
     54 H21        -2.3460    6.0110   -8.0720 ha        1 53S      0.151500
@<TRIPOS>BOND
     1    1    2 ar  
     2    1   21 1   
     3    1   27 ar  
     4    2   22 1   
     5    2   23 ar  
     6    3   15 1   
     7    3   29 1   
     8    3   30 1   
     9    3   31 1   
    10    4    5 ar  
    11    4   10 ar  
    12    4   51 1   
    13    5    6 ar  
    14    5   54 1   
    15    6    7 1   
    16    6    8 ar  
    17    7   32 1   
    18    7   33 1   
    19    7   34 1   
    20    8    9 ar  
    21    8   35 1   
    22    9   10 ar  
    23    9   36 1   
    24   10   11 1   
    25   11   12 ar  
    26   11   13 ar  
    27   12   17 ar  
    28   12   37 1   
    29   13   14 ar  
    30   13   38 1   
    31   14   15 1   
    32   14   16 ar  
    33   16   17 ar  
    34   16   39 1   
    35   17   18 1   
    36   18   19 1   
    37   18   20 1   
    38   18   40 1   
    39   19   41 1   
    40   19   42 1   
    41   19   43 1   
    42   20   21 3   
    43   22   44 1   
    44   22   45 1   
    45   22   46 1   
    46   23   24 ar  
    47   24   25 1   
    48   24   26 ar  
    49   25   47 1   
    50   25   48 1   
    51   25   52 1   
    52   26   27 ar  
    53   27   28 1   
    54   28   49 1   
    55   28   50 1   
    56   28   53 1   
@<TRIPOS>SUBSTRUCTURE
     1 53S         1 TEMP              0 ****  ****    0 ROOT
