@<TRIPOS>MOLECULE
53S
   52    54     1     0     0
SMALL
bcc


@<TRIPOS>ATOM
      1 C6          0.2810    0.1370    0.1520 ca        1 53S     -0.343600
      2 C5          1.6830    0.2750   -0.0140 ca        1 53S      0.539600
      3 C2          2.2840   -1.9320   -6.7670 c3        1 53S      0.113700
      4 C20        -2.4360   -3.8540   -7.8000 ca        1 53S     -0.113500
      5 C21        -3.2780   -4.4650   -8.7240 ca        1 53S     -0.132000
      6 C22        -4.4720   -3.8480   -9.1170 ca        1 53S     -0.072300
      7 C26        -5.3730   -4.5070  -10.0890 c3        1 53S     -0.054800
      8 C23        -4.8080   -2.6060   -8.5660 ca        1 53S     -0.132000
      9 C24        -3.9690   -1.9940   -7.6380 ca        1 53S     -0.113500
     10 C25        -2.7730   -2.6110   -7.2460 cp        1 53S     -0.045000
     11 C18        -1.8910   -1.9670   -6.2730 cp        1 53S      0.000000
     12 C19        -2.4260   -1.3330   -5.1480 ca        1 53S     -0.153000
     13 C17        -0.5020   -1.9860   -6.4690 ca        1 53S     -0.195000
     14 C16         0.3280   -1.3660   -5.5320 ca        1 53S      0.123100
     15 O17         1.7070   -1.3190   -5.6200 os        1 53S     -0.328900
     16 C15        -0.2060   -0.7290   -4.3960 ca        1 53S     -0.142000
     17 C14        -1.5860   -0.7170   -4.2100 ca        1 53S     -0.045300
     18 C12        -2.2070   -0.0400   -3.0200 c3        1 53S      0.069700
     19 C13        -2.6960    1.3510   -3.4100 c3        1 53S     -0.085100
     20 C11        -1.3160    0.0250   -1.8930 c1        1 53S     -0.152100
     21 C10        -0.5820    0.0760   -0.9450 cg        1 53S     -0.084000
     22 C8          2.2290    0.3370   -1.4060 c3        1 53S     -0.160400
     23 N4          2.5370    0.3400    1.0250 nb        1 53S     -0.790000
     24 C3          1.9760    0.2710    2.2980 ca        1 53S      0.917900
     25 N7          2.8370    0.4350    3.3840 nv        1 53S     -0.933500
     26 N2          0.6340    0.0990    2.5780 nb        1 53S     -0.833000
     27 C1         -0.2150    0.0590    1.5030 ca        1 53S      0.746200
     28 N9         -1.5730   -0.0240    1.7360 nv        1 53S     -0.956500
     29 H2          1.9220   -1.4400   -7.7020 h1        1 53S      0.044367
     30 H2A         2.0560   -3.0250   -6.7870 h1        1 53S      0.044367
     31 H2B         3.3820   -1.7600   -6.6290 h1        1 53S      0.044367
     32 H21        -3.0050   -5.4420   -9.1500 ha        1 53S      0.132000
     33 H26        -5.9500   -3.7510  -10.6770 hc        1 53S      0.045033
     34 H26A       -4.7950   -5.1440  -10.8030 hc        1 53S      0.045033
     35 H26B       -6.1040   -5.1610   -9.5490 hc        1 53S      0.045033
     36 H23        -5.7410   -2.1090   -8.8700 ha        1 53S      0.132000
     37 H24        -4.2410   -1.0150   -7.2160 ha        1 53S      0.134500
     38 H19        -3.5150   -1.3250   -4.9930 ha        1 53S      0.136000
     39 H17        -0.0870   -2.4790   -7.3590 ha        1 53S      0.141000
     40 H15         0.4730   -0.2560   -3.6690 ha        1 53S      0.157000
     41 H12        -3.1090   -0.6510   -2.7060 hc        1 53S      0.067700
     42 H13        -3.4180    1.2700   -4.2570 hc        1 53S      0.043367
     43 H13A       -3.2050    1.8350   -2.5430 hc        1 53S      0.043367
     44 H13B       -1.8410    1.9940   -3.7270 hc        1 53S      0.043367
     45 H8          3.3170    0.5890   -1.4270 hc        1 53S      0.063033
     46 H8A         1.6670    1.1090   -1.9880 hc        1 53S      0.063033
     47 H8B         2.0810   -0.6570   -1.8990 hc        1 53S      0.063033
     48 HN7         3.8080    0.3220    3.2130 hn        1 53S      0.430800
     49 HN7A        2.5000    0.1680    4.2780 hn        1 53S      0.430800
     50 HN9        -1.9040   -0.2180    2.6490 hn        1 53S      0.435800
     51 HN9A       -2.1530   -0.2520    0.9660 hn        1 53S      0.435800
     52 H20        -1.5040   -4.3520   -7.4950 ha        1 53S      0.134500
@<TRIPOS>BOND
     1    1    2 ar  
     2    1   21 1   
     3    1   27 ar  
     4    2   22 1   
     5    2   23 ar  
     6    3   15 1   
     7    3   29 1   
     8    3   30 1   
     9    3   31 1   
    10    4    5 ar  
    11    4   10 ar  
    12    4   52 1   
    13    5    6 ar  
    14    5   32 1   
    15    6    7 1   
    16    6    8 ar  
    17    7   33 1   
    18    7   34 1   
    19    7   35 1   
    20    8    9 ar  
    21    8   36 1   
    22    9   10 ar  
    23    9   37 1   
    24   10   11 1   
    25   11   12 ar  
    26   11   13 ar  
    27   12   17 ar  
    28   12   38 1   
    29   13   14 ar  
    30   13   39 1   
    31   14   15 1   
    32   14   16 ar  
    33   16   17 ar  
    34   16   40 1   
    35   17   18 1   
    36   18   19 1   
    37   18   20 1   
    38   18   41 1   
    39   19   42 1   
    40   19   43 1   
    41   19   44 1   
    42   20   21 3   
    43   22   45 1   
    44   22   46 1   
    45   22   47 1   
    46   23   24 ar  
    47   24   25 1   
    48   24   26 ar  
    49   25   48 1   
    50   25   49 1   
    51   26   27 ar  
    52   27   28 1   
    53   28   50 1   
    54   28   51 1   
@<TRIPOS>SUBSTRUCTURE
     1 53S         1 TEMP              0 ****  ****    0 ROOT
