@<TRIPOS>MOLECULE
53S
   52    54     1     0     0
SMALL
bcc


@<TRIPOS>ATOM
      1 C6         -4.0190   -0.3420    0.0520 ca        1 53S     -0.346600
      2 C5         -5.1400   -1.1690    0.3160 ca        1 53S      0.538600
      3 C2          2.0260    4.1900   -0.6210 c3        1 53S      0.113700
      4 C20         4.8260   -0.1420   -1.3440 ca        1 53S     -0.112500
      5 C21         6.0650   -0.7020   -1.6410 ca        1 53S     -0.132000
      6 C22         6.6950   -1.5590   -0.7310 ca        1 53S     -0.071300
      7 C26         8.0070   -2.1640   -1.0550 c3        1 53S     -0.055800
      8 C23         6.0610   -1.8460    0.4830 ca        1 53S     -0.132000
      9 C24         4.8200   -1.2900    0.7820 ca        1 53S     -0.112500
     10 C25         4.1890   -0.4310   -0.1290 cp        1 53S     -0.048000
     11 C18         2.8860    0.1540    0.1860 cp        1 53S      0.003000
     12 C19         1.8920   -0.6240    0.7900 ca        1 53S     -0.149000
     13 C17         2.6310    1.4980   -0.1220 ca        1 53S     -0.194000
     14 C16         1.3810    2.0440    0.1860 ca        1 53S      0.123100
     15 O17         1.0130    3.3510   -0.0800 os        1 53S     -0.331900
     16 C15         0.3810    1.2670    0.7960 ca        1 53S     -0.151000
     17 C14         0.6430   -0.0690    1.0940 ca        1 53S     -0.042300
     18 C12        -0.4070   -0.9210    1.7540 c3        1 53S      0.069700
     19 C13        -0.4410   -0.6430    3.2520 c3        1 53S     -0.086100
     20 C11        -1.7010   -0.7160    1.1580 c1        1 53S     -0.156100
     21 C10        -2.7770   -0.5580    0.6530 cg        1 53S     -0.080000
     22 C8         -4.9640   -2.3280    1.2470 c3        1 53S     -0.157400
     23 N4         -6.3470   -0.9640   -0.2430 nb        1 53S     -0.794000
     24 C3         -6.4590    0.1300   -1.0980 ca        1 53S      0.915900
     25 N7         -7.7310    0.4220   -1.5960 nh        1 53S     -0.931500
     26 N2         -5.4330    0.9820   -1.4560 nb        1 53S     -0.835000
     27 C1         -4.2110    0.7450   -0.8790 ca        1 53S      0.755200
     28 N9         -3.1510    1.5470   -1.2290 nh        1 53S     -0.964500
     29 H2          2.9020    4.2510    0.0690 h1        1 53S      0.045033
     30 H2A         2.3450    3.8220   -1.6270 h1        1 53S      0.045033
     31 H2B         1.5210    5.1850   -0.7070 h1        1 53S      0.045033
     32 H21         6.5530   -0.4700   -2.6000 ha        1 53S      0.132500
     33 H26         8.6020   -2.3490   -0.1280 hc        1 53S      0.045367
     34 H26A        7.8550   -3.1450   -1.5750 hc        1 53S      0.045367
     35 H26B        8.6000   -1.5000   -1.7300 hc        1 53S      0.045367
     36 H23         6.5490   -2.5150    1.2080 ha        1 53S      0.132500
     37 H24         4.3330   -1.5200    1.7420 ha        1 53S      0.134500
     38 H19         2.0940   -1.6810    1.0190 ha        1 53S      0.138000
     39 H17         3.4170    2.1050   -0.5930 ha        1 53S      0.142000
     40 H15        -0.5930    1.7190    1.0340 ha        1 53S      0.150000
     41 H12        -0.1300   -2.0100    1.6050 hc        1 53S      0.069700
     42 H13        -0.6950    0.4260    3.4450 hc        1 53S      0.043367
     43 H13A       -1.2070   -1.2880    3.7440 hc        1 53S      0.043367
     44 H13B        0.5580   -0.8610    3.6990 hc        1 53S      0.043367
     45 H8         -4.4210   -1.9860    2.1630 hc        1 53S      0.060367
     46 H8A        -5.9390   -2.7800    1.5520 hc        1 53S      0.060367
     47 H8B        -4.3480   -3.1110    0.7380 hc        1 53S      0.060367
     48 HN7        -8.4090   -0.3010   -1.5480 hn        1 53S      0.428800
     49 HN7A       -7.7820    1.0320   -2.3780 hn        1 53S      0.428800
     50 HN9        -2.2970    1.4410   -0.7380 hn        1 53S      0.444300
     51 HN9A       -3.2890    2.3490   -1.7920 hn        1 53S      0.444300
     52 H20         4.3370    0.5250   -2.0700 ha        1 53S      0.134500
@<TRIPOS>BOND
     1    1    2 ar  
     2    1   21 1   
     3    1   27 ar  
     4    2   22 1   
     5    2   23 ar  
     6    3   15 1   
     7    3   29 1   
     8    3   30 1   
     9    3   31 1   
    10    4    5 ar  
    11    4   10 ar  
    12    4   52 1   
    13    5    6 ar  
    14    5   32 1   
    15    6    7 1   
    16    6    8 ar  
    17    7   33 1   
    18    7   34 1   
    19    7   35 1   
    20    8    9 ar  
    21    8   36 1   
    22    9   10 ar  
    23    9   37 1   
    24   10   11 1   
    25   11   12 ar  
    26   11   13 ar  
    27   12   17 ar  
    28   12   38 1   
    29   13   14 ar  
    30   13   39 1   
    31   14   15 1   
    32   14   16 ar  
    33   16   17 ar  
    34   16   40 1   
    35   17   18 1   
    36   18   19 1   
    37   18   20 1   
    38   18   41 1   
    39   19   42 1   
    40   19   43 1   
    41   19   44 1   
    42   20   21 3   
    43   22   45 1   
    44   22   46 1   
    45   22   47 1   
    46   23   24 ar  
    47   24   25 1   
    48   24   26 ar  
    49   25   48 1   
    50   25   49 1   
    51   26   27 ar  
    52   27   28 1   
    53   28   50 1   
    54   28   51 1   
@<TRIPOS>SUBSTRUCTURE
     1 53S         1 TEMP              0 ****  ****    0 ROOT
