@<TRIPOS>MOLECULE
53S
   52    44     1     0     0
SMALL
bcc


@<TRIPOS>ATOM
      1 C6          0.1910    4.1260    0.2600 cg        1 53S     -0.208000
      2 C5         -0.4790    5.1760    0.8470 c1        1 53S      0.467700
      3 C2          4.3330   -2.0310   -1.3280 c3        1 53S      0.113700
      4 C20        -1.1830   -4.4990    0.3710 c1        1 53S     -0.066000
      5 C21        -2.1420   -5.3320   -0.1880 c1        1 53S     -0.066000
      6 C22        -2.6990   -5.0190   -1.4130 c1        1 53S     -0.037100
      7 C26        -3.7170   -5.9920   -2.0760 c3        1 53S     -0.089000
      8 C23        -2.2980   -3.8660   -2.0870 c1        1 53S     -0.074500
      9 C24        -1.3380   -3.0310   -1.5270 c1        1 53S     -0.096000
     10 C25        -0.7810   -3.3440   -0.3030 c1        1 53S     -0.023500
     11 C18         0.2780   -2.5590    0.2110 c1        1 53S     -0.023500
     12 C19         0.0020   -1.4560    0.9940 c1        1 53S     -0.084500
     13 C17         1.5930   -2.8560   -0.1370 c1        1 53S     -0.096000
     14 C16         2.6230   -2.0480    0.3010 c1        1 53S      0.105600
     15 O17         3.9570   -2.3760   -0.0150 os        1 53S     -0.312400
     16 C15         2.3470   -0.9350    1.0900 c1        1 53S     -0.093500
     17 C14         1.0390   -0.6400    1.4360 c1        1 53S     -0.015100
     18 C12         0.7470    0.4910    2.4080 c3        1 53S      0.034500
     19 C13        -0.4900    0.1740    3.1800 c3        1 53S     -0.085100
     20 C11         0.5460    1.7860    1.6390 c1        1 53S     -0.151100
     21 C10         0.3880    2.8140    1.0330 cg        1 53S     -0.090000
     22 C8         -1.3370    5.2900    2.1100 c3        1 53S     -0.090000
     23 N4         -0.5590    6.3580    0.2150 n1        1 53S     -0.590800
     24 C3          0.0230    6.5190   -1.0080 c1        1 53S      0.577600
     25 N7         -0.0160    7.8140   -1.6650 n3        1 53S     -0.794400
     26 N2          0.6920    5.4730   -1.5940 n1        1 53S     -0.631800
     27 C1          0.7730    4.2870   -0.9620 c1        1 53S      0.281800
     28 N9          1.3620    3.1720   -1.6180 n3        1 53S     -0.819400
     29 H2          3.8230   -2.5750   -1.9700 h1        1 53S      0.044367
     30 H2A         4.1440   -1.0770   -1.4830 h1        1 53S      0.044367
     31 H2B         5.2950   -2.1990   -1.4470 h1        1 53S      0.044367
     32 H20        -0.7930   -4.7190    1.2300 ha        1 53S      0.075000
     33 H21        -2.4210   -6.1350    0.2810 ha        1 53S      0.075000
     34 H26        -4.6340   -5.7240   -1.8320 hc        1 53S      0.045367
     35 H26A       -3.6160   -5.9560   -3.0440 hc        1 53S      0.045367
     36 H26B       -3.5460   -6.9220   -1.7580 hc        1 53S      0.045367
     37 H23        -2.6950   -3.6430   -2.9590 ha        1 53S      0.076500
     38 H24        -1.0520   -2.2100   -2.0070 ha        1 53S      0.082000
     39 H19        -0.9140   -1.2500    1.2360 ha        1 53S      0.086500
     40 H17         1.7890   -3.6570   -0.6440 ha        1 53S      0.082000
     41 H15         3.0760   -0.3630    1.4000 ha        1 53S      0.092500
     42 H12         1.5030    0.5930    3.0280 hc        1 53S      0.069700
     43 H13        -0.6120    0.8390    3.8920 hc        1 53S      0.044033
     44 H13A       -1.2710    0.1940    2.5740 hc        1 53S      0.044033
     45 H13B       -0.4080   -0.7050    3.5710 hc        1 53S      0.044033
     46 H8         -0.7520    5.3520    2.8990 hc        1 53S      0.061033
     47 H8A        -1.8970    6.0940    2.0530 hc        1 53S      0.061033
     48 H8B        -1.9130    4.4920    2.1890 hc        1 53S      0.061033
     49 HN7        -0.6190    8.4600   -1.3820 hn        1 53S      0.429300
     50 HN7A        0.5430    7.9880   -2.3620 hn        1 53S      0.429300
     51 HN9         1.4060    2.3580   -1.1900 hn        1 53S      0.438300
     52 HN9A        1.7120    3.2670   -2.4500 hn        1 53S      0.438300
@<TRIPOS>BOND
     1    1   21 1   
     2    1   27 3   
     3    2   22 1   
     4    2   23 3   
     5    3   15 1   
     6    3   29 1   
     7    3   30 1   
     8    3   31 1   
     9    4    5 3   
    10    4   32 1   
    11    5   33 1   
    12    6    7 1   
    13    6    8 3   
    14    7   34 1   
    15    7   35 1   
    16    7   36 1   
    17    8   37 1   
    18    9   10 3   
    19    9   38 1   
    20   11   13 3   
    21   12   17 3   
    22   12   39 1   
    23   13   40 1   
    24   14   15 1   
    25   14   16 3   
    26   16   41 1   
    27   17   18 1   
    28   18   19 1   
    29   18   20 1   
    30   18   42 1   
    31   19   43 1   
    32   19   44 1   
    33   19   45 1   
    34   20   21 3   
    35   22   46 1   
    36   22   47 1   
    37   22   48 1   
    38   24   25 1   
    39   24   26 3   
    40   25   49 1   
    41   25   50 1   
    42   27   28 1   
    43   28   51 1   
    44   28   52 1   
@<TRIPOS>SUBSTRUCTURE
     1 53S         1 TEMP              0 ****  ****    0 ROOT
