@<TRIPOS>MOLECULE
53T
   55    57     1     0     0
SMALL
bcc


@<TRIPOS>ATOM
      1 N2          5.5860    1.7120    0.8500 nb        1 53T     -0.834000
      2 C8          4.8790   -2.5170    1.1580 c3        1 53T     -0.157400
      3 C10         2.9220   -0.7490    0.0080 cg        1 53T     -0.081000
      4 C11         1.8740   -1.1680   -0.3980 c1        1 53T     -0.155100
      5 C12         0.6130   -1.6760   -0.8680 c3        1 53T      0.069700
      6 C13         0.7570   -2.3210   -2.2410 c3        1 53T     -0.086100
      7 C1          4.4110    1.1860    0.3790 ca        1 53T      0.750200
      8 C2         -1.7300    3.8370   -2.2030 c3        1 53T      0.113700
      9 C3          6.5010    0.8150    1.3650 ca        1 53T      0.916900
     10 C5          5.1350   -1.0460    1.0500 ca        1 53T      0.538600
     11 C6          4.1330   -0.2280    0.4700 ca        1 53T     -0.344600
     12 C21        -5.9680    0.5900    1.3800 ca        1 53T     -0.073800
     13 C20        -4.6940    0.8440    0.8650 ca        1 53T     -0.122500
     14 C22        -6.5840   -0.6390    1.1220 ca        1 53T     -0.127000
     15 C23        -5.9350   -1.6120    0.3570 ca        1 53T     -0.073800
     16 C27        -6.5870   -2.9170    0.0990 c3        1 53T     -0.054300
     17 C24        -4.6590   -1.3510   -0.1530 ca        1 53T     -0.122500
     18 C25        -4.0330   -0.1230    0.0970 cp        1 53T     -0.036000
     19 C18        -2.6980    0.1450   -0.4400 cp        1 53T      0.002000
     20 C19        -1.7100   -0.8450   -0.4000 ca        1 53T     -0.148000
     21 C17        -2.4070    1.4000   -0.9940 ca        1 53T     -0.193000
     22 C16        -1.1280    1.6410   -1.5040 ca        1 53T      0.122100
     23 O17        -0.7240    2.8410   -2.0630 os        1 53T     -0.331900
     24 C15        -0.1340    0.6480   -1.4700 ca        1 53T     -0.151000
     25 C14        -0.4320   -0.5950   -0.9120 ca        1 53T     -0.043300
     26 N4          6.3050   -0.5570    1.5020 nb        1 53T     -0.793000
     27 N7          7.7480    1.3210    1.7380 nh        1 53T     -0.933500
     28 N9          3.5010    2.0300   -0.2180 nh        1 53T     -0.957500
     29 H8          4.9790   -2.9750    0.1430 hc        1 53T      0.060700
     30 H8A         5.5950   -3.0220    1.8510 hc        1 53T      0.060700
     31 H8B         3.8370   -2.6860    1.5260 hc        1 53T      0.060700
     32 H12         0.2720   -2.4750   -0.1390 hc        1 53T      0.069700
     33 H13         1.5210   -3.1340   -2.2040 hc        1 53T      0.043700
     34 H13A       -0.2210   -2.7570   -2.5580 hc        1 53T      0.043700
     35 H13B        1.0740   -1.5640   -2.9970 hc        1 53T      0.043700
     36 H2         -2.1050    4.1600   -1.2020 h1        1 53T      0.045033
     37 H2A        -1.1940    4.6780   -2.7130 h1        1 53T      0.045033
     38 H2B        -2.5720    3.4650   -2.8350 h1        1 53T      0.045033
     39 H26        -7.3020    2.2580    1.5160 hc        1 53T      0.044533
     40 H26A       -7.3320    1.1480    2.9480 hc        1 53T      0.044533
     41 H26B       -5.9370    2.2830    2.7090 hc        1 53T      0.044533
     42 H20        -4.2020    1.8060    1.0720 ha        1 53T      0.135000
     43 H22        -7.5880   -0.8410    1.5260 ha        1 53T      0.132000
     44 H27        -6.2510   -3.3470   -0.8760 hc        1 53T      0.044533
     45 H27A       -6.3230   -3.6420    0.9100 hc        1 53T      0.044533
     46 H27B       -7.6990   -2.8110    0.0740 hc        1 53T      0.044533
     47 H24        -4.1460   -2.1110   -0.7610 ha        1 53T      0.135000
     48 H19        -1.9410   -1.8240    0.0470 ha        1 53T      0.139000
     49 H17        -3.1880    2.1720   -1.0270 ha        1 53T      0.142000
     50 H15         0.8640    0.8580   -1.8810 ha        1 53T      0.151000
     51 HN7         7.8210    2.3030    1.8630 hn        1 53T      0.429800
     52 HN7A        8.3110    0.7490    2.3210 hn        1 53T      0.429800
     53 HN9         3.6310    3.0110   -0.1740 hn        1 53T      0.440300
     54 HN9A        2.5910    1.6790   -0.3980 hn        1 53T      0.440300
     55 C26        -6.6680    1.6210    2.1830 c3        1 53T     -0.054300
@<TRIPOS>BOND
     1    1    7 ar  
     2    1    9 ar  
     3    2   10 1   
     4    2   29 1   
     5    2   30 1   
     6    2   31 1   
     7    3    4 3   
     8    3   11 1   
     9    4    5 1   
    10    5    6 1   
    11    5   25 1   
    12    5   32 1   
    13    6   33 1   
    14    6   34 1   
    15    6   35 1   
    16    7   11 ar  
    17    7   28 1   
    18    8   23 1   
    19    8   36 1   
    20    8   37 1   
    21    8   38 1   
    22    9   26 ar  
    23    9   27 1   
    24   10   11 ar  
    25   10   26 ar  
    26   12   13 ar  
    27   12   14 ar  
    28   12   55 1   
    29   13   18 ar  
    30   13   42 1   
    31   14   15 ar  
    32   14   43 1   
    33   15   16 1   
    34   15   17 ar  
    35   16   44 1   
    36   16   45 1   
    37   16   46 1   
    38   17   18 ar  
    39   17   47 1   
    40   18   19 1   
    41   19   20 ar  
    42   19   21 ar  
    43   20   25 ar  
    44   20   48 1   
    45   21   22 ar  
    46   21   49 1   
    47   22   23 1   
    48   22   24 ar  
    49   24   25 ar  
    50   24   50 1   
    51   27   51 1   
    52   27   52 1   
    53   28   53 1   
    54   28   54 1   
    55   39   55 1   
    56   40   55 1   
    57   41   55 1   
@<TRIPOS>SUBSTRUCTURE
     1 53T         1 TEMP              0 ****  ****    0 ROOT
