@<TRIPOS>MOLECULE
53T
   55    57     1     0     0
SMALL
bcc


@<TRIPOS>ATOM
      1 N2          0.5590    1.3230   -0.5400 nb        1 53T     -0.832000
      2 C8          1.3760   -0.0760    3.4420 c3        1 53T     -0.157400
      3 C10         3.4610    0.1430    1.4760 cg        1 53T     -0.086000
      4 C11         4.5870   -0.1640    1.7540 c1        1 53T     -0.150100
      5 C12         5.9430   -0.5070    2.0910 c3        1 53T      0.068700
      6 C13         6.0030   -1.2860    3.4000 c3        1 53T     -0.085100
      7 C1          1.8430    1.0010   -0.1840 ca        1 53T      0.746200
      8 C2         10.2390   -1.7480   -2.1040 c3        1 53T      0.113700
      9 C3         -0.4100    1.1540    0.4300 ca        1 53T      0.914900
     10 C5          1.0810    0.3990    2.0540 ca        1 53T      0.537600
     11 C6          2.1550    0.5020    1.1330 ca        1 53T     -0.341600
     12 C21         6.2540   -6.7600   -1.7130 ca        1 53T     -0.074300
     13 C20         6.8320   -5.5730   -1.2530 ca        1 53T     -0.122500
     14 C22         4.8700   -6.8260   -1.9000 ca        1 53T     -0.127000
     15 C23         4.0630   -5.7170   -1.6270 ca        1 53T     -0.074300
     16 C27         2.5950   -5.7970   -1.8120 c3        1 53T     -0.054300
     17 C24         4.6490   -4.5350   -1.1640 ca        1 53T     -0.122500
     18 C25         6.0350   -4.4550   -0.9770 cp        1 53T     -0.036000
     19 C18         6.6430   -3.2140   -0.4950 cp        1 53T     -0.001000
     20 C19         6.0260   -2.4750    0.5200 ca        1 53T     -0.142000
     21 C17         7.8470   -2.7620   -1.0530 ca        1 53T     -0.194000
     22 C16         8.4130   -1.5730   -0.5850 ca        1 53T      0.122100
     23 O17         9.5920   -1.0290   -1.0610 os        1 53T     -0.328900
     24 C15         7.7970   -0.8270    0.4370 ca        1 53T     -0.151000
     25 C14         6.6020   -1.2880    0.9870 ca        1 53T     -0.050300
     26 N4         -0.1860    0.7220    1.7350 nb        1 53T     -0.791000
     27 N7         -1.7350    1.3820    0.0510 nv        1 53T     -0.931500
     28 N9          2.8530    1.2080   -1.1000 nv        1 53T     -0.956500
     29 H8          1.9150    0.7340    3.9940 hc        1 53T      0.061033
     30 H8A         0.4490   -0.3390    4.0070 hc        1 53T      0.061033
     31 H8B         2.0380   -0.9760    3.3920 hc        1 53T      0.061033
     32 H12         6.5150    0.4610    2.2370 hc        1 53T      0.069700
     33 H13         5.5280   -0.6950    4.2190 hc        1 53T      0.043700
     34 H13A        5.4690   -2.2600    3.3010 hc        1 53T      0.043700
     35 H13B        7.0680   -1.4870    3.6690 hc        1 53T      0.043700
     36 H2          9.5810   -1.8180   -3.0040 h1        1 53T      0.044700
     37 H2A        11.1450   -1.1280   -2.3240 h1        1 53T      0.044700
     38 H2B        10.5350   -2.7680   -1.7560 h1        1 53T      0.044700
     39 H26         7.1570   -8.5900   -1.0710 hc        1 53T      0.044867
     40 H26A        6.6740   -8.5580   -2.8170 hc        1 53T      0.044867
     41 H26B        8.1390   -7.6430   -2.2630 hc        1 53T      0.044867
     42 H20         7.9210   -5.5190   -1.1000 ha        1 53T      0.135500
     43 H22         4.4120   -7.7570   -2.2660 ha        1 53T      0.132000
     44 H27         2.1100   -6.1430   -0.8650 hc        1 53T      0.044867
     45 H27A        2.1700   -4.7980   -2.0780 hc        1 53T      0.044867
     46 H27B        2.3330   -6.5210   -2.6230 hc        1 53T      0.044867
     47 H24         4.0180   -3.6580   -0.9530 ha        1 53T      0.135500
     48 H19         5.0820   -2.8290    0.9620 ha        1 53T      0.145000
     49 H17         8.3240   -3.3420   -1.8550 ha        1 53T      0.142000
     50 H15         8.2680    0.1040    0.7830 ha        1 53T      0.150000
     51 HN7        -1.8840    1.9120   -0.7750 hn        1 53T      0.429300
     52 HN7A       -2.3970    1.4990    0.7830 hn        1 53T      0.429300
     53 HN9         2.6290    1.4140   -2.0430 hn        1 53T      0.438800
     54 HN9A        3.7400    0.8140   -0.9000 hn        1 53T      0.438800
     55 C26         7.1000   -7.9460   -1.9840 c3        1 53T     -0.054300
@<TRIPOS>BOND
     1    1    7 ar  
     2    1    9 ar  
     3    2   10 1   
     4    2   29 1   
     5    2   30 1   
     6    2   31 1   
     7    3    4 3   
     8    3   11 1   
     9    4    5 1   
    10    5    6 1   
    11    5   25 1   
    12    5   32 1   
    13    6   33 1   
    14    6   34 1   
    15    6   35 1   
    16    7   11 ar  
    17    7   28 1   
    18    8   23 1   
    19    8   36 1   
    20    8   37 1   
    21    8   38 1   
    22    9   26 ar  
    23    9   27 1   
    24   10   11 ar  
    25   10   26 ar  
    26   12   13 ar  
    27   12   14 ar  
    28   12   55 1   
    29   13   18 ar  
    30   13   42 1   
    31   14   15 ar  
    32   14   43 1   
    33   15   16 1   
    34   15   17 ar  
    35   16   44 1   
    36   16   45 1   
    37   16   46 1   
    38   17   18 ar  
    39   17   47 1   
    40   18   19 1   
    41   19   20 ar  
    42   19   21 ar  
    43   20   25 ar  
    44   20   48 1   
    45   21   22 ar  
    46   21   49 1   
    47   22   23 1   
    48   22   24 ar  
    49   24   25 ar  
    50   24   50 1   
    51   27   51 1   
    52   27   52 1   
    53   28   53 1   
    54   28   54 1   
    55   39   55 1   
    56   40   55 1   
    57   41   55 1   
@<TRIPOS>SUBSTRUCTURE
     1 53T         1 TEMP              0 ****  ****    0 ROOT
