@<TRIPOS>MOLECULE
53T
   55    57     1     0     0
SMALL
bcc


@<TRIPOS>ATOM
      1 N2          0.5320    1.0070   -0.6780 nb        1 53T     -0.832000
      2 C8          1.3850    0.7290    3.5260 c3        1 53T     -0.157400
      3 C10         3.4100    0.2210    1.5520 cg        1 53T     -0.086000
      4 C11         4.5200   -0.0820    1.8920 c1        1 53T     -0.150100
      5 C12         5.8590   -0.4220    2.2950 c3        1 53T      0.068700
      6 C13         5.9100   -0.7960    3.7710 c3        1 53T     -0.085100
      7 C1          1.8010    0.6990   -0.2620 ca        1 53T      0.746200
      8 C2          9.9060   -3.1500   -1.4170 c3        1 53T      0.113700
      9 C3         -0.4130    1.1950    0.3130 ca        1 53T      0.914900
     10 C5          1.0760    0.8140    2.0640 ca        1 53T      0.537600
     11 C6          2.1220    0.5690    1.1390 ca        1 53T     -0.341600
     12 C21         5.5760   -7.5030    0.4400 ca        1 53T     -0.074300
     13 C20         6.2560   -6.2850    0.5330 ca        1 53T     -0.122500
     14 C22         4.1850   -7.5070    0.2950 ca        1 53T     -0.127000
     15 C23         3.4720   -6.3050    0.2480 ca        1 53T     -0.074300
     16 C27         1.9970   -6.3160    0.1100 c3        1 53T     -0.054300
     17 C24         4.1600   -5.0910    0.3450 ca        1 53T     -0.122500
     18 C25         5.5530   -5.0740    0.4860 cp        1 53T     -0.036000
     19 C18         6.2670   -3.8000    0.5850 cp        1 53T     -0.001000
     20 C19         5.7420   -2.7560    1.3530 ca        1 53T     -0.142000
     21 C17         7.4820   -3.6250   -0.0930 ca        1 53T     -0.194000
     22 C16         8.1510   -2.4020    0.0080 ca        1 53T      0.122100
     23 O17         9.3500   -2.1130   -0.6180 os        1 53T     -0.328900
     24 C15         7.6270   -1.3480    0.7800 ca        1 53T     -0.151000
     25 C14         6.4210   -1.5350    1.4530 ca        1 53T     -0.050300
     26 N4         -0.1750    1.1330    1.6830 nb        1 53T     -0.791000
     27 N7         -1.7310    1.4100   -0.0980 nh        1 53T     -0.931500
     28 N9          2.7910    0.5600   -1.2120 nh        1 53T     -0.956500
     29 H8          1.9980    1.6170    3.8190 hc        1 53T      0.061033
     30 H8A         0.4610    0.7090    4.1550 hc        1 53T      0.061033
     31 H8B         1.9790   -0.1970    3.7250 hc        1 53T      0.061033
     32 H12         6.5050    0.4990    2.1480 hc        1 53T      0.069700
     33 H13         5.5080    0.0390    4.3920 hc        1 53T      0.043700
     34 H13A        5.3030   -1.7130    3.9640 hc        1 53T      0.043700
     35 H13B        6.9660   -0.9960    4.0720 hc        1 53T      0.043700
     36 H2          9.2140   -3.4200   -2.2520 h1        1 53T      0.044700
     37 H2A        10.8470   -2.6930   -1.8170 h1        1 53T      0.044700
     38 H2B        10.1370   -4.0480   -0.7950 h1        1 53T      0.044700
     39 H26         6.3580   -9.1430    1.5690 hc        1 53T      0.044867
     40 H26A        5.8250   -9.5670   -0.1100 hc        1 53T      0.044867
     41 H26B        7.3710   -8.6550    0.1470 hc        1 53T      0.044867
     42 H20         7.3490   -6.2770    0.6520 ha        1 53T      0.135500
     43 H22         3.6470   -8.4640    0.2160 ha        1 53T      0.132000
     44 H27         1.5200   -6.3330    1.1230 hc        1 53T      0.044867
     45 H27A        1.6380   -5.4050   -0.4290 hc        1 53T      0.044867
     46 H27B        1.6540   -7.2180   -0.4530 hc        1 53T      0.044867
     47 H24         3.6030   -4.1430    0.3040 ha        1 53T      0.135500
     48 H19         4.7900   -2.8920    1.8880 ha        1 53T      0.145000
     49 H17         7.8870   -4.4460   -0.7010 ha        1 53T      0.142000
     50 H15         8.1770   -0.3990    0.8390 ha        1 53T      0.150000
     51 HN7        -1.8700    1.6960   -1.0380 hn        1 53T      0.429300
     52 HN7A       -2.3560    1.7800    0.5790 hn        1 53T      0.429300
     53 HN9         2.5500    0.5080   -2.1710 hn        1 53T      0.438800
     54 HN9A        3.6540    0.1700   -0.9200 hn        1 53T      0.438800
     55 C26         6.3210   -8.7810    0.5100 c3        1 53T     -0.054300
@<TRIPOS>BOND
     1    1    7 ar  
     2    1    9 ar  
     3    2   10 1   
     4    2   29 1   
     5    2   30 1   
     6    2   31 1   
     7    3    4 3   
     8    3   11 1   
     9    4    5 1   
    10    5    6 1   
    11    5   25 1   
    12    5   32 1   
    13    6   33 1   
    14    6   34 1   
    15    6   35 1   
    16    7   11 ar  
    17    7   28 1   
    18    8   23 1   
    19    8   36 1   
    20    8   37 1   
    21    8   38 1   
    22    9   26 ar  
    23    9   27 1   
    24   10   11 ar  
    25   10   26 ar  
    26   12   13 ar  
    27   12   14 ar  
    28   12   55 1   
    29   13   18 ar  
    30   13   42 1   
    31   14   15 ar  
    32   14   43 1   
    33   15   16 1   
    34   15   17 ar  
    35   16   44 1   
    36   16   45 1   
    37   16   46 1   
    38   17   18 ar  
    39   17   47 1   
    40   18   19 1   
    41   19   20 ar  
    42   19   21 ar  
    43   20   25 ar  
    44   20   48 1   
    45   21   22 ar  
    46   21   49 1   
    47   22   23 1   
    48   22   24 ar  
    49   24   25 ar  
    50   24   50 1   
    51   27   51 1   
    52   27   52 1   
    53   28   53 1   
    54   28   54 1   
    55   39   55 1   
    56   40   55 1   
    57   41   55 1   
@<TRIPOS>SUBSTRUCTURE
     1 53T         1 TEMP              0 ****  ****    0 ROOT
