@<TRIPOS>MOLECULE
53T
   57    59     1     0     0
SMALL
bcc


@<TRIPOS>ATOM
      1 N2          1.9050   -0.0590   -1.8560 nb        1 53T     -0.661000
      2 C8          0.7480    2.7340    1.2120 c3        1 53T     -0.182400
      3 C10         2.8730    0.7680    1.6220 cg        1 53T     -0.321000
      4 C11         3.5260    0.6640    2.6310 c1        1 53T      0.151900
      5 C12         4.4530    0.3430    3.6960 c3        1 53T      0.020700
      6 C13         3.7500    0.1770    5.0310 c3        1 53T     -0.097100
      7 C1          2.5330   -0.0740   -0.6380 ca        1 53T      0.486200
      8 C2          7.3440   -2.8630   -0.5440 c3        1 53T      0.118700
      9 C3          0.9310    0.8790   -1.9900 ca        1 53T      0.723900
     10 C5          1.1370    1.7710    0.1430 ca        1 53T      0.536600
     11 C6          2.1960    0.8230    0.4140 ca        1 53T     -0.023600
     12 C21         6.5450   -6.6290    4.8270 ca        1 53T     -0.057800
     13 C20         6.2340   -5.5600    3.9820 ca        1 53T     -0.115500
     14 C22         7.0480   -6.3710    6.1070 ca        1 53T     -0.101000
     15 C23         7.2410   -5.0580    6.5480 ca        1 53T     -0.057800
     16 C27         7.7940   -4.8040    7.8990 c3        1 53T     -0.064300
     17 C24         6.9200   -3.9930    5.7000 ca        1 53T     -0.115500
     18 C25         6.4180   -4.2390    4.4150 cp        1 53T     -0.090000
     19 C18         6.0970   -3.1220    3.5310 cp        1 53T      0.064000
     20 C19         5.4720   -1.9700    4.0530 ca        1 53T     -0.120000
     21 C17         6.3860   -3.1970    2.1620 ca        1 53T     -0.163000
     22 C16         6.1040   -2.0980    1.3440 ca        1 53T      0.105100
     23 O17         6.2330   -2.1110   -0.0380 os        1 53T     -0.424900
     24 C15         5.5750   -0.9180    1.8760 ca        1 53T     -0.267000
     25 C14         5.2010   -0.8830    3.2300 ca        1 53T     -0.061300
     26 N4          0.5130    1.7960   -1.0470 nb        1 53T     -0.638000
     27 N7          0.2220    0.9340   -3.3020 n4        1 53T     -0.813300
     28 N9          3.5980   -1.0750   -0.4430 n4        1 53T     -0.822300
     29 H8          1.5460    3.5180    1.3030 hc        1 53T      0.108033
     30 H8A        -0.2260    3.2450    0.9960 hc        1 53T      0.108033
     31 H8B         0.6650    2.1930    2.1900 hc        1 53T      0.108033
     32 H12         5.1940    1.2000    3.7900 hc        1 53T      0.128700
     33 H13         3.1340    1.0810    5.2580 hc        1 53T      0.069367
     34 H13A        3.0880   -0.7220    5.0300 hc        1 53T      0.069367
     35 H13B        4.5130    0.0600    5.8410 hc        1 53T      0.069367
     36 H2          7.1060   -3.9530   -0.4960 h1        1 53T      0.065367
     37 H2A         7.4380   -2.5190   -1.6050 h1        1 53T      0.065367
     38 H2B         8.2720   -2.6330    0.0330 h1        1 53T      0.065367
     39 H26         7.3440   -8.5400    4.2840 hc        1 53T      0.056533
     40 H26A        5.7400   -8.5950    5.1240 hc        1 53T      0.056533
     41 H26B        5.8370   -8.0750    3.3890 hc        1 53T      0.056533
     42 H20         5.8340   -5.7600    2.9770 ha        1 53T      0.130000
     43 H22         7.2960   -7.2130    6.7740 ha        1 53T      0.154000
     44 H27         8.8970   -4.9990    7.9010 hc        1 53T      0.056533
     45 H27A        7.6240   -3.7460    8.2170 hc        1 53T      0.056533
     46 H27B        7.3200   -5.4810    8.6530 hc        1 53T      0.056533
     47 H24         7.0810   -2.9590    6.0410 ha        1 53T      0.130000
     48 H19         5.2020   -1.9500    5.1220 ha        1 53T      0.169000
     49 H17         6.8510   -4.1040    1.7450 ha        1 53T      0.170000
     50 H15         5.5350   -0.0070    1.2610 ha        1 53T      0.129000
     51 HN7         0.5950    0.2250   -3.9500 hn        1 53T      0.496133
     52 HN7A       -0.7840    0.7640   -3.1470 hn        1 53T      0.496133
     53 HN9         4.5030   -0.7220   -0.8010 hn        1 53T      0.496133
     54 HN9A        3.7230   -1.2630    0.5740 hn        1 53T      0.496133
     55 H73         0.3460    1.8740   -3.7110 hn        1 53T      0.496133
     56 H93         3.3800   -1.9570   -0.9250 hn        1 53T      0.496133
     57 C26         6.3530   -8.0280    4.3790 c3        1 53T     -0.064300
@<TRIPOS>BOND
     1    1    7 ar  
     2    1    9 ar  
     3    2   10 1   
     4    2   29 1   
     5    2   30 1   
     6    2   31 1   
     7    3    4 3   
     8    3   11 1   
     9    4    5 1   
    10    5    6 1   
    11    5   25 1   
    12    5   32 1   
    13    6   33 1   
    14    6   34 1   
    15    6   35 1   
    16    7   11 ar  
    17    7   28 1   
    18    8   23 1   
    19    8   36 1   
    20    8   37 1   
    21    8   38 1   
    22    9   26 ar  
    23    9   27 1   
    24   10   11 ar  
    25   10   26 ar  
    26   12   13 ar  
    27   12   14 ar  
    28   12   57 1   
    29   13   18 ar  
    30   13   42 1   
    31   14   15 ar  
    32   14   43 1   
    33   15   16 1   
    34   15   17 ar  
    35   16   44 1   
    36   16   45 1   
    37   16   46 1   
    38   17   18 ar  
    39   17   47 1   
    40   18   19 1   
    41   19   20 ar  
    42   19   21 ar  
    43   20   25 ar  
    44   20   48 1   
    45   21   22 ar  
    46   21   49 1   
    47   22   23 1   
    48   22   24 ar  
    49   24   25 ar  
    50   24   50 1   
    51   27   51 1   
    52   27   52 1   
    53   27   55 1   
    54   28   53 1   
    55   28   54 1   
    56   28   56 1   
    57   39   57 1   
    58   40   57 1   
    59   41   57 1   
@<TRIPOS>SUBSTRUCTURE
     1 53T         1 TEMP              0 ****  ****    0 ROOT
