@<TRIPOS>MOLECULE
53T
   55    47     1     0     0
SMALL
bcc


@<TRIPOS>ATOM
      1 N2         -0.4830    5.3780    4.2270 n1        1 53T     -0.304000
      2 C8          3.0640    4.2390    2.2250 c3        1 53T     -0.182000
      3 C10         0.2320    2.9930    1.6030 c1        1 53T     -0.134000
      4 C11        -0.0710    2.1700    0.7800 c1        1 53T     -0.134000
      5 C12        -0.4530    1.1300   -0.2590 c2        1 53T      0.048000
      6 C13        -0.2100    1.6850   -1.6390 c3        1 53T     -0.203000
      7 C1         -0.5250    4.4070    3.3000 c1        1 53T      0.224000
      8 C2          4.3420   -1.2050   -1.5000 c3        1 53T     -0.077000
      9 C3          0.6990    5.9950    4.5160 c1        1 53T      0.198000
     10 C5          1.7990    4.6570    2.9360 c2        1 53T      0.113000
     11 C6          0.6160    4.0380    2.6460 c1        1 53T     -0.206000
     12 C26        -1.2530   -5.3480   -4.5920 c3        1 53T     -0.179000
     13 C21        -1.5240   -4.7560   -3.2270 c2        1 53T     -0.067000
     14 C20        -0.6010   -3.8960   -2.6490 c2        1 53T     -0.121000
     15 C22        -2.7330   -5.0020   -2.5930 c1        1 53T     -0.127000
     16 C23        -3.0190   -4.3890   -1.3810 c1        1 53T     -0.068000
     17 C27        -4.3620   -4.6140   -0.7180 c3        1 53T     -0.179000
     18 C24        -2.0970   -3.5300   -0.8040 c1        1 53T     -0.122000
     19 C25        -0.8880   -3.2820   -1.4370 c1        1 53T     -0.034000
     20 C18        -0.0100   -2.3300   -0.9140 c1        1 53T     -0.004000
     21 C19        -0.4950   -1.1020   -0.4850 c1        1 53T     -0.153000
     22 C17         1.3560   -2.5720   -0.9170 c1        1 53T     -0.146000
     23 C16         2.2370   -1.5860   -0.4930 c1        1 53T      0.078000
     24 O17         3.6230   -1.8430   -0.4670 os        1 53T     -0.211000
     25 C15         1.7510   -0.3580   -0.0640 c1        1 53T     -0.189000
     26 C14         0.3870   -0.1160   -0.0600 c1        1 53T     -0.036000
     27 N4          1.8380    5.6280    3.8630 n1        1 53T     -0.264000
     28 N7          0.7330    7.0550    5.4620 n3        1 53T     -0.330000
     29 N9         -1.9420    4.3480    3.3280 n3        1 53T     -0.350000
     30 H8          3.2560    4.8700    1.5000 hc        1 53T      0.099000
     31 H8A         3.8100    4.2350    2.8610 hc        1 53T      0.099000
     32 H8B         2.9480    3.3400    1.8540 hc        1 53T      0.099000
     33 H12        -1.3960    0.9040   -0.1610 ha        1 53T      0.108000
     34 H13        -0.6060    2.5790   -1.7060 hc        1 53T      0.083333
     35 H13A        0.7560    1.7410   -1.8040 hc        1 53T      0.083333
     36 H13B       -0.6210    1.0960   -2.3040 hc        1 53T      0.083333
     37 H2          3.9140   -0.3510   -1.7160 h1        1 53T      0.084000
     38 H2A         5.2630   -1.0440   -1.2060 h1        1 53T      0.084000
     39 H2B         4.3490   -1.7770   -2.2960 h1        1 53T      0.084000
     40 H26        -0.8210   -6.2220   -4.4890 hc        1 53T      0.084000
     41 H26A       -2.0990   -5.4570   -5.0760 hc        1 53T      0.084000
     42 H26B       -0.6630   -4.7500   -5.0970 hc        1 53T      0.084000
     43 H20         0.2490   -3.7220   -3.0950 ha        1 53T      0.137000
     44 H22        -3.3970   -5.5800   -3.0170 ha        1 53T      0.131000
     45 H27        -4.3620   -5.4840   -0.2650 hc        1 53T      0.083333
     46 H27A       -4.5250   -3.9050   -0.0630 hc        1 53T      0.083333
     47 H27B       -5.0700   -4.6000   -1.3980 hc        1 53T      0.083333
     48 H24        -2.2980   -3.0980    0.0500 ha        1 53T      0.134000
     49 H19        -1.4550   -0.9370   -0.4670 ha        1 53T      0.136000
     50 H17         1.6980   -3.4330   -1.2220 ha        1 53T      0.153000
     51 H15         2.3720    0.3360    0.2360 ha        1 53T      0.146000
     52 HN7        -0.0380    7.3240    5.8770 hn        1 53T      0.226500
     53 HN7A        1.5210    7.4840    5.6390 hn        1 53T      0.226500
     54 HN9        -2.4090    4.8600    3.9250 hn        1 53T      0.230500
     55 HN9A       -2.3890    3.7970    2.7510 hn        1 53T      0.230500
@<TRIPOS>BOND
     1    1    9 1   
     2    2   10 1   
     3    2   30 1   
     4    2   31 1   
     5    2   32 1   
     6    3    4 1   
     7    5    6 1   
     8    5   26 1   
     9    5   33 1   
    10    6   34 1   
    11    6   35 1   
    12    6   36 1   
    13    7   11 1   
    14    7   29 1   
    15    8   24 1   
    16    8   37 1   
    17    8   38 1   
    18    8   39 1   
    19    9   28 1   
    20   10   11 1   
    21   10   27 1   
    22   12   13 1   
    23   12   40 1   
    24   12   41 1   
    25   12   42 1   
    26   13   14 1   
    27   13   15 1   
    28   14   19 1   
    29   14   43 1   
    30   15   44 1   
    31   16   17 1   
    32   16   18 1   
    33   17   45 1   
    34   17   46 1   
    35   17   47 1   
    36   18   48 1   
    37   20   22 1   
    38   21   26 1   
    39   21   49 1   
    40   22   50 1   
    41   23   24 1   
    42   23   25 1   
    43   25   51 1   
    44   28   52 1   
    45   28   53 1   
    46   29   54 1   
    47   29   55 1   
@<TRIPOS>SUBSTRUCTURE
     1 53T         1 TEMP              0 ****  ****    0 ROOT
