@<TRIPOS>MOLECULE
53U
   51    49     1     0     0
SMALL
bcc


@<TRIPOS>ATOM
      1 N1          2.4580   -0.5990    0.8080 n3        1 53U     -0.339000
      2 C2          2.0170   -0.5640   -0.5430 c3        1 53U     -0.046000
      3 C3          2.5870    0.6440   -1.2210 c2        1 53U      0.324000
      4 O1          3.4760    0.5120   -2.0560 o         1 53U     -0.373000
      5 C1          2.4880   -1.8370   -1.2740 c3        1 53U     -0.157000
      6 C16         1.2900   -2.5140   -1.9430 c2        1 53U     -0.078000
      7 C17         1.2870   -2.7150   -3.3160 c1        1 53U     -0.122000
      8 C21         0.3040   -3.0850   -1.1630 c2        1 53U     -0.138000
      9 C18         0.2950   -3.4900   -3.9020 c1        1 53U     -0.128000
     10 C20        -0.6850   -3.8580   -1.7510 c1        1 53U     -0.128000
     11 C19        -0.6860   -4.0580   -3.1210 c1        1 53U     -0.128000
     12 N2          2.2320    1.9660   -0.7530 n         1 53U     -0.313000
     13 C7          1.3050    2.2600    0.1350 c3        1 53U      0.019000
     14 C8          0.1260    1.2510    0.1840 c2        1 53U      0.279000
     15 O2         -0.1080    0.5390   -0.7780 o         1 53U     -0.356000
     16 C6          0.8750    3.7840   -0.3200 c3        1 53U     -0.164000
     17 C5          1.9280    4.2420   -1.3090 c3        1 53U     -0.171000
     18 C4          2.9000    3.3610   -1.2230 c3        1 53U     -0.022000
     19 N3         -0.7160    1.1750    1.3670 n         1 53U     -0.371000
     20 C9         -2.1490    1.2740    1.2390 c3        1 53U      0.003000
     21 C10        -2.8220    0.3750    2.2900 c2        1 53U     -0.113000
     22 C11        -3.1120   -0.9510    1.9830 c2        1 53U     -0.109000
     23 C12        -3.8510   -1.7270    2.8750 c1        1 53U     -0.129000
     24 C13        -4.3010   -1.1740    4.0770 c1        1 53U     -0.128000
     25 C14        -4.0130    0.1480    4.3840 c1        1 53U     -0.128000
     26 C15        -3.2730    0.9270    3.4920 c1        1 53U     -0.126000
     27 HN1         2.2040    0.1860    1.2380 hn        1 53U      0.153500
     28 HN1A        2.0860   -1.3110    1.2300 hn        1 53U      0.153500
     29 H2          1.0420   -0.5190   -0.5650 h1        1 53U      0.128000
     30 H1          2.8940   -2.4560   -0.6250 hc        1 53U      0.113000
     31 H1A         3.1430   -1.5990   -1.9460 hc        1 53U      0.113000
     32 H17         1.9770   -2.3160   -3.8650 ha        1 53U      0.140000
     33 H21         0.3040   -2.9450   -0.2030 ha        1 53U      0.129000
     34 H18         0.2930   -3.6320   -4.8690 ha        1 53U      0.132000
     35 H20        -1.3740   -4.2570   -1.2040 ha        1 53U      0.131000
     36 H19        -1.3830   -4.6030   -3.5340 ha        1 53U      0.132000
     37 H7          1.6420    2.2240    1.0530 h1        1 53U      0.127000
     38 H6          0.0020    3.7730   -0.7430 hc        1 53U      0.098000
     39 H6A         0.8640    4.3720    0.4520 hc        1 53U      0.098000
     40 H5          1.5590    4.2510   -2.2180 hc        1 53U      0.094500
     41 H5A         2.2580    5.1390   -1.0660 hc        1 53U      0.094500
     42 H4          3.3240    3.2490   -2.0900 h1        1 53U      0.100500
     43 H4A         3.5630    3.6560   -0.5590 h1        1 53U      0.100500
     44 HN3        -0.3400    1.0430    2.1850 hn        1 53U      0.217000
     45 H9         -2.4220    2.1920    1.3780 h1        1 53U      0.110000
     46 H9A        -2.4180    0.9860    0.3420 h1        1 53U      0.110000
     47 H11        -2.7940   -1.3410    1.1360 ha        1 53U      0.140000
     48 H12        -4.0540   -2.6600    2.6590 ha        1 53U      0.134000
     49 H13        -4.8220   -1.7220    4.7060 ha        1 53U      0.132000
     50 H14        -4.3330    0.5410    5.2380 ha        1 53U      0.132000
     51 H15        -3.0680    1.8640    3.7100 ha        1 53U      0.128000
@<TRIPOS>BOND
     1    1    2 1   
     2    1   27 1   
     3    1   28 1   
     4    2    3 1   
     5    2    5 1   
     6    2   29 1   
     7    3    4 1   
     8    3   12 1   
     9    5    6 1   
    10    5   30 1   
    11    5   31 1   
    12    6    7 1   
    13    6    8 1   
    14    7   32 1   
    15    8   10 1   
    16    8   33 1   
    17    9   11 1   
    18    9   34 1   
    19   10   35 1   
    20   11   36 1   
    21   12   13 1   
    22   12   18 1   
    23   13   14 1   
    24   13   16 1   
    25   13   37 1   
    26   14   15 1   
    27   14   19 1   
    28   16   17 1   
    29   16   38 1   
    30   16   39 1   
    31   17   18 1   
    32   17   40 1   
    33   17   41 1   
    34   18   42 1   
    35   18   43 1   
    36   19   20 1   
    37   19   44 1   
    38   20   21 1   
    39   20   45 1   
    40   20   46 1   
    41   21   22 1   
    42   21   26 1   
    43   22   23 1   
    44   22   47 1   
    45   23   48 1   
    46   24   25 1   
    47   24   49 1   
    48   25   50 1   
    49   26   51 1   
@<TRIPOS>SUBSTRUCTURE
     1 53U         1 TEMP              0 ****  ****    0 ROOT
