@<TRIPOS>MOLECULE
53U
   51    53     1     0     0
SMALL
bcc


@<TRIPOS>ATOM
      1 N1          2.1480    2.1880    0.1200 n3        1 53U     -0.888800
      2 C2          2.1470    0.7510   -0.0260 c3        1 53U      0.122500
      3 C3          0.7370    0.1790   -0.3250 c         1 53U      0.614100
      4 O1         -0.0670    0.8320   -1.0280 o         1 53U     -0.638100
      5 C1          3.0700    0.2690   -1.1650 c3        1 53U     -0.029100
      6 C16         4.5000    0.2970   -0.7600 ca        1 53U     -0.085300
      7 C17         5.1470   -0.8850   -0.3810 ca        1 53U     -0.117500
      8 C21         5.2180    1.4990   -0.7700 ca        1 53U     -0.117500
      9 C18         6.4930   -0.8650   -0.0170 ca        1 53U     -0.130500
     10 C20         6.5630    1.5160   -0.4040 ca        1 53U     -0.130500
     11 C19         7.2030    0.3350   -0.0280 ca        1 53U     -0.127000
     12 N2          0.3570   -1.0240    0.2320 n         1 53U     -0.455800
     13 C7         -0.8860   -1.6920   -0.1370 c3        1 53U      0.030700
     14 C8         -2.0980   -1.2180    0.7030 c         1 53U      0.648100
     15 O2         -2.7800   -2.0270    1.3630 o         1 53U     -0.620100
     16 C6         -0.6510   -3.2080    0.0450 c3        1 53U     -0.088400
     17 C5          0.6750   -3.3550    0.7800 c3        1 53U     -0.090400
     18 C4          1.2820   -1.9450    0.8690 c3        1 53U      0.086000
     19 N3         -2.3780    0.1300    0.6880 n         1 53U     -0.549900
     20 C9         -3.5530    0.6670    1.3210 c3        1 53U      0.130300
     21 C10        -4.7670    0.7490    0.4370 ca        1 53U     -0.122300
     22 C11        -5.4710   -0.4180    0.1210 ca        1 53U     -0.115500
     23 C12        -6.6120   -0.3500   -0.6750 ca        1 53U     -0.134500
     24 C13        -7.0560    0.8820   -1.1590 ca        1 53U     -0.125000
     25 C14        -6.3550    2.0460   -0.8460 ca        1 53U     -0.134500
     26 C15        -5.2100    1.9810   -0.0510 ca        1 53U     -0.115500
     27 HN1         1.8250    2.6310   -0.7200 hn        1 53U      0.362800
     28 HN1A        1.5580    2.4620    0.8810 hn        1 53U      0.362800
     29 H2          2.5230    0.3240    0.9510 h1        1 53U      0.082700
     30 H1          2.7750   -0.7790   -1.4430 hc        1 53U      0.059700
     31 H1A         2.9170    0.9070   -2.0760 hc        1 53U      0.059700
     32 H17         4.5930   -1.8350   -0.3720 ha        1 53U      0.134000
     33 H21         4.7120    2.4330   -1.0570 ha        1 53U      0.134000
     34 H18         6.9940   -1.7980    0.2780 ha        1 53U      0.132000
     35 H20         7.1200    2.4650   -0.4120 ha        1 53U      0.132000
     36 H19         8.2640    0.3500    0.2590 ha        1 53U      0.132000
     37 H7         -1.1330   -1.4560   -1.2150 h1        1 53U      0.084700
     38 H6         -0.6070   -3.6970   -0.9600 hc        1 53U      0.075200
     39 H6A        -1.4880   -3.6750    0.6230 hc        1 53U      0.075200
     40 H5          1.3650   -4.0430    0.2340 hc        1 53U      0.057700
     41 H5A         0.5170   -3.7690    1.8060 hc        1 53U      0.057700
     42 H4          2.2870   -1.9140    0.3620 h1        1 53U      0.050200
     43 H4A         1.4230   -1.6400    1.9430 h1        1 53U      0.050200
     44 HN3        -1.9360    0.7000   -0.0010 hn        1 53U      0.334500
     45 H9         -3.8040    0.0220    2.2140 h1        1 53U      0.066200
     46 H9A        -3.2920    1.7010    1.6920 h1        1 53U      0.066200
     47 H11        -5.1120   -1.3860    0.5080 ha        1 53U      0.141500
     48 H12        -7.1650   -1.2690   -0.9220 ha        1 53U      0.131000
     49 H13        -7.9570    0.9350   -1.7860 ha        1 53U      0.130000
     50 H14        -6.7020    3.0170   -1.2260 ha        1 53U      0.131000
     51 H15        -4.6590    2.9010    0.1930 ha        1 53U      0.141500
@<TRIPOS>BOND
     1    1    2 1   
     2    1   27 1   
     3    1   28 1   
     4    2    3 1   
     5    2    5 1   
     6    2   29 1   
     7    3    4 2   
     8    3   12 1   
     9    5    6 1   
    10    5   30 1   
    11    5   31 1   
    12    6    7 ar  
    13    6    8 ar  
    14    7    9 ar  
    15    7   32 1   
    16    8   10 ar  
    17    8   33 1   
    18    9   11 ar  
    19    9   34 1   
    20   10   11 ar  
    21   10   35 1   
    22   11   36 1   
    23   12   13 1   
    24   12   18 1   
    25   13   14 1   
    26   13   16 1   
    27   13   37 1   
    28   14   15 2   
    29   14   19 1   
    30   16   17 1   
    31   16   38 1   
    32   16   39 1   
    33   17   18 1   
    34   17   40 1   
    35   17   41 1   
    36   18   42 1   
    37   18   43 1   
    38   19   20 1   
    39   19   44 1   
    40   20   21 1   
    41   20   45 1   
    42   20   46 1   
    43   21   22 ar  
    44   21   26 ar  
    45   22   23 ar  
    46   22   47 1   
    47   23   24 ar  
    48   23   48 1   
    49   24   25 ar  
    50   24   49 1   
    51   25   26 ar  
    52   25   50 1   
    53   26   51 1   
@<TRIPOS>SUBSTRUCTURE
     1 53U         1 TEMP              0 ****  ****    0 ROOT
