@<TRIPOS>MOLECULE
53V
   55    57     1     0     0
SMALL
bcc


@<TRIPOS>ATOM
      1 C1          2.3330    1.9080   -0.4110 ca        1 53V      0.744200
      2 C2         10.0330   -2.2090   -4.0190 c3        1 53V      0.113700
      3 C3          0.8950    2.1590    1.4180 ca        1 53V      0.914900
      4 C6          2.1180    0.4820   -0.3680 ca        1 53V     -0.340600
      5 C12         3.9960   -1.9570   -2.9770 c3        1 53V      0.068700
      6 C13         3.1500   -2.1910   -4.2230 c3        1 53V     -0.086100
      7 C14         5.3480   -1.4220   -3.3640 ca        1 53V     -0.044300
      8 C15         6.4540   -2.2690   -3.3400 ca        1 53V     -0.151000
      9 C16         7.7110   -1.7660   -3.7240 ca        1 53V      0.124100
     10 C17         7.8660   -0.4360   -4.1220 ca        1 53V     -0.195000
     11 C18         6.7460    0.4070   -4.1360 cp        1 53V      0.001000
     12 C20         6.9210    2.1530   -5.9070 ca        1 53V     -0.057800
     13 C21         7.0650    3.4950   -6.2790 ca        1 53V     -0.139000
     14 C22         7.1840    4.4870   -5.3110 ca        1 53V     -0.119000
     15 C23         7.1600    4.1500   -3.9600 ca        1 53V     -0.139000
     16 C24         7.0160    2.8160   -3.5660 ca        1 53V     -0.057800
     17 C27         7.0000    2.4700   -2.1240 c3        1 53V     -0.056800
     18 C25         6.8960    1.8110   -4.5430 cp        1 53V     -0.052000
     19 C19         5.4940   -0.0860   -3.7590 ca        1 53V     -0.148000
     20 O17         8.7400   -2.6890   -3.6700 os        1 53V     -0.327900
     21 C11         3.3250   -1.0830   -2.0520 c1        1 53V     -0.151100
     22 C10         2.7630   -0.3690   -1.2680 cg        1 53V     -0.084000
     23 C5          1.2240   -0.0050    0.6190 ca        1 53V      0.537600
     24 C8          0.9520   -1.4760    0.6680 c3        1 53V     -0.157400
     25 N4          0.6030    0.8000    1.5010 nb        1 53V     -0.791000
     26 N7          0.3470    2.9900    2.3970 nh        1 53V     -0.931500
     27 N2          1.7260    2.7480    0.4850 nb        1 53V     -0.831000
     28 N9          3.1240    2.4560   -1.4010 nh        1 53V     -0.954500
     29 H2         10.6880   -3.1070   -3.8870 h1        1 53V      0.044700
     30 H2A        10.3480   -1.3870   -3.3320 h1        1 53V      0.044700
     31 H2B        10.0510   -1.8610   -5.0800 h1        1 53V      0.044700
     32 H12         4.1390   -2.9550   -2.4600 hc        1 53V      0.070700
     33 H13         2.9990   -1.2340   -4.7780 hc        1 53V      0.043700
     34 H13A        2.1530   -2.6020   -3.9380 hc        1 53V      0.043700
     35 H13B        3.6630   -2.9190   -4.8960 hc        1 53V      0.043700
     36 H15         6.3670   -3.3190   -3.0280 ha        1 53V      0.150000
     37 H17         8.8450   -0.0390   -4.4230 ha        1 53V      0.144000
     38 H26         7.4050    0.2160   -6.6980 hc        1 53V      0.047367
     39 H26A        5.7180    0.7850   -7.0310 hc        1 53V      0.047367
     40 H26B        7.1100    1.4970   -7.9510 hc        1 53V      0.047367
     41 H21         7.0840    3.7630   -7.3460 ha        1 53V      0.132500
     42 H22         7.2980    5.5390   -5.6120 ha        1 53V      0.132000
     43 H23         7.2570    4.9360   -3.1960 ha        1 53V      0.132500
     44 H27         6.1060    1.8390   -1.8860 hc        1 53V      0.047367
     45 H27A        7.9150    1.8820   -1.8600 hc        1 53V      0.047367
     46 H27B        6.9720    3.3860   -1.4850 hc        1 53V      0.047367
     47 H19         4.6140    0.5740   -3.7730 ha        1 53V      0.139000
     48 H8          1.9230   -2.0310    0.6350 hc        1 53V      0.061033
     49 H8A         0.3950   -1.7760    1.5880 hc        1 53V      0.061033
     50 H8B         0.3460   -1.7620   -0.2280 hc        1 53V      0.061033
     51 HN7         0.3470    3.9660    2.2140 hn        1 53V      0.429800
     52 HN7A       -0.4200    2.6310    2.9140 hn        1 53V      0.429800
     53 HN9         3.7120    1.8390   -1.9090 hn        1 53V      0.436300
     54 HN9A        3.3870    3.4100   -1.3450 hn        1 53V      0.436300
     55 C26         6.7850    1.1120   -6.9530 c3        1 53V     -0.056800
@<TRIPOS>BOND
     1    1    4 ar  
     2    1   27 ar  
     3    1   28 1   
     4    2   20 1   
     5    2   29 1   
     6    2   30 1   
     7    2   31 1   
     8    3   25 ar  
     9    3   26 1   
    10    3   27 ar  
    11    4   22 1   
    12    4   23 ar  
    13    5    6 1   
    14    5    7 1   
    15    5   21 1   
    16    5   32 1   
    17    6   33 1   
    18    6   34 1   
    19    6   35 1   
    20    7    8 ar  
    21    7   19 ar  
    22    8    9 ar  
    23    8   36 1   
    24    9   10 ar  
    25    9   20 1   
    26   10   11 ar  
    27   10   37 1   
    28   11   18 1   
    29   11   19 ar  
    30   12   13 ar  
    31   12   18 ar  
    32   12   55 1   
    33   13   14 ar  
    34   13   41 1   
    35   14   15 ar  
    36   14   42 1   
    37   15   16 ar  
    38   15   43 1   
    39   16   17 1   
    40   16   18 ar  
    41   17   44 1   
    42   17   45 1   
    43   17   46 1   
    44   19   47 1   
    45   21   22 3   
    46   23   24 1   
    47   23   25 ar  
    48   24   48 1   
    49   24   49 1   
    50   24   50 1   
    51   26   51 1   
    52   26   52 1   
    53   28   53 1   
    54   28   54 1   
    55   38   55 1   
    56   39   55 1   
    57   40   55 1   
@<TRIPOS>SUBSTRUCTURE
     1 53V         1 TEMP              0 ****  ****    0 ROOT
