@<TRIPOS>MOLECULE
53V
   57    59     1     0     0
SMALL
bcc


@<TRIPOS>ATOM
      1 C1         -0.0450    0.2480   -0.1780 ca        1 53V      0.457200
      2 C2          8.2860   -2.5850   -2.0860 c3        1 53V      0.108700
      3 C3          0.4730    0.4110    2.0560 ca        1 53V      0.725900
      4 C6          1.2960   -0.0800   -0.4950 ca        1 53V     -0.002600
      5 C12         2.7850   -0.9180   -4.1460 c3        1 53V      0.015700
      6 C13         2.1680   -0.0860   -5.2580 c3        1 53V     -0.097100
      7 C14         4.2830   -0.8130   -4.0480 ca        1 53V     -0.091300
      8 C15         4.9310   -1.6420   -3.1270 ca        1 53V     -0.189000
      9 C16         6.3310   -1.5990   -3.0280 ca        1 53V      0.140100
     10 C17         7.0820   -0.7510   -3.8550 ca        1 53V     -0.168000
     11 C18         6.4220    0.0710   -4.7740 cp        1 53V      0.041000
     12 C20         7.8130    0.4380   -6.8050 ca        1 53V     -0.054800
     13 C21         8.5450    1.2920   -7.6380 ca        1 53V     -0.129000
     14 C22         8.6630    2.6450   -7.3350 ca        1 53V     -0.100000
     15 C23         8.0510    3.1600   -6.1940 ca        1 53V     -0.129000
     16 C24         7.3140    2.3250   -5.3470 ca        1 53V     -0.054800
     17 C27         6.6910    2.8950   -4.1290 c3        1 53V     -0.057300
     18 C25         7.1930    0.9580   -5.6550 cp        1 53V     -0.087000
     19 C19         5.0200    0.0470   -4.8610 ca        1 53V     -0.137000
     20 O17         6.8670   -2.4190   -2.0600 os        1 53V     -0.336900
     21 C11         2.2000   -0.5940   -2.8670 c1        1 53V      0.188900
     22 C10         1.7180   -0.3410   -1.7870 cg        1 53V     -0.366000
     23 C5          2.2230   -0.1340    0.6280 ca        1 53V      0.541600
     24 C8          3.6560   -0.4480    0.3640 c3        1 53V     -0.186400
     25 N4          1.8110    0.1060    1.8810 nb        1 53V     -0.641000
     26 N7          0.0520    0.6690    3.4640 n4        1 53V     -0.813300
     27 N2         -0.4820    0.4990    1.0980 nb        1 53V     -0.659000
     28 N9         -1.0520    0.3310   -1.2540 n4        1 53V     -0.813300
     29 H2          8.4660   -3.3680   -1.3060 h1        1 53V      0.058700
     30 H2A         8.6240   -2.9400   -3.0890 h1        1 53V      0.058700
     31 H2B         8.7910   -1.6280   -1.8120 h1        1 53V      0.058700
     32 H12         2.5410   -2.0120   -4.3550 hc        1 53V      0.120700
     33 H13         2.6230   -0.3860   -6.2350 hc        1 53V      0.063700
     34 H13A        1.0680   -0.2660   -5.3130 hc        1 53V      0.063700
     35 H13B        2.3510    1.0040   -5.1010 hc        1 53V      0.063700
     36 H15         4.3700   -2.3450   -2.4970 ha        1 53V      0.134000
     37 H17         8.1810   -0.7280   -3.7950 ha        1 53V      0.167000
     38 H26         7.7950   -1.6400   -6.2480 hc        1 53V      0.045700
     39 H26A        6.6960   -1.1980   -7.6210 hc        1 53V      0.045700
     40 H26B        8.4850   -1.2980   -7.8910 hc        1 53V      0.045700
     41 H21         9.0310    0.8870   -8.5400 ha        1 53V      0.145000
     42 H22         9.2430    3.3090   -7.9950 ha        1 53V      0.149000
     43 H23         8.1490    4.2300   -5.9540 ha        1 53V      0.145000
     44 H27         5.6780    2.4520   -3.9560 hc        1 53V      0.045700
     45 H27A        7.3290    2.6740   -3.2350 hc        1 53V      0.045700
     46 H27B        6.5830    4.0040   -4.2140 hc        1 53V      0.045700
     47 H19         4.5280    0.7070   -5.5920 ha        1 53V      0.151000
     48 H8          4.1800    0.4910    0.0380 hc        1 53V      0.112367
     49 H8A         4.1800   -0.8430    1.2720 hc        1 53V      0.112367
     50 H8B         3.7410   -1.2030   -0.4620 hc        1 53V      0.112367
     51 HN7         0.6010    1.4590    3.8390 hn        1 53V      0.497467
     52 HN7A       -0.9530    0.8960    3.5110 hn        1 53V      0.497467
     53 HN9        -0.5840    0.1540   -2.1570 hn        1 53V      0.489800
     54 HN9A       -1.4820    1.2680   -1.2700 hn        1 53V      0.489800
     55 H73         0.2420   -0.1720    4.0300 hn        1 53V      0.497467
     56 H93        -1.7890   -0.3730   -1.1060 hn        1 53V      0.489800
     57 C26         7.6950   -0.9970   -7.1580 c3        1 53V     -0.057300
@<TRIPOS>BOND
     1    1    4 ar  
     2    1   27 ar  
     3    1   28 1   
     4    2   20 1   
     5    2   29 1   
     6    2   30 1   
     7    2   31 1   
     8    3   25 ar  
     9    3   26 1   
    10    3   27 ar  
    11    4   22 1   
    12    4   23 ar  
    13    5    6 1   
    14    5    7 1   
    15    5   21 1   
    16    5   32 1   
    17    6   33 1   
    18    6   34 1   
    19    6   35 1   
    20    7    8 ar  
    21    7   19 ar  
    22    8    9 ar  
    23    8   36 1   
    24    9   10 ar  
    25    9   20 1   
    26   10   11 ar  
    27   10   37 1   
    28   11   18 1   
    29   11   19 ar  
    30   12   13 ar  
    31   12   18 ar  
    32   12   57 1   
    33   13   14 ar  
    34   13   41 1   
    35   14   15 ar  
    36   14   42 1   
    37   15   16 ar  
    38   15   43 1   
    39   16   17 1   
    40   16   18 ar  
    41   17   44 1   
    42   17   45 1   
    43   17   46 1   
    44   19   47 1   
    45   21   22 3   
    46   23   24 1   
    47   23   25 ar  
    48   24   48 1   
    49   24   49 1   
    50   24   50 1   
    51   26   51 1   
    52   26   52 1   
    53   26   55 1   
    54   28   53 1   
    55   28   54 1   
    56   28   56 1   
    57   38   57 1   
    58   39   57 1   
    59   40   57 1   
@<TRIPOS>SUBSTRUCTURE
     1 53V         1 TEMP              0 ****  ****    0 ROOT
