@<TRIPOS>MOLECULE
53V
   55    49     1     0     0
SMALL
bcc


@<TRIPOS>ATOM
      1 C1         -2.9370   -2.5020   -2.5180 c1        1 53V      0.224000
      2 C2          2.5870   -3.0440    0.4800 c3        1 53V     -0.076000
      3 C3         -4.8620   -2.5280   -3.8580 c1        1 53V      0.196000
      4 C6         -3.5120   -1.5590   -1.7140 c1        1 53V     -0.207000
      5 C12        -1.7500    0.5140    1.5630 c3        1 53V      0.050000
      6 C13        -2.3010   -0.0360    2.8630 c3        1 53V     -0.204000
      7 C14        -0.2760    0.3280    1.5250 c2        1 53V     -0.037000
      8 C15         0.2760   -0.9550    1.7040 c1        1 53V     -0.153000
      9 C16         1.6600   -1.1460    1.5750 c1        1 53V      0.076000
     10 C17         2.4810   -0.0720    1.2730 c1        1 53V     -0.194000
     11 C18         1.9330    1.1980    1.0960 c1        1 53V      0.005000
     12 C26         3.4590    1.1520   -1.4580 c3        1 53V     -0.183000
     13 C20         3.8190    2.0810   -0.3150 c2        1 53V     -0.047000
     14 C21         4.9370    2.8850   -0.4100 c2        1 53V     -0.139000
     15 C22         5.2860    3.7280    0.6540 c1        1 53V     -0.119000
     16 C23         4.4990    3.7550    1.8170 c1        1 53V     -0.139000
     17 C24         3.3700    2.9410    1.9090 c1        1 53V     -0.048000
     18 C27         2.5000    2.9380    3.2180 c2        1 53V     -0.182000
     19 C25         3.0270    2.1050    0.8490 c1        1 53V     -0.054000
     20 C19         0.5430    1.3920    1.2240 c2        1 53V     -0.149000
     21 O17         2.2070   -2.4240    1.7240 os        1 53V     -0.215000
     22 C11        -2.3820   -0.2340    0.3870 c1        1 53V     -0.180000
     23 C10        -2.8830   -0.8240   -0.5460 c1        1 53V     -0.086000
     24 C5         -4.7680   -1.1050   -1.9910 c2        1 53V      0.115000
     25 C8         -5.3230    0.0490   -1.2330 c3        1 53V     -0.181000
     26 N4         -5.4400   -1.5910   -3.0640 n1        1 53V     -0.265000
     27 N7         -5.5770   -3.0420   -5.0290 n3        1 53V     -0.329000
     28 N2         -3.6070   -2.9810   -3.5790 n1        1 53V     -0.305000
     29 N9         -1.7390   -3.3170   -2.4300 n3        1 53V     -0.351000
     30 H2          2.9680   -3.9210    0.6570 h1        1 53V      0.084333
     31 H2A         1.7920   -3.1420   -0.0960 h1        1 53V      0.084333
     32 H2B         3.2520   -2.4840    0.0260 h1        1 53V      0.084333
     33 H12        -1.9600    1.4550    1.4980 hc        1 53V      0.109000
     34 H13        -2.1240    0.5950    3.5880 hc        1 53V      0.083000
     35 H13A       -3.2740   -0.1710    2.7740 hc        1 53V      0.083000
     36 H13B       -1.8800   -0.8730    3.0580 hc        1 53V      0.083000
     37 H15        -0.3250   -1.7400    1.9240 ha        1 53V      0.151000
     38 H17         3.4460   -0.2030    1.1840 ha        1 53V      0.144000
     39 H26         4.0640    0.3290   -1.4310 hc        1 53V      0.087000
     40 H26A        2.5000    0.8670   -1.3680 hc        1 53V      0.087000
     41 H26B        3.5810    1.6190   -2.3090 hc        1 53V      0.087000
     42 H21         5.4830    2.8660   -1.2170 ha        1 53V      0.132000
     43 H22         6.0520    4.2780    0.5880 ha        1 53V      0.131000
     44 H23         4.7460    4.3530    2.5720 ha        1 53V      0.132000
     45 H27         1.6630    3.4470    3.0590 ha        1 53V      0.086667
     46 H27A        2.2700    1.9790    3.4660 ha        1 53V      0.086667
     47 H27B        3.0210    3.3700    3.9780 ha        1 53V      0.086667
     48 H19         0.1630    2.2800    1.1000 ha        1 53V      0.141000
     49 H8         -4.7810    0.8540   -1.4180 hc        1 53V      0.100000
     50 H8A        -6.2310    0.2040   -1.5050 hc        1 53V      0.100000
     51 H8B        -5.3000   -0.1480   -0.2770 hc        1 53V      0.100000
     52 HN7        -6.4300   -2.7060   -5.2470 hn        1 53V      0.224500
     53 HN7A       -5.2330   -3.6990   -5.4960 hn        1 53V      0.224500
     54 HN9        -1.2040   -3.2690   -1.6810 hn        1 53V      0.233000
     55 HN9A       -1.4880   -3.8430   -3.1410 hn        1 53V      0.233000
@<TRIPOS>BOND
     1    1    4 1   
     2    1   29 1   
     3    2   21 1   
     4    2   30 1   
     5    2   31 1   
     6    2   32 1   
     7    3   27 1   
     8    3   28 1   
     9    4   24 1   
    10    5    6 1   
    11    5    7 1   
    12    5   22 1   
    13    5   33 1   
    14    6   34 1   
    15    6   35 1   
    16    6   36 1   
    17    7    8 1   
    18    7   20 1   
    19    8   37 1   
    20    9   10 1   
    21    9   21 1   
    22   10   38 1   
    23   11   20 1   
    24   12   13 1   
    25   12   39 1   
    26   12   40 1   
    27   12   41 1   
    28   13   14 1   
    29   13   19 1   
    30   14   15 1   
    31   14   42 1   
    32   15   43 1   
    33   16   17 1   
    34   16   44 1   
    35   17   19 1   
    36   18   45 1   
    37   18   46 1   
    38   18   47 1   
    39   20   48 1   
    40   22   23 1   
    41   24   25 1   
    42   24   26 1   
    43   25   49 1   
    44   25   50 1   
    45   25   51 1   
    46   27   52 1   
    47   27   53 1   
    48   29   54 1   
    49   29   55 1   
@<TRIPOS>SUBSTRUCTURE
     1 53V         1 TEMP              0 ****  ****    0 ROOT
