@<TRIPOS>MOLECULE
53V
   55    56     1     0     0
SMALL
bcc


@<TRIPOS>ATOM
      1 C1          0.0000    0.0000    0.0000 c2        1 53V      0.021000
      2 C2          8.0800    1.8150   -0.5650 c3        1 53V      0.097000
      3 C3          0.0290   -0.0010    2.3060 c2        1 53V      0.035000
      4 C6          1.4090    0.0000    0.0000 c2        1 53V     -0.104000
      5 C12         3.5790   -0.8040   -3.3820 c3        1 53V      0.172000
      6 C13         2.9740   -0.5200   -4.7570 c3        1 53V     -0.149000
      7 C14         4.9090   -0.0630   -3.2030 c2        1 53V     -0.043000
      8 C15         5.0540    0.3770   -2.0830 c2        1 53V     -0.075000
      9 C16         6.5550    1.2430   -1.7890 c2        1 53V     -0.099000
     10 C17         7.3610    1.2430   -3.0550 c2        1 53V     -0.106000
     11 C18         6.7640    0.4810   -4.4480 c1        1 53V     -0.058000
     12 C20         3.4720    1.1400   -9.8130 c2        1 53V     -0.039500
     13 C21         2.2250    1.1100  -10.2600 c2        1 53V     -0.124000
     14 C22         1.2970    0.1300  -10.1330 c2        1 53V     -0.129000
     15 C23         1.7190   -1.0470   -9.4130 c2        1 53V     -0.124000
     16 C24         3.1690   -0.8970   -8.9490 c2        1 53V     -0.039500
     17 C27         3.8180   -2.2560   -8.4590 c3        1 53V     -0.081000
     18 C25         3.8820    0.2920   -9.2550 c1        1 53V     -0.080000
     19 C19         5.8250    0.0230   -4.3780 c2        1 53V     -0.122000
     20 O17         6.9250    1.9460   -0.5680 os        1 53V     -0.085000
     21 C11         2.7460    0.0220   -2.2370 c1        1 53V     -0.180000
     22 C10         2.1440    0.0010   -1.2290 c1        1 53V     -0.143000
     23 C5          2.0690    0.0000    1.2290 c2        1 53V      0.009000
     24 C8          3.5740    0.0010    1.2890 c3        1 53V     -0.097000
     25 N4          1.3550   -0.0000    2.3430 n2        1 53V     -0.123000
     26 N7         -0.6750   -0.0010    3.4960 nv        1 53V     -0.022000
     27 N2         -0.6410   -0.0000    1.1630 n2        1 53V     -0.092000
     28 N9         -0.7030    0.0050   -1.1910 nv        1 53V     -0.001000
     29 H2          8.6920    1.0290   -0.1400 h1        1 53V      0.006333
     30 H2A         8.4780    2.4500   -1.3470 h1        1 53V      0.006333
     31 H2B         8.2260    2.4910    0.2680 h1        1 53V      0.006333
     32 H12         3.4640   -1.8460   -3.1100 hc        1 53V      0.087000
     33 H13         2.2230   -1.2010   -5.1390 hc        1 53V      0.053333
     34 H13A        2.7880    0.4840   -5.1220 hc        1 53V      0.053333
     35 H13B        3.6380   -1.0270   -5.4470 hc        1 53V      0.053333
     36 H15         4.4250    0.7650   -1.2920 ha        1 53V      0.171000
     37 H17         8.3140    1.7570   -3.0090 ha        1 53V      0.111000
     38 H26         3.5990    3.2060  -10.8800 hc        1 53V      0.058667
     39 H26A        4.9780    1.8020  -10.7090 hc        1 53V      0.058667
     40 H26B        4.7610    2.5430   -9.5650 hc        1 53V      0.058667
     41 H21         1.7490    1.8430  -10.8990 ha        1 53V      0.114000
     42 H22         0.4450   -0.3040  -10.6410 ha        1 53V      0.132000
     43 H23         1.1200   -1.9300   -9.2240 ha        1 53V      0.114000
     44 H27         4.7250   -2.5130   -8.9940 hc        1 53V      0.058667
     45 H27A        3.0790   -3.0400   -8.5720 hc        1 53V      0.058667
     46 H27B        4.1080   -2.1640   -7.4190 hc        1 53V      0.058667
     47 H19         5.4210   -0.3700   -5.3030 ha        1 53V      0.139000
     48 H8          3.8030   -0.7230    2.0610 hc        1 53V      0.075667
     49 H8A         3.8220    0.9110    1.8220 hc        1 53V      0.075667
     50 H8B         3.8940   -0.3770    0.3250 hc        1 53V      0.075667
     51 HN7        -1.1680    0.7010    4.0120 hn        1 53V      0.059000
     52 HN7A       -0.7600   -0.7840    4.1140 hn        1 53V      0.059000
     53 HN9        -0.7500    0.8780   -1.6770 hn        1 53V      0.060000
     54 HN9A       -0.6010   -0.8210   -1.7460 hn        1 53V      0.060000
     55 C26         4.1060    2.3710  -10.4100 c3        1 53V     -0.081000
@<TRIPOS>BOND
     1    1    4 1   
     2    1   27 1   
     3    1   28 1   
     4    2   20 1   
     5    2   29 1   
     6    2   30 1   
     7    2   31 1   
     8    3   25 1   
     9    3   26 1   
    10    3   27 1   
    11    4   22 1   
    12    4   23 1   
    13    5    6 1   
    14    5    7 1   
    15    5   21 1   
    16    5   32 1   
    17    6   33 1   
    18    6   34 1   
    19    6   35 1   
    20    7    8 1   
    21    7   19 1   
    22    8    9 1   
    23    8   36 1   
    24    9   10 1   
    25    9   20 1   
    26   10   11 1   
    27   10   37 1   
    28   11   19 1   
    29   12   13 1   
    30   12   18 1   
    31   12   55 1   
    32   13   14 1   
    33   13   41 1   
    34   14   15 1   
    35   14   42 1   
    36   15   16 1   
    37   15   43 1   
    38   16   17 1   
    39   16   18 1   
    40   17   44 1   
    41   17   45 1   
    42   17   46 1   
    43   19   47 1   
    44   21   22 1   
    45   23   24 1   
    46   23   25 1   
    47   24   48 1   
    48   24   49 1   
    49   24   50 1   
    50   26   51 1   
    51   26   52 1   
    52   28   53 1   
    53   28   54 1   
    54   38   55 1   
    55   39   55 1   
    56   40   55 1   
@<TRIPOS>SUBSTRUCTURE
     1 53V         1 TEMP              0 ****  ****    0 ROOT
