@<TRIPOS>MOLECULE
53V
   55    57     1     0     0
SMALL
bcc


@<TRIPOS>ATOM
      1 C1          5.0960   -0.8960   -0.8820 ca        1 53V      0.748200
      2 C2         -2.2730    3.5440    2.1680 c3        1 53V      0.113700
      3 C3          6.4660   -0.2730    0.9090 ca        1 53V      0.916900
      4 C6          3.9910   -0.2060   -0.2610 ca        1 53V     -0.342600
      5 C12         0.3490   -0.1240   -1.9980 c3        1 53V      0.069700
      6 C13         0.3480    0.7530   -3.2450 c3        1 53V     -0.086100
      7 C14        -0.7140    0.3390   -1.0410 ca        1 53V     -0.046300
      8 C15        -0.5370    1.5090   -0.3040 ca        1 53V     -0.145000
      9 C16        -1.5550    1.9310    0.5700 ca        1 53V      0.121100
     10 C17        -2.7370    1.1990    0.7070 ca        1 53V     -0.194000
     11 C18        -2.9020    0.0220   -0.0360 cp        1 53V      0.002000
     12 C20        -5.3070   -0.3590   -0.5630 ca        1 53V     -0.055300
     13 C21        -6.4770   -1.1140   -0.4220 ca        1 53V     -0.140000
     14 C22        -6.4880   -2.2580    0.3700 ca        1 53V     -0.119000
     15 C23        -5.3290   -2.6590    1.0300 ca        1 53V     -0.140000
     16 C24        -4.1480   -1.9200    0.9040 ca        1 53V     -0.055300
     17 C27        -2.9280   -2.3580    1.6230 c3        1 53V     -0.057300
     18 C25        -4.1360   -0.7630    0.1040 cp        1 53V     -0.052000
     19 C19        -1.8920   -0.4050   -0.9040 ca        1 53V     -0.149000
     20 O17        -1.2800    3.1030    1.2510 os        1 53V     -0.328900
     21 C11         1.6490   -0.1420   -1.3790 c1        1 53V     -0.154100
     22 C10         2.7300   -0.1740   -0.8610 cg        1 53V     -0.082000
     23 C5          4.2480    0.4390    0.9760 ca        1 53V      0.540600
     24 C8          3.1260    1.1570    1.6580 c3        1 53V     -0.159400
     25 N4          5.4580    0.4250    1.5680 nb        1 53V     -0.792000
     26 N7          7.6980   -0.3780    1.5580 nh        1 53V     -0.933500
     27 N2          6.3420   -0.9080   -0.3110 nb        1 53V     -0.834000
     28 N9          4.9030   -1.5870   -2.0590 nh        1 53V     -0.959500
     29 H2         -1.8320    4.4770    2.6020 h1        1 53V      0.044367
     30 H2A        -3.2290    3.7710    1.6350 h1        1 53V      0.044367
     31 H2B        -2.4420    2.7800    2.9650 h1        1 53V      0.044367
     32 H12         0.1070   -1.1850   -2.3170 hc        1 53V      0.067700
     33 H13         1.1240    0.3990   -3.9640 hc        1 53V      0.042367
     34 H13A       -0.6520    0.7050   -3.7390 hc        1 53V      0.042367
     35 H13B        0.5640    1.8140   -2.9760 hc        1 53V      0.042367
     36 H15         0.3880    2.0990   -0.3920 ha        1 53V      0.154000
     37 H17        -3.5360    1.5260    1.3870 ha        1 53V      0.144000
     38 H26        -4.7800    1.6930   -0.9170 hc        1 53V      0.047367
     39 H26A       -4.7890    0.6340   -2.3870 hc        1 53V      0.047367
     40 H26B       -6.3570    1.1750   -1.6540 hc        1 53V      0.047367
     41 H21        -7.3930   -0.7980   -0.9440 ha        1 53V      0.132000
     42 H22        -7.4120   -2.8460    0.4750 ha        1 53V      0.131000
     43 H23        -5.3390   -3.5640    1.6550 ha        1 53V      0.132000
     44 H27        -2.0360   -2.3050    0.9490 hc        1 53V      0.047367
     45 H27A       -2.7400   -1.6890    2.5000 hc        1 53V      0.047367
     46 H27B       -3.0320   -3.4060    1.9950 hc        1 53V      0.047367
     47 H19        -2.0290   -1.3330   -1.4800 ha        1 53V      0.139000
     48 H8          2.5180    0.4120    2.2310 hc        1 53V      0.062700
     49 H8A         3.4950    1.9360    2.3690 hc        1 53V      0.062700
     50 H8B         2.4680    1.6440    0.8960 hc        1 53V      0.062700
     51 HN7         7.8740    0.2570    2.3000 hn        1 53V      0.430800
     52 HN7A        8.4760   -0.6660    1.0150 hn        1 53V      0.430800
     53 HN9         4.0590   -1.4280   -2.5520 hn        1 53V      0.437300
     54 HN9A        5.6800   -1.9520   -2.5520 hn        1 53V      0.437300
     55 C26        -5.3140    0.8490   -1.4220 c3        1 53V     -0.057300
@<TRIPOS>BOND
     1    1    4 ar  
     2    1   27 ar  
     3    1   28 1   
     4    2   20 1   
     5    2   29 1   
     6    2   30 1   
     7    2   31 1   
     8    3   25 ar  
     9    3   26 1   
    10    3   27 ar  
    11    4   22 1   
    12    4   23 ar  
    13    5    6 1   
    14    5    7 1   
    15    5   21 1   
    16    5   32 1   
    17    6   33 1   
    18    6   34 1   
    19    6   35 1   
    20    7    8 ar  
    21    7   19 ar  
    22    8    9 ar  
    23    8   36 1   
    24    9   10 ar  
    25    9   20 1   
    26   10   11 ar  
    27   10   37 1   
    28   11   18 1   
    29   11   19 ar  
    30   12   13 ar  
    31   12   18 ar  
    32   12   55 1   
    33   13   14 ar  
    34   13   41 1   
    35   14   15 ar  
    36   14   42 1   
    37   15   16 ar  
    38   15   43 1   
    39   16   17 1   
    40   16   18 ar  
    41   17   44 1   
    42   17   45 1   
    43   17   46 1   
    44   19   47 1   
    45   21   22 3   
    46   23   24 1   
    47   23   25 ar  
    48   24   48 1   
    49   24   49 1   
    50   24   50 1   
    51   26   51 1   
    52   26   52 1   
    53   28   53 1   
    54   28   54 1   
    55   38   55 1   
    56   39   55 1   
    57   40   55 1   
@<TRIPOS>SUBSTRUCTURE
     1 53V         1 TEMP              0 ****  ****    0 ROOT
