@<TRIPOS>MOLECULE
53Y
   22    24     1     0     0
SMALL
bcc


@<TRIPOS>ATOM
      1 C10        -0.0080   -0.0080   -0.0670 cc        1 53Y     -0.206000
      2 C01        -0.2320   -0.0000    5.7130 ca        1 53Y     -0.143000
      3 C02         1.0380    0.0020    6.2900 ca        1 53Y     -0.101000
      4 C03         2.1760    0.0030    5.4950 ca        1 53Y     -0.165000
      5 C04         2.0700    0.0010    4.0870 ca        1 53Y      0.069600
      6 C05         0.7590   -0.0020    3.5000 ca        1 53Y     -0.040200
      7 C06        -0.3750   -0.0020    4.3320 ca        1 53Y     -0.112000
      8 N01         3.2140    0.0010    3.2880 n         1 53Y     -0.467100
      9 C07         3.1590   -0.0010    1.8880 c         1 53Y      0.746100
     10 C08         1.8230   -0.0040    1.2910 cd        1 53Y     -0.196900
     11 N           0.6630   -0.0040    2.0990 na        1 53Y      0.038800
     12 C09         1.4220   -0.0060   -0.0550 cc        1 53Y     -0.098000
     13 C          -0.4490   -0.0070    1.2690 cd        1 53Y     -0.120300
     14 O           4.2200   -0.0010    1.2390 o         1 53Y     -0.615500
     15 H07        -0.6450   -0.0100   -0.9460 ha        1 53Y      0.161000
     16 H01        -1.1270   -0.0000    6.3530 ha        1 53Y      0.142000
     17 H02         1.1430    0.0040    7.3860 ha        1 53Y      0.140000
     18 H03         3.1700    0.0050    5.9690 ha        1 53Y      0.142000
     19 H04        -1.3830   -0.0040    3.8890 ha        1 53Y      0.142000
     20 H05         4.1050    0.0030    3.7300 hn        1 53Y      0.336500
     21 H06         2.0870   -0.0070   -0.9150 ha        1 53Y      0.172000
     22 H          -1.4640   -0.0080    1.6680 h4        1 53Y      0.173000
@<TRIPOS>BOND
     1    1   12 1   
     2    1   13 2   
     3    1   15 1   
     4    2    3 ar  
     5    2    7 ar  
     6    2   16 1   
     7    3    4 ar  
     8    3   17 1   
     9    4    5 ar  
    10    4   18 1   
    11    5    6 ar  
    12    5    8 1   
    13    6    7 ar  
    14    6   11 1   
    15    7   19 1   
    16    8    9 1   
    17    8   20 1   
    18    9   10 1   
    19    9   14 2   
    20   10   11 1   
    21   10   12 2   
    22   11   13 1   
    23   12   21 1   
    24   13   22 1   
@<TRIPOS>SUBSTRUCTURE
     1 53Y         1 TEMP              0 ****  ****    0 ROOT
