@<TRIPOS>MOLECULE
53Z
   43    44     1     0     0
SMALL
bcc


@<TRIPOS>ATOM
      1 CAJ         0.3250   -0.8140    0.0740 c3        1 53Z     -0.015700
      2 CAH         0.8640    0.4360    0.7780 c3        1 53Z     -0.096900
      3 CAI        -0.2790    1.0220    1.6010 c3        1 53Z     -0.096900
      4 CAK        -1.4960    0.1100    1.4070 c3        1 53Z     -0.015700
      5 NAT        -1.0940   -0.9640    0.4760 nh        1 53Z     -0.074100
      6 C          -1.8490   -1.9550    0.0750 c2        1 53Z      0.486600
      7 O          -3.1300   -1.9970    0.6590 os        1 53Z     -0.442700
      8 CA         -1.4130   -3.0720   -0.8780 c3        1 53Z      0.096500
      9 N          -2.4540   -4.0370   -1.0900 n3        1 53Z     -0.979800
     10 CAP        -4.1890   -2.2850   -0.1860 c         1 53Z      0.652100
     11 OAB        -4.3130   -1.7730   -1.2810 o         1 53Z     -0.336000
     12 NAO        -5.1900   -3.1730    0.4660 n4        1 53Z     -0.631800
     13 CAM        -6.5910   -2.6300    0.2880 c3        1 53Z      0.168100
     14 CAS        -7.6530   -3.5970    0.7000 ca        1 53Z     -0.145300
     15 CAF        -8.2540   -4.4240   -0.2580 ca        1 53Z     -0.068000
     16 CAD        -9.3560   -5.2120    0.0740 ca        1 53Z     -0.085000
     17 CAR        -9.8630   -5.1690    1.3850 ca        1 53Z     -0.000400
     18 NAA       -11.0540   -5.9500    1.7300 n4        1 53Z     -0.716000
     19 CAE        -9.2520   -4.3620    2.3610 ca        1 53Z     -0.085000
     20 CAG        -8.1500   -3.5800    2.0100 ca        1 53Z     -0.068000
     21 H1          0.3680   -0.7090   -1.0480 h1        1 53Z      0.110700
     22 H2          0.8920   -1.7380    0.3830 h1        1 53Z      0.110700
     23 H3          1.7320    0.1640    1.4340 hc        1 53Z      0.112700
     24 H4          1.2310    1.1750    0.0190 hc        1 53Z      0.112700
     25 H5         -0.0060    1.0720    2.6870 hc        1 53Z      0.112700
     26 H6         -0.5220    2.0640    1.2640 hc        1 53Z      0.112700
     27 H7         -1.8230   -0.3570    2.3780 h1        1 53Z      0.110700
     28 H8         -2.3640    0.6670    0.9540 h1        1 53Z      0.110700
     29 H9         -0.4830   -3.5310   -0.4160 h1        1 53Z      0.130700
     30 H10        -1.1000   -2.5630   -1.8440 h1        1 53Z      0.130700
     31 H11        -2.2140   -4.9330   -0.7070 hn        1 53Z      0.417800
     32 H12        -5.1130   -4.1020    0.0210 hn        1 53Z      0.488300
     33 H13        -6.6610   -1.6820    0.9020 hx        1 53Z      0.141700
     34 H14        -6.7110   -2.3590   -0.8070 hx        1 53Z      0.141700
     35 H15        -7.8860   -4.4430   -1.3000 ha        1 53Z      0.178500
     36 H16        -9.8180   -5.8430   -0.7080 ha        1 53Z      0.193500
     37 H17       -11.1030   -6.8030    1.1540 hn        1 53Z      0.486133
     38 H18       -11.0310   -6.2200    2.7240 hn        1 53Z      0.486133
     39 H19        -9.6300   -4.3170    3.4000 ha        1 53Z      0.193500
     40 H20        -7.7000   -2.9270    2.7790 ha        1 53Z      0.178500
     41 H21        -2.6780   -4.1270   -2.0650 hn        1 53Z      0.417800
     42 HAO2       -4.9700   -3.2720    1.4680 hn        1 53Z      0.488300
     43 HAA3      -11.9000   -5.3840    1.5590 hn        1 53Z      0.486133
@<TRIPOS>BOND
     1    1    2 1   
     2    1    5 1   
     3    1   21 1   
     4    1   22 1   
     5    2    3 1   
     6    2   23 1   
     7    2   24 1   
     8    3    4 1   
     9    3   25 1   
    10    3   26 1   
    11    4    5 1   
    12    4   27 1   
    13    4   28 1   
    14    5    6 2   
    15    6    7 1   
    16    6    8 1   
    17    7   10 1   
    18    8    9 1   
    19    8   29 1   
    20    8   30 1   
    21    9   31 1   
    22    9   41 1   
    23   10   11 2   
    24   10   12 1   
    25   12   13 1   
    26   12   32 1   
    27   12   42 1   
    28   13   14 1   
    29   13   33 1   
    30   13   34 1   
    31   14   15 ar  
    32   14   20 ar  
    33   15   16 ar  
    34   15   35 1   
    35   16   17 ar  
    36   16   36 1   
    37   17   18 1   
    38   17   19 ar  
    39   18   37 1   
    40   18   38 1   
    41   18   43 1   
    42   19   20 ar  
    43   19   39 1   
    44   20   40 1   
@<TRIPOS>SUBSTRUCTURE
     1 53Z         1 TEMP              0 ****  ****    0 ROOT
