@<TRIPOS>MOLECULE
53Z
   42    43     1     0     0
SMALL
bcc


@<TRIPOS>ATOM
      1 CAJ        -0.1390   -0.4290    0.3220 c3        1 53Z      0.074000
      2 CAH         0.8850   -0.1510    1.4340 c3        1 53Z     -0.090400
      3 CAI         0.4600   -0.9770    2.6460 c3        1 53Z     -0.090400
      4 CAK        -0.8320   -1.7090    2.2620 c3        1 53Z      0.074000
      5 NAT        -1.1340   -1.3420    0.8750 n         1 53Z     -0.382800
      6 C          -2.1930   -1.8310    0.2130 c         1 53Z      0.644100
      7 O          -3.0310   -2.6360    0.7080 o         1 53Z     -0.714100
      8 CA         -2.4190   -1.3880   -1.2500 c3        1 53Z      0.013800
      9 N          -3.5280   -2.1700   -1.8900 ny        1 53Z     -0.639800
     10 CAP        -4.8880   -1.6800   -1.4480 c         1 53Z      0.495100
     11 OAB        -5.3470   -0.7070   -2.0290 o         1 53Z     -0.343100
     12 NAO        -5.6190   -2.4210   -0.4120 ny        1 53Z     -0.688800
     13 CAM        -6.5170   -3.5870   -0.9870 c3        1 53Z      0.241100
     14 CAS        -7.4380   -3.9870    0.0520 ca        1 53Z     -0.316300
     15 CAF        -7.0970   -5.0080    0.9750 ca        1 53Z     -0.008500
     16 CAD        -7.9950   -5.4530    1.9100 ca        1 53Z     -0.223500
     17 CAR        -9.3180   -4.8910    1.9820 ca        1 53Z      0.300600
     18 NAA       -10.2140   -5.3290    2.8880 nv        1 53Z     -0.792200
     19 CAE        -9.6490   -3.8440    1.0530 ca        1 53Z     -0.223500
     20 CAG        -8.7340   -3.4150    0.1270 ca        1 53Z     -0.008500
     21 H1          0.3580   -0.9050   -0.5690 h1        1 53Z      0.072200
     22 H2         -0.6420    0.5210   -0.0090 h1        1 53Z      0.072200
     23 H3          0.8990    0.9410    1.6780 hc        1 53Z      0.087700
     24 H4          1.9100   -0.4390    1.0910 hc        1 53Z      0.087700
     25 H5          0.2810   -0.3200    3.5340 hc        1 53Z      0.087700
     26 H6          1.2540   -1.7160    2.9220 hc        1 53Z      0.087700
     27 H7         -1.6940   -1.4040    2.9170 h1        1 53Z      0.072200
     28 H8         -0.7140   -2.8260    2.3290 h1        1 53Z      0.072200
     29 H9         -2.6710   -0.2880   -1.2930 hx        1 53Z      0.148700
     30 H10        -1.4820   -1.5750   -1.8580 hx        1 53Z      0.148700
     31 H11        -3.4670   -2.0480   -2.9160 hn        1 53Z      0.494800
     32 H12        -4.9810   -2.8140    0.3090 hn        1 53Z      0.496300
     33 H13        -7.0260   -3.1490   -1.8900 hx        1 53Z      0.098200
     34 H14        -5.7870   -4.3910   -1.2770 hx        1 53Z      0.098200
     35 H15        -6.0950   -5.4670    0.9270 ha        1 53Z      0.144000
     36 H16        -7.7100   -6.2590    2.6070 ha        1 53Z      0.172000
     37 H17        -9.9850   -6.0660    3.5160 hn        1 53Z      0.466800
     38 H18       -11.1330   -4.9490    2.9210 hn        1 53Z      0.466800
     39 H19       -10.6560   -3.3940    1.0800 ha        1 53Z      0.172000
     40 H20        -9.0190   -2.6260   -0.5890 ha        1 53Z      0.144000
     41 H21        -3.4010   -3.1670   -1.6490 hn        1 53Z      0.494800
     42 HAO2       -6.2520   -1.7540    0.0650 hn        1 53Z      0.496300
@<TRIPOS>BOND
     1    1    2 1   
     2    1    5 1   
     3    1   21 1   
     4    1   22 1   
     5    2    3 1   
     6    2   23 1   
     7    2   24 1   
     8    3    4 1   
     9    3   25 1   
    10    3   26 1   
    11    4    5 1   
    12    4   27 1   
    13    4   28 1   
    14    5    6 1   
    15    6    7 2   
    16    6    8 1   
    17    8    9 1   
    18    8   29 1   
    19    8   30 1   
    20    9   10 1   
    21    9   31 1   
    22    9   41 1   
    23   10   11 2   
    24   10   12 1   
    25   12   13 1   
    26   12   32 1   
    27   12   42 1   
    28   13   14 1   
    29   13   33 1   
    30   13   34 1   
    31   14   15 ar  
    32   14   20 ar  
    33   15   16 ar  
    34   15   35 1   
    35   16   17 ar  
    36   16   36 1   
    37   17   18 1   
    38   17   19 ar  
    39   18   37 1   
    40   18   38 1   
    41   19   20 ar  
    42   19   39 1   
    43   20   40 1   
@<TRIPOS>SUBSTRUCTURE
     1 53Z         1 TEMP              0 ****  ****    0 ROOT
