@<TRIPOS>MOLECULE
53Z
   42    43     1     0     0
SMALL
bcc


@<TRIPOS>ATOM
      1 CAJ        -0.1870   -0.3420    0.2830 c3        1 53Z      0.074000
      2 CAH         0.8190   -0.0010    1.3930 c3        1 53Z     -0.090400
      3 CAI         0.4020   -0.7920    2.6300 c3        1 53Z     -0.090400
      4 CAK        -0.8690   -1.5690    2.2610 c3        1 53Z      0.074000
      5 NAT        -1.1660   -1.2580    0.8590 n         1 53Z     -0.382800
      6 C          -2.2070   -1.7940    0.2060 c         1 53Z      0.644100
      7 O          -3.0320   -2.6010    0.7220 o         1 53Z     -0.714100
      8 CA         -2.4290   -1.4090   -1.2740 c3        1 53Z      0.013800
      9 N          -3.5130   -2.2390   -1.8960 n4        1 53Z     -0.639800
     10 CAP        -4.8880   -1.7650   -1.4830 c         1 53Z      0.495100
     11 OAB        -5.3640   -0.8250   -2.1040 o         1 53Z     -0.343100
     12 NAO        -5.6120   -2.4850   -0.4280 n4        1 53Z     -0.688800
     13 CAM        -6.4790   -3.6900   -0.9690 c3        1 53Z      0.241100
     14 CAS        -7.4010   -4.0750    0.0770 ca        1 53Z     -0.316300
     15 CAF        -7.0450   -5.0550    1.0370 ca        1 53Z     -0.008500
     16 CAD        -7.9410   -5.4870    1.9800 ca        1 53Z     -0.223500
     17 CAR        -9.2770   -4.9530    2.0220 ca        1 53Z      0.300600
     18 NAA       -10.1700   -5.3780    2.9360 nh        1 53Z     -0.792200
     19 CAE        -9.6230   -3.9450    1.0540 ca        1 53Z     -0.223500
     20 CAG        -8.7090   -3.5290    0.1210 ca        1 53Z     -0.008500
     21 H1         -0.7080    0.5840   -0.0870 h1        1 53Z      0.072200
     22 H2          0.3310   -0.8380   -0.5850 h1        1 53Z      0.072200
     23 H3          0.8060    1.0990    1.5980 hc        1 53Z      0.087700
     24 H4          1.8550   -0.2770    1.0710 hc        1 53Z      0.087700
     25 H5          1.2090   -1.5020    2.9410 hc        1 53Z      0.087700
     26 H6          0.1990   -0.1090    3.4920 hc        1 53Z      0.087700
     27 H7         -1.7440   -1.2610    2.8970 h1        1 53Z      0.072200
     28 H8         -0.7260   -2.6790    2.3690 h1        1 53Z      0.072200
     29 H9         -2.7050   -0.3170   -1.3590 hx        1 53Z      0.148700
     30 H10        -1.4820   -1.5960   -1.8670 hx        1 53Z      0.148700
     31 H11        -3.4450   -2.1520   -2.9250 hn        1 53Z      0.494800
     32 H12        -4.9730   -2.8380    0.3110 hn        1 53Z      0.496300
     33 H13        -6.9900   -3.2960   -1.8900 hx        1 53Z      0.098200
     34 H14        -5.7290   -4.4870   -1.2250 hx        1 53Z      0.098200
     35 H15        -6.0330   -5.4930    1.0130 ha        1 53Z      0.144000
     36 H16        -7.6450   -6.2610    2.7070 ha        1 53Z      0.172000
     37 H17       -11.0970   -5.0170    2.9480 hn        1 53Z      0.466800
     38 H18        -9.9310   -6.0880    3.5910 hn        1 53Z      0.466800
     39 H19       -10.6390   -3.5170    1.0580 ha        1 53Z      0.172000
     40 H20        -9.0050   -2.7720   -0.6250 ha        1 53Z      0.144000
     41 H21        -3.3660   -3.2230   -1.6180 hn        1 53Z      0.494800
     42 HAO2       -6.2640   -1.8160    0.0200 hn        1 53Z      0.496300
@<TRIPOS>BOND
     1    1    2 1   
     2    1    5 1   
     3    1   21 1   
     4    1   22 1   
     5    2    3 1   
     6    2   23 1   
     7    2   24 1   
     8    3    4 1   
     9    3   25 1   
    10    3   26 1   
    11    4    5 1   
    12    4   27 1   
    13    4   28 1   
    14    5    6 1   
    15    6    7 2   
    16    6    8 1   
    17    8    9 1   
    18    8   29 1   
    19    8   30 1   
    20    9   10 1   
    21    9   31 1   
    22    9   41 1   
    23   10   11 2   
    24   10   12 1   
    25   12   13 1   
    26   12   32 1   
    27   12   42 1   
    28   13   14 1   
    29   13   33 1   
    30   13   34 1   
    31   14   15 ar  
    32   14   20 ar  
    33   15   16 ar  
    34   15   35 1   
    35   16   17 ar  
    36   16   36 1   
    37   17   18 1   
    38   17   19 ar  
    39   18   37 1   
    40   18   38 1   
    41   19   20 ar  
    42   19   39 1   
    43   20   40 1   
@<TRIPOS>SUBSTRUCTURE
     1 53Z         1 TEMP              0 ****  ****    0 ROOT
