@<TRIPOS>MOLECULE
540
   42    45     1     0     0
SMALL
bcc


@<TRIPOS>ATOM
      1 C1         -2.9310    0.2220    2.3070 c3        1 540     -0.057800
      2 F1          0.5450   -3.9080   -0.0530 f         1 540     -0.129900
      3 N1         -4.5110   -1.9560   -0.3310 nb        1 540     -0.648000
      4 O1          4.3410   -0.9580   -0.0130 os        1 540     -0.288900
      5 C2         -3.1980   -0.3820    0.9860 ca        1 540     -0.150600
      6 N2         -1.7950    2.3980   -0.0990 nc        1 540     -0.538300
      7 C3         -4.1930   -1.3760    0.8390 ca        1 540      0.387200
      8 N3         -0.0960    0.8810   -0.0960 na        1 540     -0.066200
      9 C4         -3.8330   -1.5580   -1.4260 ca        1 540      0.382200
     10 N4          2.7180    1.2360   -0.0390 nc        1 540     -0.635000
     11 C5         -2.8230   -0.5810   -1.3980 ca        1 540     -0.215300
     12 C6         -2.5010    0.0090   -0.1690 ca        1 540     -0.075900
     13 C7         -1.4920    1.0730   -0.1140 cd        1 540      0.413400
     14 C8         -0.5920    3.0980   -0.0740 cc        1 540      0.063400
     15 C9          0.4880    2.1810   -0.0710 cd        1 540     -0.218600
     16 C10         0.7240   -0.2540   -0.0740 ca        1 540     -0.007600
     17 C11         0.1910   -1.5590   -0.0730 ca        1 540     -0.224000
     18 C12         1.0540   -2.6550   -0.0540 ca        1 540      0.188900
     19 C13         2.4530   -2.4830   -0.0340 ca        1 540     -0.268000
     20 C14         2.9870   -1.1990   -0.0320 ca        1 540      0.139800
     21 C15         2.1450   -0.0380   -0.0490 ca        1 540      0.330600
     22 C16         1.9360    2.2910   -0.0490 cd        1 540      0.477600
     23 C17         2.5130    3.6700   -0.0440 c3        1 540     -0.151400
     24 C18         5.1940   -2.1000    0.0070 c3        1 540      0.105700
     25 C19        -0.5130    4.5700   -0.0480 c3        1 540     -0.023900
     26 H1         -3.2970    1.2810    2.3220 hc        1 540      0.056033
     27 H1A        -3.4480   -0.3430    3.1220 hc        1 540      0.056033
     28 H1B        -1.8340    0.2320    2.5220 hc        1 540      0.056033
     29 H3         -4.7690   -1.7200    1.7180 h4        1 540      0.027100
     30 H4         -4.1190   -2.0470   -2.3740 h4        1 540      0.028100
     31 H5         -2.3070   -0.2830   -2.3210 ha        1 540      0.155000
     32 H11        -0.8960   -1.7320   -0.0880 ha        1 540      0.170000
     33 H13         3.0930   -3.3760   -0.0210 ha        1 540      0.162000
     34 H17         3.6160    3.6610    0.1390 hc        1 540      0.062033
     35 H17A        2.3200    4.1500   -1.0360 hc        1 540      0.062033
     36 H17B        2.0190    4.2760    0.7550 hc        1 540      0.062033
     37 H18         6.2180   -1.6470    0.0210 h1        1 540      0.050700
     38 H18A        5.0190   -2.7090    0.9270 h1        1 540      0.050700
     39 H18B        5.0490   -2.7190   -0.9110 h1        1 540      0.050700
     40 H19        -0.1740    4.9140    0.9620 hc        1 540      0.053700
     41 H19A        0.2210    4.9270   -0.8130 hc        1 540      0.053700
     42 H19B       -1.5070    5.0360   -0.2640 hc        1 540      0.053700
@<TRIPOS>BOND
     1    1    5 1   
     2    1   26 1   
     3    1   27 1   
     4    1   28 1   
     5    2   18 1   
     6    3    7 ar  
     7    3    9 ar  
     8    4   20 1   
     9    4   24 1   
    10    5    7 ar  
    11    5   12 ar  
    12    6   13 2   
    13    6   14 1   
    14    7   29 1   
    15    8   13 1   
    16    8   15 1   
    17    8   16 1   
    18    9   11 ar  
    19    9   30 1   
    20   10   21 1   
    21   10   22 2   
    22   11   12 ar  
    23   11   31 1   
    24   12   13 1   
    25   14   15 2   
    26   14   25 1   
    27   15   22 1   
    28   16   17 ar  
    29   16   21 ar  
    30   17   18 ar  
    31   17   32 1   
    32   18   19 ar  
    33   19   20 ar  
    34   19   33 1   
    35   20   21 ar  
    36   22   23 1   
    37   23   34 1   
    38   23   35 1   
    39   23   36 1   
    40   24   37 1   
    41   24   38 1   
    42   24   39 1   
    43   25   40 1   
    44   25   41 1   
    45   25   42 1   
@<TRIPOS>SUBSTRUCTURE
     1 540         1 TEMP              0 ****  ****    0 ROOT
