@<TRIPOS>MOLECULE
540
   42    45     1     0     0
SMALL
bcc


@<TRIPOS>ATOM
      1 C1          0.0380   -0.2990    0.0780 c3        1 540     -0.057800
      2 F1          2.3610    4.9170   -1.3770 f         1 540     -0.129900
      3 N1          3.8020   -0.1160    0.0500 nb        1 540     -0.648000
      4 O1         -1.0290    5.6760   -4.7010 os        1 540     -0.288900
      5 C2          1.4150   -0.1570   -0.4370 ca        1 540     -0.150600
      6 N2          0.0030   -1.0930   -3.2660 nc        1 540     -0.538300
      7 C3          2.5210   -0.2130    0.4430 ca        1 540      0.387200
      8 N3          0.0540    1.1810   -3.3940 na        1 540     -0.066200
      9 C4          4.0370    0.0430   -1.2670 ca        1 540      0.382200
     10 N4         -1.4710    2.9940   -4.9550 nc        1 540     -0.635000
     11 C5          3.0180    0.1150   -2.2320 ca        1 540     -0.215300
     12 C6          1.6880    0.0180   -1.8040 ca        1 540     -0.075900
     13 C7          0.6020    0.0320   -2.7910 cd        1 540      0.413400
     14 C8         -0.9510   -0.6910   -4.1970 cc        1 540      0.063400
     15 C9         -0.9450    0.7220   -4.3010 cd        1 540     -0.218600
     16 C10         0.2870    2.5540   -3.2470 ca        1 540     -0.007600
     17 C11         1.2470    3.0550   -2.3460 ca        1 540     -0.224000
     18 C12         1.4390    4.4340   -2.2410 ca        1 540      0.188900
     19 C13         0.6900    5.3370   -3.0210 ca        1 540     -0.268000
     20 C14        -0.2620    4.8510   -3.9100 ca        1 540      0.139800
     21 C15        -0.5010    3.4440   -4.0560 ca        1 540      0.330600
     22 C16        -1.6850    1.7040   -5.0740 cd        1 540      0.477600
     23 C17        -2.7100    1.1840   -6.0290 c3        1 540     -0.151400
     24 C18        -0.8070    7.0770   -4.5680 c3        1 540      0.105700
     25 C19        -1.8140   -1.6360   -4.9300 c3        1 540     -0.023900
     26 H1         -0.3860   -1.2870   -0.2370 hc        1 540      0.056033
     27 H1A        -0.6210    0.5070   -0.3310 hc        1 540      0.056033
     28 H1B         0.0170   -0.2430    1.1940 hc        1 540      0.056033
     29 H3          2.3600   -0.3480    1.5290 h4        1 540      0.027100
     30 H4          5.1000    0.1140   -1.5620 h4        1 540      0.028100
     31 H5          3.2620    0.2340   -3.2960 ha        1 540      0.155000
     32 H11         1.8510    2.3810   -1.7210 ha        1 540      0.170000
     33 H13         0.8780    6.4140   -2.9040 ha        1 540      0.162000
     34 H17        -2.1920    0.6590   -6.8710 hc        1 540      0.062033
     35 H17A       -3.3390    2.0050   -6.4550 hc        1 540      0.062033
     36 H17B       -3.3750    0.4570   -5.5010 hc        1 540      0.062033
     37 H18        -1.0350    7.4180   -3.5290 h1        1 540      0.050700
     38 H18A       -1.5350    7.5160   -5.2970 h1        1 540      0.050700
     39 H18B        0.2410    7.3400   -4.8510 h1        1 540      0.050700
     40 H19        -2.8640   -1.5650   -4.5480 hc        1 540      0.053700
     41 H19A       -1.4640   -2.6910   -4.8040 hc        1 540      0.053700
     42 H19B       -1.8120   -1.3890   -6.0210 hc        1 540      0.053700
@<TRIPOS>BOND
     1    1    5 1   
     2    1   26 1   
     3    1   27 1   
     4    1   28 1   
     5    2   18 1   
     6    3    7 ar  
     7    3    9 ar  
     8    4   20 1   
     9    4   24 1   
    10    5    7 ar  
    11    5   12 ar  
    12    6   13 2   
    13    6   14 1   
    14    7   29 1   
    15    8   13 1   
    16    8   15 1   
    17    8   16 1   
    18    9   11 ar  
    19    9   30 1   
    20   10   21 1   
    21   10   22 2   
    22   11   12 ar  
    23   11   31 1   
    24   12   13 1   
    25   14   15 2   
    26   14   25 1   
    27   15   22 1   
    28   16   17 ar  
    29   16   21 ar  
    30   17   18 ar  
    31   17   32 1   
    32   18   19 ar  
    33   19   20 ar  
    34   19   33 1   
    35   20   21 ar  
    36   22   23 1   
    37   23   34 1   
    38   23   35 1   
    39   23   36 1   
    40   24   37 1   
    41   24   38 1   
    42   24   39 1   
    43   25   40 1   
    44   25   41 1   
    45   25   42 1   
@<TRIPOS>SUBSTRUCTURE
     1 540         1 TEMP              0 ****  ****    0 ROOT
