@<TRIPOS>MOLECULE
540
   42    45     1     0     0
SMALL
bcc


@<TRIPOS>ATOM
      1 C1          0.0420   -0.2940    0.0780 c3        1 540     -0.057800
      2 F1          2.3660    4.9150   -1.3800 f         1 540     -0.129900
      3 N1          3.8070   -0.1190    0.0440 nb        1 540     -0.648000
      4 O1         -1.0300    5.6760   -4.6980 os        1 540     -0.288900
      5 C2          1.4180   -0.1560   -0.4390 ca        1 540     -0.150600
      6 N2          0.0020   -1.0930   -3.2670 nc        1 540     -0.538300
      7 C3          2.5260   -0.2120    0.4390 ca        1 540      0.387200
      8 N3          0.0530    1.1810   -3.3940 na        1 540     -0.066200
      9 C4          4.0400    0.0390   -1.2740 ca        1 540      0.382200
     10 N4         -1.4740    2.9950   -4.9520 nc        1 540     -0.635000
     11 C5          3.0190    0.1110   -2.2370 ca        1 540     -0.215300
     12 C6          1.6890    0.0170   -1.8070 ca        1 540     -0.075900
     13 C7          0.6020    0.0310   -2.7920 cd        1 540      0.413400
     14 C8         -0.9540   -0.6910   -4.1960 cc        1 540      0.063400
     15 C9         -0.9470    0.7220   -4.2990 cd        1 540     -0.218600
     16 C10         0.2870    2.5540   -3.2470 ca        1 540     -0.007600
     17 C11         1.2490    3.0540   -2.3480 ca        1 540     -0.224000
     18 C12         1.4420    4.4320   -2.2430 ca        1 540      0.188900
     19 C13         0.6920    5.3360   -3.0210 ca        1 540     -0.268000
     20 C14        -0.2620    4.8510   -3.9090 ca        1 540      0.139800
     21 C15        -0.5020    3.4440   -4.0540 ca        1 540      0.330600
     22 C16        -1.6890    1.7050   -5.0710 cd        1 540      0.477600
     23 C17        -2.7160    1.1860   -6.0240 c3        1 540     -0.151400
     24 C18        -0.8070    7.0770   -4.5650 c3        1 540      0.105700
     25 C19        -1.8170   -1.6350   -4.9280 c3        1 540     -0.023900
     26 H1         -0.3860   -1.2800   -0.2380 hc        1 540      0.055700
     27 H1A        -0.6150    0.5140   -0.3280 hc        1 540      0.055700
     28 H1B         0.0220   -0.2410    1.1940 hc        1 540      0.055700
     29 H3          2.3660   -0.3450    1.5250 h4        1 540      0.027100
     30 H4          5.1020    0.1070   -1.5710 h4        1 540      0.028100
     31 H5          3.2610    0.2280   -3.3020 ha        1 540      0.155000
     32 H11         1.8550    2.3790   -1.7240 ha        1 540      0.170000
     33 H13         0.8800    6.4130   -2.9050 ha        1 540      0.162000
     34 H17        -2.2000    0.6610   -6.8670 hc        1 540      0.062033
     35 H17A       -3.3460    2.0070   -6.4480 hc        1 540      0.062033
     36 H17B       -3.3800    0.4580   -5.4950 hc        1 540      0.062033
     37 H18        -1.0330    7.4180   -3.5260 h1        1 540      0.050700
     38 H18A       -1.5370    7.5160   -5.2930 h1        1 540      0.050700
     39 H18B        0.2400    7.3400   -4.8500 h1        1 540      0.050700
     40 H19        -2.8670   -1.5650   -4.5440 hc        1 540      0.053700
     41 H19A       -1.4670   -2.6910   -4.8030 hc        1 540      0.053700
     42 H19B       -1.8180   -1.3870   -6.0190 hc        1 540      0.053700
@<TRIPOS>BOND
     1    1    5 1   
     2    1   26 1   
     3    1   27 1   
     4    1   28 1   
     5    2   18 1   
     6    3    7 ar  
     7    3    9 ar  
     8    4   20 1   
     9    4   24 1   
    10    5    7 ar  
    11    5   12 ar  
    12    6   13 2   
    13    6   14 1   
    14    7   29 1   
    15    8   13 1   
    16    8   15 1   
    17    8   16 1   
    18    9   11 ar  
    19    9   30 1   
    20   10   21 1   
    21   10   22 2   
    22   11   12 ar  
    23   11   31 1   
    24   12   13 1   
    25   14   15 2   
    26   14   25 1   
    27   15   22 1   
    28   16   17 ar  
    29   16   21 ar  
    30   17   18 ar  
    31   17   32 1   
    32   18   19 ar  
    33   19   20 ar  
    34   19   33 1   
    35   20   21 ar  
    36   22   23 1   
    37   23   34 1   
    38   23   35 1   
    39   23   36 1   
    40   24   37 1   
    41   24   38 1   
    42   24   39 1   
    43   25   40 1   
    44   25   41 1   
    45   25   42 1   
@<TRIPOS>SUBSTRUCTURE
     1 540         1 TEMP              0 ****  ****    0 ROOT
