@<TRIPOS>MOLECULE
540
   42    38     1     0     0
SMALL
bcc


@<TRIPOS>ATOM
      1 C1         -1.1050   -3.3220    2.9660 c3        1 540     -0.183000
      2 F1          1.4960    3.0690    2.8910 f         1 540     -0.095000
      3 N1          2.3720   -3.4250    3.1220 n1        1 540     -0.122000
      4 O1          0.4800    4.4820   -1.3740 os        1 540     -0.172000
      5 C2          0.1920   -2.7170    2.4740 c2        1 540     -0.078000
      6 N2         -0.5570   -2.3640   -0.4770 n2        1 540     -0.110000
      7 C3          1.0340   -3.3520    3.3740 c2        1 540     -0.078000
      8 N3         -0.2570   -0.1800   -0.2740 n1        1 540     -0.076000
      9 C4          2.8830   -2.8740    1.9860 c1        1 540     -0.116500
     10 N4         -0.4310    1.8990   -2.0830 n1        1 540     -0.109000
     11 C5          2.0440   -2.2390    1.0840 c1        1 540     -0.116500
     12 C6          0.7030   -2.1650    1.3350 c1        1 540      0.008000
     13 C7         -0.2050   -1.3800    0.3950 c1        1 540      0.003000
     14 C8         -0.8210   -1.7930   -1.6630 c1        1 540     -0.073000
     15 C9         -0.6320   -0.4260   -1.5310 c1        1 540     -0.129000
     16 C10         0.0460    1.1240    0.1200 c1        1 540      0.082000
     17 C11         0.4430    1.3860    1.4460 c2        1 540     -0.224000
     18 C12         0.7450    2.6920    1.8390 c2        1 540      0.154000
     19 C13         0.6550    3.7340    0.9200 c2        1 540     -0.268000
     20 C14         0.2620    3.4750   -0.3920 c2        1 540      0.160000
     21 C15        -0.0440    2.1550   -0.7890 c1        1 540     -0.063000
     22 C16        -0.7240    0.6370   -2.4650 c1        1 540      0.055000
     23 C17        -1.2900    0.8840   -3.8920 c3        1 540     -0.175000
     24 C18        -0.2450    5.7000   -1.1320 c3        1 540     -0.084000
     25 C19        -1.3440   -2.8640   -2.5610 c2        1 540     -0.146000
     26 H1         -1.8380   -3.0790    2.3470 hc        1 540      0.095333
     27 H1A        -1.0170   -4.3020    3.0030 hc        1 540      0.095333
     28 H1B        -1.3080   -2.9760    3.8680 hc        1 540      0.095333
     29 H3          0.6690   -3.7470    4.1870 h4        1 540      0.164000
     30 H4          3.8450   -2.9280    1.8070 ha        1 540      0.160000
     31 H5          2.4160   -1.8390    0.2580 ha        1 540      0.160000
     32 H11         0.4470    0.6720    2.0990 ha        1 540      0.170000
     33 H13         0.9410    4.6350    1.1740 ha        1 540      0.162000
     34 H17        -1.2230    1.8350   -4.1100 hc        1 540      0.101333
     35 H17A       -0.7710    0.3580   -4.5480 hc        1 540      0.101333
     36 H17B       -2.2400    0.6050   -3.9220 hc        1 540      0.101333
     37 H18         0.2640    6.2650   -0.5160 h1        1 540      0.090000
     38 H18A       -1.1270    5.4870   -0.7330 h1        1 540      0.090000
     39 H18B       -0.3750    6.1740   -1.9750 h1        1 540      0.090000
     40 H19        -2.2510   -2.6370   -2.8450 ha        1 540      0.093000
     41 H19A       -0.7750   -2.9400   -3.3350 ha        1 540      0.093000
     42 H19B       -1.3570   -3.7210   -2.0780 ha        1 540      0.093000
@<TRIPOS>BOND
     1    1    5 1   
     2    1   26 1   
     3    1   27 1   
     4    1   28 1   
     5    2   18 1   
     6    3    7 1   
     7    4   20 1   
     8    4   24 1   
     9    5    7 1   
    10    5   12 1   
    11    6   13 1   
    12    6   14 1   
    13    7   29 1   
    14    8   15 1   
    15    9   11 1   
    16    9   30 1   
    17   10   22 1   
    18   11   31 1   
    19   12   13 1   
    20   14   15 1   
    21   16   17 1   
    22   16   21 1   
    23   17   18 1   
    24   17   32 1   
    25   18   19 1   
    26   19   20 1   
    27   19   33 1   
    28   20   21 1   
    29   22   23 1   
    30   23   34 1   
    31   23   35 1   
    32   23   36 1   
    33   24   37 1   
    34   24   38 1   
    35   24   39 1   
    36   25   40 1   
    37   25   41 1   
    38   25   42 1   
@<TRIPOS>SUBSTRUCTURE
     1 540         1 TEMP              0 ****  ****    0 ROOT
