@<TRIPOS>MOLECULE
541
   60    62     1     0     0
SMALL
bcc


@<TRIPOS>ATOM
      1 C20        -0.5830   -0.2950   -0.5130 c3        1 541     -0.139000
      2 C1          0.3940   -1.3690   -0.7850 c2        1 541     -0.078000
      3 C2          1.1730   -1.9060    0.1810 c2        1 541     -0.200000
      4 C3          1.1130   -1.4760    1.5400 c1        1 541     -0.102000
      5 C21         0.1880   -0.4400    1.8620 c2        1 541     -0.149000
      6 C22        -0.6370    0.1490    0.9160 c2        1 541      0.057000
      7 N1         -1.5560    1.1680    1.2060 n2        1 541     -0.182000
      8 C5         -1.6450    1.6010    2.4330 c2        1 541      0.054000
      9 C6         -0.8330    1.1020    3.5970 c3        1 541     -0.144000
     10 C7          0.1140    0.0100    3.2470 c2        1 541     -0.087000
     11 C8          0.9090   -0.5790    4.1680 c2        1 541     -0.035000
     12 C9          1.6290   -0.8250    6.3740 c2        1 541      0.067000
     13 O2          0.8280   -0.1240    5.4860 os        1 541     -0.161000
     14 C10        -0.1180   -2.9560    9.4670 c1        1 541     -0.151000
     15 C11         0.3320   -1.8730    9.7030 c1        1 541     -0.199000
     16 C12         0.8400   -0.5500    9.9530 c3        1 541      0.064000
     17 C13         1.7630   -0.0770    8.8700 c2        1 541     -0.104000
     18 C14         1.6830   -0.4360    7.6250 c1        1 541     -0.223000
     19 C15         1.8410    1.0270   11.6800 c3        1 541     -0.178000
     20 C16         1.4930   -0.4390   11.3490 c3        1 541     -0.043000
     21 C17         0.5850   -1.0340   12.4090 c3        1 541     -0.212000
     22 C18         2.8450   -1.1620   11.3740 c2        1 541      0.328000
     23 O3          3.0620   -2.3820   11.2910 o         1 541     -0.374000
     24 C19         3.3770    1.1150   11.7550 c3        1 541     -0.042000
     25 C23         5.2500   -0.4430   11.2260 c3        1 541      0.050000
     26 C24         6.0480   -1.3090   12.2230 c2        1 541      0.229000
     27 N2          5.3970   -2.6210   12.6490 n4        1 541     -0.001000
     28 O1          6.2470   -3.5380   13.1580 oh        1 541     -0.209000
     29 O4          7.1560   -1.0970   12.6790 o         1 541     -0.169000
     30 C25         5.4650   -1.0680    9.8450 c3        1 541     -0.264000
     31 N3          3.8930   -0.2480   11.6370 n         1 541     -0.366000
     32 H20        -0.3390    0.5960   -1.1650 hc        1 541      0.153000
     33 H1         -1.6100   -0.6450   -0.8270 hc        1 541      0.153000
     34 H2          0.4430   -1.7050   -1.8350 ha        1 541      0.136000
     35 H3          1.8930   -2.7080   -0.0540 ha        1 541      0.147000
     36 H41        -3.3420    2.2810    3.5450 hc        1 541      0.104667
     37 H42        -3.1820    3.0680    1.9150 hc        1 541      0.104667
     38 H43        -2.0530    3.5330    3.2610 hc        1 541      0.104667
     39 H6         -0.2590    1.9680    4.0320 hc        1 541      0.119000
     40 H81        -1.5350    0.7450    4.4020 hc        1 541      0.119000
     41 H82         1.6160   -1.3900    3.9300 h4        1 541      0.190000
     42 H10         2.1930   -1.6880    5.9800 h4        1 541      0.163000
     43 H11        -0.5210   -3.9160    9.2570 ha        1 541      0.234000
     44 H13        -0.0480    0.1610    9.9690 hc        1 541      0.137000
     45 H14         2.5250    0.6570    9.1890 ha        1 541      0.115000
     46 H151        1.4510    1.7250   10.8970 hc        1 541      0.124000
     47 H152        1.3910    1.3270   12.6590 hc        1 541      0.124000
     48 H171        1.0220   -0.8960   13.4270 hc        1 541      0.101333
     49 H172       -0.4110   -0.5300   12.3760 hc        1 541      0.101333
     50 H173        0.4400   -2.1270   12.2230 hc        1 541      0.101333
     51 H191        3.7090    1.5400   12.7410 h1        1 541      0.106500
     52 H192        3.7760    1.7680   10.9310 h1        1 541      0.106500
     53 H23         5.7830    0.5640   11.2560 h1        1 541      0.172000
     54 HN2         4.9410   -3.0710   11.8130 hn        1 541      0.296000
     55 HO1         6.9710   -3.0740   13.6450 ho        1 541      0.277000
     56 H251        6.5570   -1.2210    9.6630 hc        1 541      0.124000
     57 H252        4.9280   -2.0420    9.7390 hc        1 541      0.124000
     58 H253        5.0720   -0.3690    9.0630 hc        1 541      0.124000
     59 C4         -2.6130    2.6830    2.7970 c3        1 541     -0.198000
     60 H22         4.6410   -2.4260   13.3350 hn        1 541      0.296000
@<TRIPOS>BOND
     1    1    2 1   
     2    1    6 1   
     3    1   32 1   
     4    1   33 1   
     5    2    3 1   
     6    2   34 1   
     7    3    4 1   
     8    3   35 1   
     9    4    5 1   
    10    5    6 1   
    11    5   10 1   
    12    6    7 1   
    13    7    8 1   
    14    8    9 1   
    15    8   59 1   
    16    9   10 1   
    17    9   39 1   
    18    9   40 1   
    19   10   11 1   
    20   11   13 1   
    21   11   41 1   
    22   12   13 1   
    23   12   18 1   
    24   12   42 1   
    25   14   15 1   
    26   14   43 1   
    27   15   16 1   
    28   16   17 1   
    29   16   20 1   
    30   16   44 1   
    31   17   18 1   
    32   17   45 1   
    33   19   20 1   
    34   19   24 1   
    35   19   46 1   
    36   19   47 1   
    37   20   21 1   
    38   20   22 1   
    39   21   48 1   
    40   21   49 1   
    41   21   50 1   
    42   22   23 1   
    43   22   31 1   
    44   24   31 1   
    45   24   51 1   
    46   24   52 1   
    47   25   26 1   
    48   25   30 1   
    49   25   31 1   
    50   25   53 1   
    51   26   27 1   
    52   26   29 1   
    53   27   28 1   
    54   27   54 1   
    55   27   60 1   
    56   28   55 1   
    57   30   56 1   
    58   30   57 1   
    59   30   58 1   
    60   36   59 1   
    61   37   59 1   
    62   38   59 1   
@<TRIPOS>SUBSTRUCTURE
     1 541         1 TEMP              0 ****  ****    0 ROOT
