@<TRIPOS>MOLECULE
541
   59    62     1     0     0
SMALL
bcc


@<TRIPOS>ATOM
      1 C20        -7.6760    1.9800    0.3240 ca        1 541     -0.161300
      2 C1         -7.2180    3.0710    1.0190 ca        1 541     -0.126000
      3 C2         -5.8550    3.1790    1.3770 ca        1 541     -0.123000
      4 C3         -4.9670    2.1890    1.0300 ca        1 541     -0.120000
      5 C21        -5.4010    1.0460    0.3120 ca        1 541     -0.143300
      6 C22        -6.7770    0.9290   -0.0530 ca        1 541      0.401600
      7 N1         -7.2710   -0.1540   -0.7540 nb        1 541     -0.661000
      8 C5         -6.4250   -1.1180   -1.0960 ca        1 541      0.430600
      9 C6         -5.0240   -1.0840   -0.7690 ca        1 541     -0.220300
     10 C7         -4.5190   -0.0150   -0.0730 ca        1 541     -0.047300
     11 C8         -3.0770    0.0890    0.3010 c3        1 541      0.168700
     12 C9         -1.0400   -1.1210    0.0530 ca        1 541      0.134100
     13 O2         -2.4020   -1.0840   -0.1770 os        1 541     -0.327900
     14 C10        -0.3860   -2.2460   -0.4830 ca        1 541     -0.179000
     15 C11         0.9840   -2.3910   -0.3030 ca        1 541     -0.083500
     16 C12         1.7220   -1.4350    0.4090 ca        1 541     -0.106300
     17 C13         1.0540   -0.3200    0.9300 ca        1 541     -0.083500
     18 C14        -0.3190   -0.1530    0.7600 ca        1 541     -0.179000
     19 C15         3.5660   -1.3810    2.1130 c3        1 541     -0.093400
     20 C16         3.1990   -1.5700    0.6230 c3        1 541     -0.056700
     21 C17         3.7740   -2.8720    0.0970 c3        1 541     -0.088100
     22 C18         3.9270   -0.4060   -0.0960 c         1 541      0.708500
     23 O3          3.9990   -0.2460   -1.3250 o         1 541     -0.632500
     24 C19         4.3720   -0.0710    2.2000 c3        1 541      0.090000
     25 C23         5.3170    1.5970    0.5810 c3        1 541      0.059700
     26 C24         6.7060    1.2330    0.0010 c         1 541      0.577100
     27 N2          6.7850    0.9100   -1.3740 n         1 541     -0.362400
     28 O1          7.8770    0.2360   -1.7400 oh        1 541     -0.431100
     29 O4          7.7250    1.3570    0.7000 o         1 541     -0.571100
     30 C25         4.6400    2.6300   -0.3180 c3        1 541     -0.111100
     31 N3          4.5260    0.4260    0.8450 n         1 541     -0.489800
     32 H20        -8.7390    1.8960    0.0450 ha        1 541      0.152000
     33 H1         -7.9110    3.8760    1.3070 ha        1 541      0.137000
     34 H2         -5.5160    4.0650    1.9330 ha        1 541      0.134000
     35 H3         -3.9060    2.2770    1.3090 ha        1 541      0.128000
     36 H41        -6.6900   -3.2360   -1.2610 hc        1 541      0.056367
     37 H42        -8.0000   -2.2730   -2.0690 hc        1 541      0.056367
     38 H43        -6.3530   -2.3760   -2.8260 hc        1 541      0.056367
     39 H6         -4.3820   -1.9190   -1.0850 ha        1 541      0.161000
     40 H81        -2.9700    0.1440    1.4190 h1        1 541      0.057200
     41 H82        -2.6180    1.0000   -0.1730 h1        1 541      0.057200
     42 H10        -0.9660   -2.9950   -1.0410 ha        1 541      0.144500
     43 H11         1.4800   -3.2730   -0.7380 ha        1 541      0.138000
     44 H13         1.6230    0.4460    1.4820 ha        1 541      0.138000
     45 H14        -0.8110    0.7340    1.1810 ha        1 541      0.144500
     46 H151        4.1840   -2.2380    2.4780 hc        1 541      0.066700
     47 H152        2.6510   -1.3190    2.7510 hc        1 541      0.066700
     48 H171        3.2660   -3.7410    0.5790 hc        1 541      0.052367
     49 H172        3.6430   -2.9310   -1.0120 hc        1 541      0.052367
     50 H173        4.8670   -2.9280    0.3230 hc        1 541      0.052367
     51 H191        5.3810   -0.2480    2.6640 h1        1 541      0.051700
     52 H192        3.8270    0.6920    2.8220 h1        1 541      0.051700
     53 H23         5.5320    2.0870    1.5820 h1        1 541      0.086700
     54 HN2         5.9680    0.4300   -1.7430 hn        1 541      0.337500
     55 HO1         8.6090    0.8850   -1.7280 ho        1 541      0.429000
     56 H251        5.3690    3.4450   -0.5430 hc        1 541      0.058700
     57 H252        4.2950    2.1750   -1.2780 hc        1 541      0.058700
     58 H253        3.7570    3.0700    0.2040 hc        1 541      0.058700
     59 C4         -6.9040   -2.3140   -1.8560 c3        1 541     -0.154400
@<TRIPOS>BOND
     1    1    2 ar  
     2    1    6 ar  
     3    1   32 1   
     4    2    3 ar  
     5    2   33 1   
     6    3    4 ar  
     7    3   34 1   
     8    4    5 ar  
     9    4   35 1   
    10    5    6 ar  
    11    5   10 ar  
    12    6    7 ar  
    13    7    8 ar  
    14    8    9 ar  
    15    8   59 1   
    16    9   10 ar  
    17    9   39 1   
    18   10   11 1   
    19   11   13 1   
    20   11   40 1   
    21   11   41 1   
    22   12   13 1   
    23   12   14 ar  
    24   12   18 ar  
    25   14   15 ar  
    26   14   42 1   
    27   15   16 ar  
    28   15   43 1   
    29   16   17 ar  
    30   16   20 1   
    31   17   18 ar  
    32   17   44 1   
    33   18   45 1   
    34   19   20 1   
    35   19   24 1   
    36   19   46 1   
    37   19   47 1   
    38   20   21 1   
    39   20   22 1   
    40   21   48 1   
    41   21   49 1   
    42   21   50 1   
    43   22   23 2   
    44   22   31 1   
    45   24   31 1   
    46   24   51 1   
    47   24   52 1   
    48   25   26 1   
    49   25   30 1   
    50   25   31 1   
    51   25   53 1   
    52   26   27 1   
    53   26   29 2   
    54   27   28 1   
    55   27   54 1   
    56   28   55 1   
    57   30   56 1   
    58   30   57 1   
    59   30   58 1   
    60   36   59 1   
    61   37   59 1   
    62   38   59 1   
@<TRIPOS>SUBSTRUCTURE
     1 541         1 TEMP              0 ****  ****    0 ROOT
