@<TRIPOS>MOLECULE
541
   59    56     1     0     0
SMALL
bcc


@<TRIPOS>ATOM
      1 C20        -3.7450    3.4230   -6.4600 c1        1 541     -0.097000
      2 C1         -3.7660    4.5910   -5.7040 c1        1 541     -0.124500
      3 C2         -3.1010    4.6410   -4.4750 c1        1 541     -0.124500
      4 C3         -2.4210    3.5260   -4.0080 c1        1 541     -0.119000
      5 C21        -2.3990    2.3350   -4.7770 c1        1 541     -0.078000
      6 C22        -3.0520    2.2870   -5.9850 c1        1 541      0.008000
      7 N1         -3.0270    1.1100   -6.7490 n2        1 541     -0.135000
      8 C4         -2.3740   -1.2030   -7.2230 c3        1 541     -0.177000
      9 C5         -2.3470   -0.0020   -6.2910 c2        1 541      0.007000
     10 C6         -1.6790    0.0410   -5.0610 c2        1 541     -0.156000
     11 C7         -1.7000    1.1930   -4.3060 c2        1 541     -0.038000
     12 C8         -1.0110    1.2630   -2.9430 c3        1 541      0.010000
     13 C9          0.2190   -0.0390   -1.3910 c1        1 541      0.088000
     14 O2         -0.4100    0.0030   -2.6440 o         1 541     -0.213000
     15 C10        -0.5570   -0.0810   -0.2130 c2        1 541     -0.201000
     16 C11         0.0750   -0.1730    1.0470 c1        1 541     -0.077000
     17 C12         1.4710   -0.2220    1.1290 c1        1 541     -0.105000
     18 C13         2.2510   -0.1800   -0.0480 c1        1 541     -0.095000
     19 C14         1.6200   -0.0890   -1.3090 c1        1 541     -0.156000
     20 C15         2.8100   -1.5560    2.4560 c3        1 541     -0.172000
     21 C16         2.1140   -0.2530    2.4170 c3        1 541     -0.012000
     22 C17         2.9190    1.0070    2.4450 c3        1 541     -0.202000
     23 C18         1.0170   -0.4170    3.3780 c2        1 541      0.315000
     24 O3          0.0150    0.3230    3.4920 o         1 541     -0.371000
     25 C19         2.2300   -2.3300    3.6170 c3        1 541     -0.025000
     26 C23         0.8730   -1.6990    5.6060 c3        1 541      0.029000
     27 C24         1.7550   -2.7120    6.3710 c2        1 541      0.217000
     28 N2          1.1730   -3.9610    6.8750 n         1 541     -0.205000
     29 O1          1.9250   -4.8000    7.6320 oh        1 541     -0.239000
     30 O4          2.9430   -2.4420    6.6070 o         1 541     -0.323000
     31 C25         0.8060   -0.4060    6.3860 c3        1 541     -0.217000
     32 N3          1.4370   -1.4580    4.3240 n         1 541     -0.340000
     33 H20        -4.2280    3.3870   -7.3500 ha        1 541      0.151000
     34 H1         -4.2500    5.3850   -6.0340 ha        1 541      0.135500
     35 H2         -3.1160    5.4770   -3.9340 ha        1 541      0.135500
     36 H3         -1.9430    3.5630   -3.1260 ha        1 541      0.129000
     37 H41        -1.4650   -1.5120   -7.3790 hc        1 541      0.095333
     38 H42        -2.7780   -0.9500   -8.0640 hc        1 541      0.095333
     39 H43        -2.8830   -1.9020   -6.8240 hc        1 541      0.095333
     40 H6         -1.1820   -0.7750   -4.7280 ha        1 541      0.160000
     41 H81        -1.6810    1.4830   -2.2460 h1        1 541      0.098000
     42 H82        -0.2950    1.9830   -2.9630 h1        1 541      0.098000
     43 H10        -1.5440   -0.0460   -0.2690 ha        1 541      0.141000
     44 H11        -0.4470   -0.2010    1.8380 ha        1 541      0.156000
     45 H13         3.2360   -0.2160    0.0100 ha        1 541      0.133000
     46 H14         2.1530   -0.0590   -2.1150 ha        1 541      0.150000
     47 H151        3.7940   -1.4170    2.5940 hc        1 541      0.104500
     48 H152        2.6560   -2.0370    1.6300 hc        1 541      0.104500
     49 H171        2.3270    1.7790    2.2730 hc        1 541      0.090333
     50 H172        3.3410    1.1090    3.3340 hc        1 541      0.090333
     51 H173        3.6190    0.9670    1.7510 hc        1 541      0.090333
     52 H191        1.7010   -3.0630    3.2920 h1        1 541      0.093500
     53 H192        2.9380   -2.6600    4.1800 h1        1 541      0.093500
     54 H23        -0.0600   -2.0760    5.4990 h1        1 541      0.129000
     55 HN2         0.2680   -4.1750    6.6860 hn        1 541      0.244000
     56 HO1         1.3830   -5.3710    8.0810 ho        1 541      0.229000
     57 H251        0.0610   -0.4400    6.9980 hc        1 541      0.096000
     58 H252        1.6380   -0.2850    6.8900 hc        1 541      0.096000
     59 H253        0.6890    0.3330    5.7780 hc        1 541      0.096000
@<TRIPOS>BOND
     1    1    6 1   
     2    1   33 1   
     3    2    3 1   
     4    2   34 1   
     5    3   35 1   
     6    4    5 1   
     7    4   36 1   
     8    5   11 1   
     9    6    7 1   
    10    7    9 1   
    11    8    9 1   
    12    8   37 1   
    13    8   38 1   
    14    8   39 1   
    15    9   10 1   
    16   10   11 1   
    17   10   40 1   
    18   11   12 1   
    19   12   14 1   
    20   12   41 1   
    21   12   42 1   
    22   13   15 1   
    23   13   19 1   
    24   15   16 1   
    25   15   43 1   
    26   16   44 1   
    27   17   18 1   
    28   17   21 1   
    29   18   45 1   
    30   19   46 1   
    31   20   21 1   
    32   20   25 1   
    33   20   47 1   
    34   20   48 1   
    35   21   22 1   
    36   21   23 1   
    37   22   49 1   
    38   22   50 1   
    39   22   51 1   
    40   23   24 1   
    41   23   32 1   
    42   25   32 1   
    43   25   52 1   
    44   25   53 1   
    45   26   27 1   
    46   26   31 1   
    47   26   32 1   
    48   26   54 1   
    49   27   28 1   
    50   27   30 1   
    51   28   29 1   
    52   28   55 1   
    53   29   56 1   
    54   31   57 1   
    55   31   58 1   
    56   31   59 1   
@<TRIPOS>SUBSTRUCTURE
     1 541         1 TEMP              0 ****  ****    0 ROOT
