@<TRIPOS>MOLECULE
541
   60    62     1     0     0
SMALL
bcc


@<TRIPOS>ATOM
      1 C20        -0.0990   -0.7780   -0.3890 c3        1 541     -0.140000
      2 C1          1.1550   -1.5360   -0.5720 c2        1 541     -0.077000
      3 C2          1.9910   -1.8190    0.4540 c2        1 541     -0.200000
      4 C3          1.7250   -1.4060    1.7930 c1        1 541     -0.105000
      5 C21         0.5270   -0.6710    2.0300 c2        1 541     -0.151000
      6 C22        -0.3670   -0.3510    1.0200 c2        1 541      0.060000
      7 N1         -1.5520    0.3720    1.2260 n2        1 541     -0.183000
      8 C5         -1.8400    0.7750    2.4330 c2        1 541      0.056000
      9 C6         -1.0000    0.5330    3.6580 c3        1 541     -0.146000
     10 C7          0.2410   -0.2420    3.3940 c2        1 541     -0.083000
     11 C8          1.1120   -0.5640    4.3760 c2        1 541     -0.040000
     12 C9          1.7600   -0.5220    6.6170 c2        1 541      0.065000
     13 O2          0.8190   -0.1410    5.6740 os        1 541     -0.156000
     14 C10        -1.6100    0.5460   10.6070 c1        1 541     -0.151000
     15 C11        -0.5410    0.0460   10.4110 c1        1 541     -0.201000
     16 C12         0.7270   -0.5740   10.1250 c3        1 541      0.059000
     17 C13         1.4800    0.2260    9.1010 c2        1 541     -0.096000
     18 C14         1.6050   -0.1400    7.8610 c1        1 541     -0.236000
     19 C15         1.8480    0.5810   12.1280 c3        1 541     -0.173000
     20 C16         1.5510   -0.7530   11.4190 c3        1 541     -0.042000
     21 C17         0.8560   -1.7350   12.3440 c3        1 541     -0.213000
     22 C18         2.9350   -1.3050   11.0540 c2        1 541      0.324000
     23 O3          3.1980   -2.4110   10.5500 o         1 541     -0.386000
     24 C19         3.3710    0.7950   12.0540 c3        1 541     -0.040000
     25 C23         5.2700   -0.3750   10.9320 c3        1 541      0.052000
     26 C24         6.2010   -1.4370   11.5540 c2        1 541      0.228000
     27 N2          5.6680   -2.8660   11.5830 ny        1 541     -0.001000
     28 O1          6.6140   -3.8210   11.7060 oh        1 541     -0.208000
     29 O4          7.3290   -1.2850   11.9850 o         1 541     -0.167000
     30 C25         5.3940   -0.5330    9.4150 c3        1 541     -0.264000
     31 N3          3.9490   -0.4200   11.4780 n         1 541     -0.362000
     32 H20        -0.9650   -1.4080   -0.7520 hc        1 541      0.154000
     33 H1         -0.0750    0.1370   -1.0520 hc        1 541      0.154000
     34 H2          1.3630   -1.8580   -1.6060 ha        1 541      0.136000
     35 H3          2.9200   -2.3880    0.2840 ha        1 541      0.146000
     36 H41        -2.8190    2.5350    3.1570 hc        1 541      0.105333
     37 H42        -3.6970    1.7300    1.7850 hc        1 541      0.105333
     38 H43        -3.7170    0.9790    3.4390 hc        1 541      0.105333
     39 H6         -1.6250   -0.0100    4.4220 hc        1 541      0.121000
     40 H81        -0.7300    1.5280    4.1120 hc        1 541      0.121000
     41 H82         2.0370   -1.1390    4.2020 h4        1 541      0.188000
     42 H10         2.6070   -1.1370    6.2690 h4        1 541      0.156000
     43 H11        -2.5610    0.9870   10.7810 ha        1 541      0.236000
     44 H13         0.5300   -1.6120    9.7130 hc        1 541      0.139000
     45 H14         1.9030    1.1820    9.4600 ha        1 541      0.128000
     46 H151        1.3100    1.4270   11.6320 hc        1 541      0.127000
     47 H152        1.5160    0.5440   13.1960 hc        1 541      0.127000
     48 H171       -0.1770   -1.3690   12.5670 hc        1 541      0.101000
     49 H172        0.7830   -2.7390   11.8560 hc        1 541      0.101000
     50 H173        1.4140   -1.8390   13.3050 hc        1 541      0.101000
     51 H191        3.8090    0.9520   13.0770 h1        1 541      0.106500
     52 H192        3.6140    1.6900   11.4180 h1        1 541      0.106500
     53 H23         5.7470    0.6150   11.2340 h1        1 541      0.173000
     54 HN2         4.9730   -2.9620   12.3480 hn        1 541      0.295000
     55 HO1         7.3500   -3.4780   12.2690 ho        1 541      0.277000
     56 H251        6.4720   -0.5530    9.1210 hc        1 541      0.124000
     57 H252        4.8890   -1.4610    9.0500 hc        1 541      0.124000
     58 H253        4.9100    0.3450    8.9150 hc        1 541      0.124000
     59 C4         -3.0920    1.5480    2.7070 c3        1 541     -0.198000
     60 H22         5.1600   -3.0670   10.6820 hn        1 541      0.295000
@<TRIPOS>BOND
     1    1    2 1   
     2    1    6 1   
     3    1   32 1   
     4    1   33 1   
     5    2    3 1   
     6    2   34 1   
     7    3    4 1   
     8    3   35 1   
     9    4    5 1   
    10    5    6 1   
    11    5   10 1   
    12    6    7 1   
    13    7    8 1   
    14    8    9 1   
    15    8   59 1   
    16    9   10 1   
    17    9   39 1   
    18    9   40 1   
    19   10   11 1   
    20   11   13 1   
    21   11   41 1   
    22   12   13 1   
    23   12   18 1   
    24   12   42 1   
    25   14   15 1   
    26   14   43 1   
    27   15   16 1   
    28   16   17 1   
    29   16   20 1   
    30   16   44 1   
    31   17   18 1   
    32   17   45 1   
    33   19   20 1   
    34   19   24 1   
    35   19   46 1   
    36   19   47 1   
    37   20   21 1   
    38   20   22 1   
    39   21   48 1   
    40   21   49 1   
    41   21   50 1   
    42   22   23 1   
    43   22   31 1   
    44   24   31 1   
    45   24   51 1   
    46   24   52 1   
    47   25   26 1   
    48   25   30 1   
    49   25   31 1   
    50   25   53 1   
    51   26   27 1   
    52   26   29 1   
    53   27   28 1   
    54   27   54 1   
    55   27   60 1   
    56   28   55 1   
    57   30   56 1   
    58   30   57 1   
    59   30   58 1   
    60   36   59 1   
    61   37   59 1   
    62   38   59 1   
@<TRIPOS>SUBSTRUCTURE
     1 541         1 TEMP              0 ****  ****    0 ROOT
