@<TRIPOS>MOLECULE
541
   60    62     1     0     0
SMALL
bcc


@<TRIPOS>ATOM
      1 C20        -0.5260   -0.2880   -0.5000 c3        1 541     -0.139000
      2 C1          0.5040   -1.3090   -0.7780 c2        1 541     -0.078000
      3 C2          1.3060   -1.8150    0.1880 c2        1 541     -0.200000
      4 C3          1.2170   -1.4020    1.5500 c1        1 541     -0.102000
      5 C21         0.2400   -0.4170    1.8770 c2        1 541     -0.149000
      6 C22        -0.6100    0.1380    0.9320 c2        1 541      0.057000
      7 N1         -1.5810    1.1060    1.2280 n2        1 541     -0.182000
      8 C5         -1.6980    1.5220    2.4590 c2        1 541      0.054000
      9 C6         -0.8660    1.0540    3.6210 c3        1 541     -0.144000
     10 C7          0.1360    0.0150    3.2660 c2        1 541     -0.086000
     11 C8          0.9560   -0.5420    4.1860 c2        1 541     -0.035000
     12 C9          1.6770   -0.7740    6.3930 c2        1 541      0.067000
     13 O2          0.8460   -0.1050    5.5070 os        1 541     -0.161000
     14 C10        -0.0500   -2.9780    9.4240 c1        1 541     -0.151000
     15 C11         0.3790   -1.8930    9.6880 c1        1 541     -0.199000
     16 C12         0.8620   -0.5680    9.9720 c3        1 541      0.064000
     17 C13         1.7650   -0.0430    8.8960 c2        1 541     -0.104000
     18 C14         1.7080   -0.3940    7.6470 c1        1 541     -0.223000
     19 C15         1.8390    0.9810   11.7380 c3        1 541     -0.178000
     20 C16         1.5260   -0.4830   11.3640 c3        1 541     -0.043000
     21 C17         0.6440   -1.1340   12.4140 c3        1 541     -0.212000
     22 C18         2.8960   -1.1710   11.3530 c2        1 541      0.328000
     23 O3          3.1420   -2.3820   11.2310 o         1 541     -0.374000
     24 C19         3.3730    1.1070   11.7970 c3        1 541     -0.042000
     25 C23         5.2800   -0.3870   11.2020 c3        1 541      0.050000
     26 C24         6.1110   -1.2610   12.1660 c2        1 541      0.229000
     27 N2          5.4980   -2.6010   12.5580 n4        1 541     -0.001000
     28 O1          6.3770   -3.5100   13.0310 oh        1 541     -0.209000
     29 O4          7.2170   -1.0330   12.6190 o         1 541     -0.169000
     30 C25         5.4970   -0.9650    9.8020 c3        1 541     -0.264000
     31 N3          3.9240   -0.2390   11.6330 n         1 541     -0.366000
     32 H20        -0.3250    0.6200   -1.1420 hc        1 541      0.153000
     33 H1         -1.5330   -0.6870   -0.8230 hc        1 541      0.153000
     34 H2          0.5760   -1.6310   -1.8300 ha        1 541      0.136000
     35 H3          2.0660   -2.5770   -0.0520 ha        1 541      0.147000
     36 H41        -3.4320    2.1040    3.5680 hc        1 541      0.104667
     37 H42        -2.2070    3.4230    3.3020 hc        1 541      0.104667
     38 H43        -3.3050    2.9140    1.9470 hc        1 541      0.104667
     39 H6         -0.3390    1.9440    4.0680 hc        1 541      0.119500
     40 H81        -1.5520    0.6550    4.4200 hc        1 541      0.119500
     41 H82         1.7040   -1.3130    3.9430 h4        1 541      0.190000
     42 H10         2.2840   -1.6050    5.9940 h4        1 541      0.163000
     43 H11        -0.4350   -3.9390    9.1890 ha        1 541      0.234000
     44 H13        -0.0400    0.1250   10.0150 hc        1 541      0.137000
     45 H14         2.4890    0.7260    9.2240 ha        1 541      0.116000
     46 H151        1.4220    1.6930   10.9840 hc        1 541      0.124000
     47 H152        1.3950    1.2370   12.7320 hc        1 541      0.124000
     48 H171       -0.3650   -0.6550   12.4050 hc        1 541      0.101333
     49 H172        1.0870   -1.0150   13.4310 hc        1 541      0.101333
     50 H173        0.5260   -2.2240   12.1950 hc        1 541      0.101333
     51 H191        3.7070    1.5120   12.7910 h1        1 541      0.106500
     52 H192        3.7460    1.7940   10.9870 h1        1 541      0.106500
     53 H23         5.7870    0.6320   11.2570 h1        1 541      0.172000
     54 HN2         4.7440   -2.4470   13.2570 hn        1 541      0.296000
     55 HO1         7.0930   -3.0430   13.5250 ho        1 541      0.277000
     56 H251        6.5900   -1.0850    9.6060 hc        1 541      0.124000
     57 H252        5.0790   -0.2530    9.0450 hc        1 541      0.124000
     58 H253        4.9830   -1.9490    9.6720 hc        1 541      0.124000
     59 C4         -2.7210    2.5500    2.8280 c3        1 541     -0.198000
     60 H22         5.0450   -3.0380   11.7130 hn        1 541      0.296000
@<TRIPOS>BOND
     1    1    2 1   
     2    1    6 1   
     3    1   32 1   
     4    1   33 1   
     5    2    3 1   
     6    2   34 1   
     7    3    4 1   
     8    3   35 1   
     9    4    5 1   
    10    5    6 1   
    11    5   10 1   
    12    6    7 1   
    13    7    8 1   
    14    8    9 1   
    15    8   59 1   
    16    9   10 1   
    17    9   39 1   
    18    9   40 1   
    19   10   11 1   
    20   11   13 1   
    21   11   41 1   
    22   12   13 1   
    23   12   18 1   
    24   12   42 1   
    25   14   15 1   
    26   14   43 1   
    27   15   16 1   
    28   16   17 1   
    29   16   20 1   
    30   16   44 1   
    31   17   18 1   
    32   17   45 1   
    33   19   20 1   
    34   19   24 1   
    35   19   46 1   
    36   19   47 1   
    37   20   21 1   
    38   20   22 1   
    39   21   48 1   
    40   21   49 1   
    41   21   50 1   
    42   22   23 1   
    43   22   31 1   
    44   24   31 1   
    45   24   51 1   
    46   24   52 1   
    47   25   26 1   
    48   25   30 1   
    49   25   31 1   
    50   25   53 1   
    51   26   27 1   
    52   26   29 1   
    53   27   28 1   
    54   27   54 1   
    55   27   60 1   
    56   28   55 1   
    57   30   56 1   
    58   30   57 1   
    59   30   58 1   
    60   36   59 1   
    61   37   59 1   
    62   38   59 1   
@<TRIPOS>SUBSTRUCTURE
     1 541         1 TEMP              0 ****  ****    0 ROOT
