@<TRIPOS>MOLECULE
542
   64    68     1     0     0
SMALL
bcc


@<TRIPOS>ATOM
      1 F30         1.0710   -6.7790    0.4670 f         1 542     -0.138900
      2 C29         1.6010   -5.5360    0.3810 ca        1 542      0.128900
      3 C26         2.9820   -5.3740    0.1700 ca        1 542     -0.171000
      4 C25         3.5160   -4.0940    0.0850 ca        1 542     -0.095000
      5 C28         0.7670   -4.4090    0.5020 ca        1 542     -0.171000
      6 C27         1.3170   -3.1350    0.4080 ca        1 542     -0.095000
      7 C24         2.6930   -2.9640    0.2010 cp        1 542     -0.054000
      8 C22         3.2710   -1.6230    0.1110 cp        1 542     -0.040000
      9 C21         2.6340   -0.6280   -0.6340 ca        1 542     -0.097000
     10 C23         4.4740   -1.3390    0.7730 ca        1 542     -0.106000
     11 C33         5.0320   -0.0650    0.6720 ca        1 542      0.097100
     12 O34         6.2080    0.1630    1.3460 oh        1 542     -0.493100
     13 C31         4.3910    0.9430   -0.0920 ca        1 542      0.113100
     14 O32         5.0330    2.1550   -0.0970 oh        1 542     -0.527100
     15 C20         3.1760    0.6600   -0.7350 ca        1 542     -0.185600
     16 C18         2.5030    1.7190   -1.5380 c         1 542      0.682700
     17 O19         3.1630    2.6130   -2.1200 o         1 542     -0.643100
     18 N17         1.1290    1.7070   -1.6090 n         1 542     -0.561900
     19 C16         0.3870    2.6640   -2.3870 c3        1 542      0.114200
     20 C15        -0.8200    3.2050   -1.6860 c2        1 542     -0.144200
     21 C14        -0.8110    3.6810   -0.4380 c2        1 542     -0.215200
     22 C6         -2.0420    4.1950    0.2320 c3        1 542      0.130300
     23 C4         -1.9440    4.1420    1.7740 c3        1 542      0.080100
     24 O5         -2.1950    5.3960    2.3740 oh        1 542     -0.595800
     25 C2         -3.0540    3.1670    2.2310 c3        1 542      0.128100
     26 O3         -4.1750    3.7810    2.8260 oh        1 542     -0.580800
     27 O13        -3.1940    3.4270   -0.1510 os        1 542     -0.397600
     28 C1         -3.5840    2.5330    0.9000 c3        1 542      0.241800
     29 N10        -3.0820    1.1990    0.6750 na        1 542     -0.281000
     30 C9         -1.7300    0.7720    0.7130 cc        1 542      0.400700
     31 C11        -3.8030    0.1240    0.1220 ca        1 542      0.474800
     32 N40        -5.1320   -0.0110   -0.1590 nb        1 542     -0.726000
     33 C39        -5.4340   -1.2300   -0.6680 ca        1 542      0.687900
     34 N38        -4.6320   -2.2970   -0.9250 nb        1 542     -0.782000
     35 C35        -3.2960   -2.1770   -0.6280 ca        1 542      0.751200
     36 C12        -2.8180   -0.9300   -0.1000 ca        1 542     -0.234200
     37 N8         -1.5420   -0.4800    0.2770 nd        1 542     -0.562100
     38 N7         -2.4220   -3.2330   -0.7790 nh        1 542     -0.856900
     39 C36        -2.7910   -4.4470   -1.4400 c3        1 542      0.200100
     40 H26         3.6270   -6.2610    0.0760 ha        1 542      0.152000
     41 H25         4.5970   -3.9660   -0.0800 ha        1 542      0.150000
     42 H28        -0.3090   -4.5460    0.6830 ha        1 542      0.152000
     43 H27         0.6640   -2.2520    0.5110 ha        1 542      0.150000
     44 H21         1.7010   -0.8830   -1.1630 ha        1 542      0.145000
     45 H23         4.9860   -2.1070    1.3730 ha        1 542      0.161000
     46 HO34        6.5130    1.0590    1.1260 ho        1 542      0.442000
     47 HO32        4.7310    2.6800   -0.8600 ho        1 542      0.471000
     48 HN17        0.6130    1.0070   -1.1290 hn        1 542      0.325500
     49 H16         1.0700    3.5210   -2.6680 h1        1 542      0.073200
     50 H16A        0.0560    2.1650   -3.3460 h1        1 542      0.073200
     51 H15        -1.7530    3.1820   -2.2760 ha        1 542      0.150000
     52 H14         0.1160    3.7390    0.1540 ha        1 542      0.131000
     53 H6         -2.2690    5.2420   -0.1200 h1        1 542      0.094700
     54 H4         -0.9370    3.7660    2.1040 h1        1 542      0.055700
     55 HO5        -1.5540    6.0200    2.0110 ho        1 542      0.423000
     56 H2         -2.6380    2.4050    2.9430 h1        1 542      0.069700
     57 HO3        -3.8670    4.5330    3.3510 ho        1 542      0.436000
     58 H1         -4.7160    2.5130    0.8710 h2        1 542      0.151700
     59 H9         -0.9440    1.4440    1.0810 h5        1 542      0.068800
     60 H39        -6.5060   -1.3840   -0.9210 h5        1 542      0.056100
     61 HN7        -1.4510   -3.0200   -0.7090 hn        1 542      0.446800
     62 H36        -1.9540   -5.1850   -1.3180 h1        1 542      0.048700
     63 H36A       -3.7240   -4.8710   -0.9810 h1        1 542      0.048700
     64 H36B       -2.9790   -4.2830   -2.5360 h1        1 542      0.048700
@<TRIPOS>BOND
     1    1    2 1   
     2    2    3 ar  
     3    2    5 ar  
     4    3    4 ar  
     5    3   40 1   
     6    4    7 ar  
     7    4   41 1   
     8    5    6 ar  
     9    5   42 1   
    10    6    7 ar  
    11    6   43 1   
    12    7    8 1   
    13    8    9 ar  
    14    8   10 ar  
    15    9   15 ar  
    16    9   44 1   
    17   10   11 ar  
    18   10   45 1   
    19   11   12 1   
    20   11   13 ar  
    21   12   46 1   
    22   13   14 1   
    23   13   15 ar  
    24   14   47 1   
    25   15   16 1   
    26   16   17 2   
    27   16   18 1   
    28   18   19 1   
    29   18   48 1   
    30   19   20 1   
    31   19   49 1   
    32   19   50 1   
    33   20   21 2   
    34   20   51 1   
    35   21   22 1   
    36   21   52 1   
    37   22   23 1   
    38   22   27 1   
    39   22   53 1   
    40   23   24 1   
    41   23   25 1   
    42   23   54 1   
    43   24   55 1   
    44   25   26 1   
    45   25   28 1   
    46   25   56 1   
    47   26   57 1   
    48   27   28 1   
    49   28   29 1   
    50   28   58 1   
    51   29   30 1   
    52   29   31 1   
    53   30   37 2   
    54   30   59 1   
    55   31   32 ar  
    56   31   36 ar  
    57   32   33 ar  
    58   33   34 ar  
    59   33   60 1   
    60   34   35 ar  
    61   35   36 ar  
    62   35   38 1   
    63   36   37 1   
    64   38   39 1   
    65   38   61 1   
    66   39   62 1   
    67   39   63 1   
    68   39   64 1   
@<TRIPOS>SUBSTRUCTURE
     1 542         1 TEMP              0 ****  ****    0 ROOT
