@<TRIPOS>MOLECULE
542
   65    69     1     0     0
SMALL
bcc


@<TRIPOS>ATOM
      1 F30         7.1460    4.9880    4.9690 f         1 542     -0.118900
      2 C29         7.0110    4.0330    4.0240 ca        1 542      0.160900
      3 C26         7.9020    2.9410    3.9960 ca        1 542     -0.162500
      4 C25         7.7530    1.9620    3.0220 ca        1 542     -0.082500
      5 C28         5.9800    4.1290    3.0690 ca        1 542     -0.162500
      6 C27         5.8510    3.1420    2.0990 ca        1 542     -0.082500
      7 C24         6.7310    2.0510    2.0660 cp        1 542     -0.096000
      8 C22         6.5850    1.0170    1.0450 cp        1 542      0.001000
      9 C21         6.2980    1.3650   -0.2760 ca        1 542     -0.060000
     10 C23         6.7390   -0.3380    1.3860 ca        1 542     -0.106000
     11 C33         6.6070   -1.3170    0.4050 ca        1 542      0.059100
     12 O34         6.7400   -2.6670    0.6380 oh        1 542     -0.509100
     13 C31         6.3130   -0.9720   -0.9360 ca        1 542      0.149100
     14 O32         6.1980   -1.9300   -1.9120 oh        1 542     -0.542100
     15 C20         6.1500    0.3830   -1.2780 ca        1 542     -0.198600
     16 C18         5.8710    0.8820   -2.6230 c         1 542      0.585700
     17 O19         6.1030    2.0090   -3.0510 o         1 542     -0.443100
     18 N17         5.1790   -0.0310   -3.6060 ny        1 542     -0.675800
     19 C16         6.1410   -0.5260   -4.6440 c3        1 542      0.157000
     20 C15         5.4900   -1.3690   -5.6840 c2        1 542     -0.233200
     21 C14         4.6520   -0.9330   -6.6290 c2        1 542     -0.106200
     22 C6          4.1420    0.4630   -6.7530 c3        1 542      0.106300
     23 C4          2.7290    0.6100   -6.1270 c3        1 542      0.075100
     24 O5          2.8080    1.3400   -4.9240 oh        1 542     -0.637800
     25 C2          1.8780    1.2740   -7.2350 c3        1 542      0.089100
     26 O3          1.7690    2.6580   -7.0090 oh        1 542     -0.571800
     27 O13         4.0480    0.8350   -8.1300 os        1 542     -0.398600
     28 C1          2.6680    0.9660   -8.5460 c3        1 542      0.219800
     29 N10         2.1990   -0.1850   -9.2540 na        1 542     -0.299000
     30 C9          1.8490   -1.4650   -8.7300 cc        1 542      0.373700
     31 C11         2.3000   -0.3660  -10.6520 ca        1 542      0.484800
     32 N40         2.6160    0.5190  -11.6370 nb        1 542     -0.745000
     33 C39         2.5600   -0.0420  -12.8740 ca        1 542      0.705900
     34 N38         2.2460   -1.3060  -13.2450 nb        1 542     -0.776000
     35 C35         1.9290   -2.2110  -12.2530 ca        1 542      0.768200
     36 C12         1.9440   -1.7590  -10.8880 ca        1 542     -0.245200
     37 N8          1.6730   -2.4000   -9.6680 nd        1 542     -0.509100
     38 N7          1.6280   -3.5170  -12.5390 nu        1 542     -0.847900
     39 C36         1.5100   -4.0130  -13.8770 c3        1 542      0.202100
     40 H26         8.7070    2.8760    4.7440 ha        1 542      0.164500
     41 H25         8.4570    1.1150    2.9980 ha        1 542      0.138500
     42 H28         5.2870    4.9840    3.1000 ha        1 542      0.164500
     43 H27         5.0400    3.2180    1.3580 ha        1 542      0.138500
     44 H21         6.1950    2.4290   -0.5520 ha        1 542      0.175000
     45 H23         6.9610   -0.6220    2.4280 ha        1 542      0.170000
     46 HO34        6.9650   -2.7980    1.5730 ho        1 542      0.457000
     47 HO32        6.3800   -2.8040   -1.5210 ho        1 542      0.483000
     48 HN17        4.7690   -0.8340   -3.1150 hn        1 542      0.474300
     49 H16         6.9310   -1.1250   -4.1000 hx        1 542      0.113200
     50 H16A        6.6270    0.3810   -5.1120 hx        1 542      0.113200
     51 H15         5.8050   -2.4280   -5.6710 ha        1 542      0.165000
     52 H14         4.2890   -1.6230   -7.4160 ha        1 542      0.174000
     53 H6          4.8590    1.2060   -6.2980 h1        1 542      0.078700
     54 H4          2.3010   -0.3920   -5.8500 h1        1 542      0.085700
     55 HO5         2.4860    2.2440   -5.0740 ho        1 542      0.457000
     56 H2          0.8220    0.8920   -7.2420 h1        1 542      0.130700
     57 HO3         2.5790    3.0860   -7.3240 ho        1 542      0.422000
     58 H1          2.6750    1.8490   -9.2560 h2        1 542      0.148700
     59 H9          1.6980   -1.6120   -7.6560 h5        1 542      0.057800
     60 H39         2.8100    0.6430  -13.7150 h5        1 542      0.064100
     61 HN7         1.3150   -4.0890  -11.7890 hn        1 542      0.457800
     62 H36         2.4550   -3.8140  -14.4510 h1        1 542      0.054367
     63 H36A        1.3290   -5.1190  -13.8350 h1        1 542      0.054367
     64 H36B        0.6570   -3.5190  -14.4170 h1        1 542      0.054367
     65 H172        4.4230    0.4990   -4.0720 hn        1 542      0.474300
@<TRIPOS>BOND
     1    1    2 1   
     2    2    3 ar  
     3    2    5 ar  
     4    3    4 ar  
     5    3   40 1   
     6    4    7 ar  
     7    4   41 1   
     8    5    6 ar  
     9    5   42 1   
    10    6    7 ar  
    11    6   43 1   
    12    7    8 1   
    13    8    9 ar  
    14    8   10 ar  
    15    9   15 ar  
    16    9   44 1   
    17   10   11 ar  
    18   10   45 1   
    19   11   12 1   
    20   11   13 ar  
    21   12   46 1   
    22   13   14 1   
    23   13   15 ar  
    24   14   47 1   
    25   15   16 1   
    26   16   17 2   
    27   16   18 1   
    28   18   19 1   
    29   18   48 1   
    30   18   65 1   
    31   19   20 1   
    32   19   49 1   
    33   19   50 1   
    34   20   21 2   
    35   20   51 1   
    36   21   22 1   
    37   21   52 1   
    38   22   23 1   
    39   22   27 1   
    40   22   53 1   
    41   23   24 1   
    42   23   25 1   
    43   23   54 1   
    44   24   55 1   
    45   25   26 1   
    46   25   28 1   
    47   25   56 1   
    48   26   57 1   
    49   27   28 1   
    50   28   29 1   
    51   28   58 1   
    52   29   30 1   
    53   29   31 1   
    54   30   37 2   
    55   30   59 1   
    56   31   32 ar  
    57   31   36 ar  
    58   32   33 ar  
    59   33   34 ar  
    60   33   60 1   
    61   34   35 ar  
    62   35   36 ar  
    63   35   38 1   
    64   36   37 1   
    65   38   39 1   
    66   38   61 1   
    67   39   62 1   
    68   39   63 1   
    69   39   64 1   
@<TRIPOS>SUBSTRUCTURE
     1 542         1 TEMP              0 ****  ****    0 ROOT
