@<TRIPOS>MOLECULE
542
   65    69     1     0     0
SMALL
bcc


@<TRIPOS>ATOM
      1 F30         5.7810    5.3750    4.9460 f         1 542     -0.119900
      2 C29         5.9060    4.3980    4.0220 ca        1 542      0.159900
      3 C26         6.9350    3.4430    4.1430 ca        1 542     -0.162500
      4 C25         7.0530    2.4400    3.1890 ca        1 542     -0.082500
      5 C28         5.0070    4.3360    2.9390 ca        1 542     -0.162500
      6 C27         5.1440    3.3290    1.9920 ca        1 542     -0.082500
      7 C24         6.1640    2.3720    2.1070 cp        1 542     -0.096000
      8 C22         6.2990    1.3150    1.1080 cp        1 542      0.001000
      9 C21         6.1430    1.6030   -0.2500 ca        1 542     -0.060000
     10 C23         6.5930    0.0010    1.5070 ca        1 542     -0.107000
     11 C33         6.7280   -1.0000    0.5480 ca        1 542      0.059100
     12 O34         7.0150   -2.3150    0.8380 oh        1 542     -0.509100
     13 C31         6.5680   -0.7160   -0.8300 ca        1 542      0.148100
     14 O32         6.7160   -1.6920   -1.7830 oh        1 542     -0.541100
     15 C20         6.2660    0.5970   -1.2300 ca        1 542     -0.197600
     16 C18         6.1020    1.0330   -2.6170 c         1 542      0.585700
     17 O19         6.2580    2.1680   -3.0540 o         1 542     -0.441100
     18 N17         5.6420    0.0220   -3.6400 n4        1 542     -0.677800
     19 C16         6.7630   -0.3550   -4.5610 c3        1 542      0.157000
     20 C15         6.3440   -1.3050   -5.6270 c2        1 542     -0.234200
     21 C14         5.5620   -1.0110   -6.6710 c2        1 542     -0.106200
     22 C6          4.8870    0.2990   -6.9030 c3        1 542      0.109300
     23 C4          3.4260    0.2820   -6.3840 c3        1 542      0.117100
     24 O5          3.3040    1.0790   -5.2290 oh        1 542     -0.632800
     25 C2          2.5650    0.7330   -7.5800 c3        1 542      0.093100
     26 O3          2.2200    2.0880   -7.3840 oh        1 542     -0.604800
     27 O13         4.8670    0.5910   -8.3030 os        1 542     -0.390600
     28 C1          3.5230    0.6300   -8.8130 c3        1 542      0.237800
     29 N10         3.2760   -0.5230   -9.6410 na        1 542     -0.313000
     30 C9          4.2390   -1.3940  -10.2210 cc        1 542      0.407700
     31 C11         2.0570   -0.8130  -10.2830 ca        1 542      0.458800
     32 N40         0.8200   -0.2560  -10.1380 nb        1 542     -0.775000
     33 C39        -0.1050   -0.8350  -10.9450 ca        1 542      0.701900
     34 N38         0.0230   -1.8500  -11.8340 nb        1 542     -0.778000
     35 C35         1.2680   -2.4250  -11.9810 ca        1 542      0.766200
     36 C12         2.3570   -1.9070  -11.1960 ca        1 542     -0.232200
     37 N8          3.7210   -2.2330  -11.1240 nd        1 542     -0.524100
     38 N7          1.4780   -3.4820  -12.8270 nh        1 542     -0.845900
     39 C36         0.4650   -3.9920  -13.7010 c3        1 542      0.201100
     40 H26         7.6350    3.5020    4.9900 ha        1 542      0.164500
     41 H25         7.8650    1.7010    3.2810 ha        1 542      0.139000
     42 H28         4.2050    5.0840    2.8550 ha        1 542      0.164500
     43 H27         4.4360    3.2790    1.1510 ha        1 542      0.139000
     44 H21         5.9320    2.6390   -0.5700 ha        1 542      0.175000
     45 H23         6.7120   -0.2360    2.5770 ha        1 542      0.170000
     46 HO34        7.1320   -2.4010    1.7980 ho        1 542      0.456000
     47 HO32        6.9680   -2.5260   -1.3460 ho        1 542      0.482000
     48 HN17        5.2920   -0.8210   -3.1700 hn        1 542      0.474300
     49 H16         7.1630    0.6020   -5.0110 hx        1 542      0.113200
     50 H16A        7.5690   -0.8230   -3.9220 hx        1 542      0.113200
     51 H15         6.7890   -2.3120   -5.5370 ha        1 542      0.164000
     52 H14         5.3780   -1.7670   -7.4590 ha        1 542      0.169000
     53 H6          5.4650    1.1490   -6.4360 h1        1 542      0.080700
     54 H4          3.1220   -0.7520   -6.0590 h1        1 542      0.093700
     55 HO5         3.1320    1.9970   -5.4900 ho        1 542      0.461000
     56 H2          1.6510    0.0910   -7.6770 h1        1 542      0.111700
     57 HO3         1.4160    2.2570   -7.8940 ho        1 542      0.450000
     58 H1          3.4750    1.5740   -9.4390 h2        1 542      0.117700
     59 H9          5.2940   -1.3360   -9.9240 h5        1 542      0.079800
     60 H39        -1.1310   -0.4100  -10.8720 h5        1 542      0.059100
     61 HN7         2.4180   -3.7780  -12.9620 hn        1 542      0.459800
     62 H36         0.1620   -3.2230  -14.4620 h1        1 542      0.054033
     63 H36A       -0.4460   -4.2860  -13.1120 h1        1 542      0.054033
     64 H36B        0.8700   -4.8960  -14.2290 h1        1 542      0.054033
     65 H172        4.8750    0.4400   -4.1940 hn        1 542      0.474300
@<TRIPOS>BOND
     1    1    2 1   
     2    2    3 ar  
     3    2    5 ar  
     4    3    4 ar  
     5    3   40 1   
     6    4    7 ar  
     7    4   41 1   
     8    5    6 ar  
     9    5   42 1   
    10    6    7 ar  
    11    6   43 1   
    12    7    8 1   
    13    8    9 ar  
    14    8   10 ar  
    15    9   15 ar  
    16    9   44 1   
    17   10   11 ar  
    18   10   45 1   
    19   11   12 1   
    20   11   13 ar  
    21   12   46 1   
    22   13   14 1   
    23   13   15 ar  
    24   14   47 1   
    25   15   16 1   
    26   16   17 2   
    27   16   18 1   
    28   18   19 1   
    29   18   48 1   
    30   18   65 1   
    31   19   20 1   
    32   19   49 1   
    33   19   50 1   
    34   20   21 2   
    35   20   51 1   
    36   21   22 1   
    37   21   52 1   
    38   22   23 1   
    39   22   27 1   
    40   22   53 1   
    41   23   24 1   
    42   23   25 1   
    43   23   54 1   
    44   24   55 1   
    45   25   26 1   
    46   25   28 1   
    47   25   56 1   
    48   26   57 1   
    49   27   28 1   
    50   28   29 1   
    51   28   58 1   
    52   29   30 1   
    53   29   31 1   
    54   30   37 2   
    55   30   59 1   
    56   31   32 ar  
    57   31   36 ar  
    58   32   33 ar  
    59   33   34 ar  
    60   33   60 1   
    61   34   35 ar  
    62   35   36 ar  
    63   35   38 1   
    64   36   37 1   
    65   38   39 1   
    66   38   61 1   
    67   39   62 1   
    68   39   63 1   
    69   39   64 1   
@<TRIPOS>SUBSTRUCTURE
     1 542         1 TEMP              0 ****  ****    0 ROOT
