@<TRIPOS>MOLECULE
542
   64    56     1     0     0
SMALL
bcc


@<TRIPOS>ATOM
      1 F30        -7.8570    6.5190    2.7820 f         1 542     -0.102000
      2 C29        -6.8750    6.1750    1.9620 c2        1 542      0.098000
      3 C26        -5.7650    6.9930    1.8310 c2        1 542     -0.167000
      4 C25        -4.7320    6.6280    0.9790 c1        1 542     -0.095000
      5 C28        -6.9560    4.9980    1.2460 c1        1 542     -0.163000
      6 C27        -5.9240    4.6340    0.3960 c1        1 542     -0.113500
      7 C24        -4.8100    5.4540    0.2640 c1        1 542     -0.048500
      8 C22        -3.7950    5.1140   -0.6330 c1        1 542     -0.048500
      9 C21        -2.8320    4.1700   -0.2740 c1        1 542     -0.067000
     10 C23        -3.7270    5.7390   -1.8720 c1        1 542     -0.113500
     11 C33        -2.7040    5.4240   -2.7530 c1        1 542     -0.012000
     12 O34        -2.6800    5.9850   -4.0000 oh        1 542     -0.272000
     13 C31        -1.7380    4.4780   -2.3950 c1        1 542      0.099000
     14 O32        -0.6930    4.1990   -3.2560 o         1 542     -0.258000
     15 C20        -1.8030    3.8540   -1.1610 c2        1 542     -0.127000
     16 C18        -0.7020    2.8440   -0.7480 c2        1 542      0.371000
     17 O19         0.2000    2.5690   -1.5280 o         1 542     -0.417000
     18 N17        -0.7750    2.1970    0.5010 n         1 542     -0.358000
     19 C16        -0.0700    0.9650    0.7150 c3        1 542     -0.007000
     20 C15        -1.0590   -0.1240    1.0450 c2        1 542     -0.182000
     21 C14        -0.6790   -1.4350    0.9910 c1        1 542     -0.165000
     22 C6          0.7000   -1.7860    0.6090 c2        1 542      0.035000
     23 C4          0.7020   -2.4830   -0.8270 c3        1 542     -0.024000
     24 O5          1.3210   -1.6710   -1.7380 oh        1 542     -0.335000
     25 C2          1.4730   -3.7670   -0.6760 c3        1 542     -0.010000
     26 O3          2.5110   -3.8840   -1.7720 oh        1 542     -0.299000
     27 O13         1.1360   -2.7570    1.3720 os        1 542     -0.273000
     28 C1          2.0430   -3.6900    0.4690 c3        1 542      0.132000
     29 N10         2.1550   -5.0320    1.0790 n3        1 542     -0.205000
     30 C9          2.6840   -4.4640    2.1950 c1        1 542     -0.045000
     31 C11         3.1610   -5.5870    0.3770 c1        1 542      0.068000
     32 N40         3.1560   -6.3920   -0.7110 n1        1 542     -0.208000
     33 C39         4.3110   -6.9810   -1.1300 c1        1 542      0.021000
     34 N38         5.4770   -6.7620   -0.4530 n1        1 542     -0.274000
     35 C35         5.4860   -5.9640    0.6270 c1        1 542      0.233000
     36 C12         4.3150   -5.3660    1.0520 c1        1 542     -0.228000
     37 N8          4.0140   -4.6710    2.1770 n1        1 542     -0.123000
     38 N7          6.7360   -5.3480    0.7440 n3        1 542     -0.306000
     39 C36         7.7500   -5.9310    1.5870 c3        1 542     -0.067000
     40 H26        -5.7090    7.8160    2.3320 ha        1 542      0.151000
     41 H25        -3.9640    7.1940    0.8880 ha        1 542      0.138000
     42 H28        -7.7400    4.4210    1.3390 ha        1 542      0.154000
     43 H27        -5.9830    3.7570   -0.1380 ha        1 542      0.146500
     44 H21        -2.8800    3.7200    0.6180 ha        1 542      0.167000
     45 H23        -4.3910    6.4670   -2.1080 ha        1 542      0.146500
     46 HO34       -3.3730    5.7070   -4.4590 ho        1 542      0.234000
     47 HO32       -0.3180    4.9500   -3.5140 ho        1 542      0.250000
     48 HN17       -1.3140    2.5410    1.1680 hn        1 542      0.243000
     49 H16         0.4410    0.7160   -0.1240 h1        1 542      0.111500
     50 H16A        0.5530    1.0720    1.4540 h1        1 542      0.111500
     51 H15        -2.0140    0.1200    1.3100 ha        1 542      0.128000
     52 H14        -1.3270   -2.1440    1.2080 ha        1 542      0.139000
     53 H6          1.1360   -0.9300    0.6880 h4        1 542      0.140000
     54 H4         -0.2290   -2.6740   -1.1160 h1        1 542      0.132000
     55 HO5         0.7150   -1.3810   -2.3480 ho        1 542      0.243000
     56 H2          0.8720   -4.5240   -0.7020 h1        1 542      0.159000
     57 HO3         2.0910   -4.1100   -2.5740 ho        1 542      0.218000
     58 H1          2.9660   -3.2790    0.3670 h2        1 542      0.144000
     59 H9          2.1950   -3.9750    2.8680 DU        1 542      0.211000
     60 H39         4.3050   -7.5550   -1.9080 ha        1 542      0.188000
     61 HN7         6.8850   -4.5380    0.3430 hn        1 542      0.238000
     62 H36         8.0270   -6.8100    1.2140 h1        1 542      0.087333
     63 H36A        8.5100   -5.3450    1.6250 h1        1 542      0.087333
     64 H36B        7.3890   -6.0590    2.4950 h1        1 542      0.087333
@<TRIPOS>BOND
     1    1    2 1   
     2    2    3 1   
     3    2    5 1   
     4    3    4 1   
     5    3   40 1   
     6    4   41 1   
     7    5   42 1   
     8    6    7 1   
     9    6   43 1   
    10    8   10 1   
    11    9   15 1   
    12    9   44 1   
    13   10   45 1   
    14   11   12 1   
    15   11   13 1   
    16   12   46 1   
    17   13   15 1   
    18   14   47 1   
    19   15   16 1   
    20   16   17 1   
    21   16   18 1   
    22   18   19 1   
    23   18   48 1   
    24   19   20 1   
    25   19   49 1   
    26   19   50 1   
    27   20   21 1   
    28   20   51 1   
    29   21   52 1   
    30   22   23 1   
    31   22   27 1   
    32   22   53 1   
    33   23   24 1   
    34   23   25 1   
    35   23   54 1   
    36   24   55 1   
    37   25   26 1   
    38   25   28 1   
    39   25   56 1   
    40   26   57 1   
    41   27   28 1   
    42   28   29 1   
    43   28   58 1   
    44   29   30 1   
    45   29   31 1   
    46   30   37 1   
    47   31   36 1   
    48   32   33 1   
    49   33   60 1   
    50   34   35 1   
    51   35   38 1   
    52   38   39 1   
    53   38   61 1   
    54   39   62 1   
    55   39   63 1   
    56   39   64 1   
@<TRIPOS>SUBSTRUCTURE
     1 542         1 TEMP              0 ****  ****    0 ROOT
