@<TRIPOS>MOLECULE
542
   66    70     1     0     0
SMALL
bcc


@<TRIPOS>ATOM
      1 F30         6.0430   -4.8190    3.8930 f         1 542     -0.113900
      2 C29         6.0800   -3.6120    3.2890 ca        1 542      0.164900
      3 C26         7.1530   -3.2860    2.4350 ca        1 542     -0.162500
      4 C25         7.1800   -2.0450    1.8130 ca        1 542     -0.085000
      5 C28         5.0470   -2.6800    3.5140 ca        1 542     -0.162500
      6 C27         5.0950   -1.4410    2.8880 ca        1 542     -0.085000
      7 C24         6.1540   -1.1130    2.0290 cp        1 542     -0.105000
      8 C22         6.1940    0.1930    1.3750 cp        1 542      0.014000
      9 C21         6.5360    0.3000    0.0300 ca        1 542     -0.115000
     10 C23         5.8880    1.3560    2.1130 ca        1 542     -0.109000
     11 C33         5.9280    2.6010    1.4980 ca        1 542      0.064100
     12 O34         5.6330    3.7890    2.1200 oh        1 542     -0.499100
     13 C31         6.2790    2.7210    0.1260 ca        1 542      0.196100
     14 O32         6.2880    3.9120   -0.5370 oh        1 542     -0.486100
     15 C20         6.5870    1.5580   -0.6000 ca        1 542     -0.227600
     16 C18         7.0200    1.6890   -1.9880 c         1 542      0.600700
     17 O19         7.8480    2.4180   -2.5020 o         1 542     -0.391100
     18 N17         6.2990    0.7330   -2.9520 n4        1 542     -0.687800
     19 C16         5.9120    1.4120   -4.2260 c3        1 542      0.147000
     20 C15         5.3620    0.4560   -5.2290 c2        1 542     -0.235200
     21 C14         6.0500    0.0870   -6.3150 c2        1 542     -0.091200
     22 C6          5.5340   -0.8830   -7.3200 c3        1 542      0.154300
     23 C4          6.2270   -0.7810   -8.6960 c3        1 542      0.086100
     24 O5          7.0540   -1.9190   -8.8160 oh        1 542     -0.586800
     25 C2          5.0890   -0.8260   -9.7380 c3        1 542      0.081100
     26 O3          5.2160   -1.8910  -10.6380 oh        1 542     -0.558800
     27 O13         4.1210   -0.6940   -7.5180 os        1 542     -0.422600
     28 C1          3.7790   -0.9680   -8.8920 c3        1 542      0.214800
     29 N10         2.7110   -0.0840   -9.2980 na        1 542     -0.258000
     30 C9          2.6830    1.3290   -9.2790 cc        1 542      0.501700
     31 C11         1.4780   -0.4940   -9.8360 ca        1 542      0.467800
     32 N40         0.9580   -1.7210  -10.0790 nb        1 542     -0.623000
     33 C39        -0.2820   -1.6930  -10.6340 ca        1 542      0.682900
     34 N38        -1.0400   -0.6090  -10.9710 nb        1 542     -0.676000
     35 C35        -0.5110    0.6150  -10.7230 ca        1 542      0.540200
     36 C12         0.7620    0.7650  -10.1400 ca        1 542     -0.138200
     37 N8          1.5500    1.8630   -9.7690 nd        1 542     -0.574100
     38 N7         -1.2980    1.8180  -11.0780 n4        1 542     -0.739700
     39 C36        -1.4610    1.9670  -12.5470 c3        1 542      0.086100
     40 H26         7.9630   -4.0150    2.2770 ha        1 542      0.167500
     41 H25         8.0290   -1.7860    1.1610 ha        1 542      0.138500
     42 H28         4.2160   -2.9410    4.1870 ha        1 542      0.167500
     43 H27         4.2860   -0.7150    3.0660 ha        1 542      0.138500
     44 H21         6.8010   -0.6110   -0.5280 ha        1 542      0.138000
     45 H23         5.6290    1.2700    3.1820 ha        1 542      0.175000
     46 HO34        5.5640    3.6330    3.0760 ho        1 542      0.459000
     47 HO32        6.1750    4.6350    0.1090 ho        1 542      0.479000
     48 HN17        6.9240   -0.0510   -3.1650 hn        1 542      0.454300
     49 H16         6.8310    1.9410   -4.6200 hx        1 542      0.117200
     50 H16A        5.1380    2.1950   -3.9720 hx        1 542      0.117200
     51 H15         4.3310    0.1040   -5.0560 ha        1 542      0.165000
     52 H14         7.0800    0.4400   -6.5060 ha        1 542      0.153000
     53 H6          5.6710   -1.9320   -6.9130 h1        1 542      0.110700
     54 H4          6.8260    0.1620   -8.7970 h1        1 542      0.075700
     55 HO5         7.5680   -1.8200   -9.6310 ho        1 542      0.443000
     56 H2          5.0850    0.0960  -10.3820 h1        1 542      0.108700
     57 HO3         5.4160   -2.6990  -10.1390 ho        1 542      0.432000
     58 H1          3.3900   -2.0310   -8.9390 h2        1 542      0.126700
     59 H9          3.5300    1.9110   -8.8850 h5        1 542      0.099800
     60 H39        -0.7470   -2.6860  -10.8490 h5        1 542      0.106100
     61 HN7        -2.2280    1.7480  -10.6380 hn        1 542      0.475800
     62 H36        -2.0280    2.9160  -12.7470 hx        1 542      0.116700
     63 H36A       -0.4500    2.0150  -13.0340 hx        1 542      0.116700
     64 H36B       -2.0320    1.0890  -12.9560 hx        1 542      0.116700
     65 H172        5.4650    0.3590   -2.4880 hn        1 542      0.454300
     66 H72        -0.8120    2.6430  -10.6960 hn        1 542      0.475800
@<TRIPOS>BOND
     1    1    2 1   
     2    2    3 ar  
     3    2    5 ar  
     4    3    4 ar  
     5    3   40 1   
     6    4    7 ar  
     7    4   41 1   
     8    5    6 ar  
     9    5   42 1   
    10    6    7 ar  
    11    6   43 1   
    12    7    8 1   
    13    8    9 ar  
    14    8   10 ar  
    15    9   15 ar  
    16    9   44 1   
    17   10   11 ar  
    18   10   45 1   
    19   11   12 1   
    20   11   13 ar  
    21   12   46 1   
    22   13   14 1   
    23   13   15 ar  
    24   14   47 1   
    25   15   16 1   
    26   16   17 2   
    27   16   18 1   
    28   18   19 1   
    29   18   48 1   
    30   18   65 1   
    31   19   20 1   
    32   19   49 1   
    33   19   50 1   
    34   20   21 2   
    35   20   51 1   
    36   21   22 1   
    37   21   52 1   
    38   22   23 1   
    39   22   27 1   
    40   22   53 1   
    41   23   24 1   
    42   23   25 1   
    43   23   54 1   
    44   24   55 1   
    45   25   26 1   
    46   25   28 1   
    47   25   56 1   
    48   26   57 1   
    49   27   28 1   
    50   28   29 1   
    51   28   58 1   
    52   29   30 1   
    53   29   31 1   
    54   30   37 2   
    55   30   59 1   
    56   31   32 ar  
    57   31   36 ar  
    58   32   33 ar  
    59   33   34 ar  
    60   33   60 1   
    61   34   35 ar  
    62   35   36 ar  
    63   35   38 1   
    64   36   37 1   
    65   38   39 1   
    66   38   61 1   
    67   38   66 1   
    68   39   62 1   
    69   39   63 1   
    70   39   64 1   
@<TRIPOS>SUBSTRUCTURE
     1 542         1 TEMP              0 ****  ****    0 ROOT
