@<TRIPOS>MOLECULE
544
   67    70     1     0     0
SMALL
bcc


@<TRIPOS>ATOM
      1 N          -2.3760   -2.9300   -0.9130 nh        1 544     -0.692000
      2 CA         -3.3490   -1.9500   -1.3510 c3        1 544      0.067500
      3 CB         -3.3640   -0.6710   -0.4980 c3        1 544     -0.024100
      4 CG         -2.0880   -0.3130    0.1770 ca        1 544     -0.094300
      5 CD1        -2.0260   -0.2140    1.5720 ca        1 544     -0.102000
      6 CD2        -0.9410   -0.0480   -0.5830 ca        1 544     -0.102000
      7 CE1        -0.8360    0.1200    2.2120 ca        1 544     -0.175500
      8 CE2         0.2560    0.2970    0.0390 ca        1 544     -0.175500
      9 CZ          0.3070    0.3680    1.4370 ca        1 544      0.094100
     10 OH          1.4500    0.7210    2.1410 os        1 544     -0.354900
     11 C1A        -2.4560   -4.2430   -1.2330 c2        1 544      0.275800
     12 C1F        -1.4750   -5.1780   -0.9140 ce        1 544     -0.490200
     13 C1B        -3.6840   -4.7590   -1.9330 c3        1 544     -0.106900
     14 C1H         0.6910   -6.0740   -0.1130 ca        1 544     -0.126600
     15 C1I         0.8210   -7.0370   -1.1190 ca        1 544     -0.098500
     16 C1J         1.6900   -8.1140   -0.9500 ca        1 544     -0.147500
     17 C1K         2.4330   -8.2380    0.2240 ca        1 544     -0.134000
     18 C1L         2.3140   -7.2740    1.2260 ca        1 544     -0.147500
     19 C1M         1.4520   -6.1930    1.0560 ca        1 544     -0.098500
     20 C1G        -0.2310   -4.9080   -0.2670 c         1 544      0.597900
     21 O1G         0.1270   -3.7980    0.1910 o         1 544     -0.646100
     22 O3F         4.1020   -3.4790    3.1700 os        1 544     -0.382800
     23 C3G         5.4050   -2.9510    3.2970 cc        1 544      0.518900
     24 N3H         5.4250   -1.6260    3.1240 nd        1 544     -0.659000
     25 C3C         4.0950   -1.2430    2.8700 cd        1 544      0.216300
     26 C3D         3.2820   -2.3800    2.8990 cc        1 544      0.208700
     27 C3E         1.8580   -2.6480    2.7080 c3        1 544     -0.161400
     28 C3I         6.4720   -3.8940    3.5800 ca        1 544     -0.115500
     29 C3N         7.7690   -3.4270    3.8410 ca        1 544     -0.097000
     30 C3M         8.7900   -4.3360    4.1090 ca        1 544     -0.141000
     31 C3L         8.5300   -5.7060    4.1200 ca        1 544     -0.124000
     32 C3K         7.2410   -6.1710    3.8580 ca        1 544     -0.141000
     33 C3J         6.2120   -5.2720    3.5880 ca        1 544     -0.097000
     34 C3A         2.6830    0.3230    1.5240 c3        1 544      0.126400
     35 C3B         3.6970    0.1660    2.6520 c3        1 544     -0.106700
     36 C          -3.2020   -1.5820   -2.8790 c         1 544      0.907600
     37 HN         -1.4960   -2.5790   -0.5820 hn        1 544      0.463800
     38 HA1        -4.3740   -2.4200   -1.2440 h1        1 544      0.050700
     39 HB1        -3.6490    0.1720   -1.1880 hc        1 544      0.047700
     40 HB2        -4.1750   -0.7690    0.2740 hc        1 544      0.047700
     41 HD11       -2.9230   -0.4150    2.1760 ha        1 544      0.164000
     42 HD21       -1.0060   -0.1300   -1.6890 ha        1 544      0.164000
     43 HE11       -0.7780    0.1890    3.3060 ha        1 544      0.131000
     44 HE21        1.1510    0.4980   -0.5650 ha        1 544      0.131000
     45 H1F1       -1.6750   -6.2240   -1.1820 ha        1 544      0.126000
     46 H1B1       -3.5370   -5.8190   -2.2480 hc        1 544      0.068700
     47 H1B2       -3.9070   -4.1340   -2.8420 hc        1 544      0.068700
     48 H1B3       -4.5640   -4.7100   -1.2440 hc        1 544      0.068700
     49 H1I1        0.2410   -6.9360   -2.0500 ha        1 544      0.143500
     50 H1J1        1.7900   -8.8660   -1.7450 ha        1 544      0.120500
     51 H1K1        3.1150   -9.0890    0.3560 ha        1 544      0.117000
     52 H1L1        2.9070   -7.3630    2.1480 ha        1 544      0.120500
     53 H1M1        1.3680   -5.4130    1.8300 ha        1 544      0.143500
     54 H3E1        1.6690   -3.0820    1.6870 hc        1 544      0.083367
     55 H3E2        1.4890   -3.3790    3.4700 hc        1 544      0.083367
     56 H3E3        1.2780   -1.6920    2.7950 hc        1 544      0.083367
     57 H3N1        7.9780   -2.3460    3.8310 ha        1 544      0.153000
     58 H3M1        9.8060   -3.9680    4.3130 ha        1 544      0.130500
     59 H3L1        9.3400   -6.4190    4.3310 ha        1 544      0.127000
     60 H3K1        7.0340   -7.2520    3.8630 ha        1 544      0.130500
     61 H3J1        5.1940   -5.6360    3.3770 ha        1 544      0.153000
     62 H3A1        2.9930    1.1430    0.8240 h1        1 544      0.050700
     63 H3A2        2.5490   -0.6300    0.9480 h1        1 544      0.050700
     64 H3B1        3.2530    0.5670    3.6060 hc        1 544      0.068700
     65 H3B2        4.5990    0.7900    2.4140 hc        1 544      0.068700
     66 O2         -4.0660   -2.0920   -3.6420 o         1 544     -0.817300
     67 O1         -2.2690   -0.8190   -3.2340 o         1 544     -0.817300
@<TRIPOS>BOND
     1    1    2 1   
     2    1   11 1   
     3    1   37 1   
     4    2    3 1   
     5    2   36 1   
     6    2   38 1   
     7    3    4 1   
     8    3   39 1   
     9    3   40 1   
    10    4    5 ar  
    11    4    6 ar  
    12    5    7 ar  
    13    5   41 1   
    14    6    8 ar  
    15    6   42 1   
    16    7    9 ar  
    17    7   43 1   
    18    8    9 ar  
    19    8   44 1   
    20    9   10 1   
    21   10   34 1   
    22   11   12 2   
    23   11   13 1   
    24   12   20 1   
    25   12   45 1   
    26   13   46 1   
    27   13   47 1   
    28   13   48 1   
    29   14   15 ar  
    30   14   19 ar  
    31   14   20 1   
    32   15   16 ar  
    33   15   49 1   
    34   16   17 ar  
    35   16   50 1   
    36   17   18 ar  
    37   17   51 1   
    38   18   19 ar  
    39   18   52 1   
    40   19   53 1   
    41   20   21 2   
    42   22   23 1   
    43   22   26 1   
    44   23   24 2   
    45   23   28 1   
    46   24   25 1   
    47   25   26 2   
    48   25   35 1   
    49   26   27 1   
    50   27   54 1   
    51   27   55 1   
    52   27   56 1   
    53   28   29 ar  
    54   28   33 ar  
    55   29   30 ar  
    56   29   57 1   
    57   30   31 ar  
    58   30   58 1   
    59   31   32 ar  
    60   31   59 1   
    61   32   33 ar  
    62   32   60 1   
    63   33   61 1   
    64   34   35 1   
    65   34   62 1   
    66   34   63 1   
    67   35   64 1   
    68   35   65 1   
    69   36   66 1   
    70   36   67 1   
@<TRIPOS>SUBSTRUCTURE
     1 544         1 TEMP              0 ****  ****    0 ROOT
