@<TRIPOS>MOLECULE
544
   67    65     1     0     0
SMALL
bcc


@<TRIPOS>ATOM
      1 N           0.2780   -1.4800   -0.9190 n3        1 544     -0.304000
      2 CA          1.5220   -1.3610   -0.2000 c3        1 544     -0.054000
      3 CB          1.4140   -0.9360    1.2660 c3        1 544     -0.159000
      4 CG          0.5300   -1.8010    2.0880 c2        1 544     -0.130000
      5 CD1        -0.0820   -1.1500    3.2850 c3        1 544     -0.139000
      6 CD2         0.2800   -3.1080    1.8290 c2        1 544     -0.160000
      7 CE1        -0.9270   -1.9870    4.1430 c1        1 544     -0.236000
      8 CE2        -0.5790   -3.9230    2.6450 c1        1 544     -0.215000
      9 CZ         -1.1320   -3.2950    3.7590 c2        1 544     -0.125000
     10 OH         -2.0590   -4.0580    4.5300 os        1 544     -0.117000
     11 C1A        -0.3320   -0.3870   -1.5270 c2        1 544      0.141000
     12 C1F        -1.6570   -0.4610   -1.8760 c2        1 544     -0.383000
     13 C1B         0.5110    0.8090   -1.8450 c3        1 544     -0.215000
     14 C1H        -3.8840    0.2340   -2.6730 c2        1 544     -0.097000
     15 C1I        -4.2900   -0.9060   -3.4810 c2        1 544     -0.117000
     16 C1J        -5.4950   -1.0600   -4.0340 c2        1 544     -0.214000
     17 C1K        -4.1700    3.0020   -0.4480 c1        1 544     -0.192000
     18 C1L        -4.4260    2.0700   -1.1560 c1        1 544     -0.132000
     19 C1M        -4.7610    0.9790   -1.9690 c2        1 544     -0.028000
     20 C1G        -2.4100    0.4990   -2.6600 c2        1 544      0.326000
     21 O1G        -1.9390    1.4440   -3.3130 o         1 544     -0.336000
     22 O3F        -2.3030   -9.0720    3.9620 os        1 544     -0.117000
     23 C3G        -3.2880   -9.3390    4.9340 c2        1 544     -0.027000
     24 N3H        -3.5260   -8.2680    5.7060 n2        1 544     -0.128000
     25 C3C        -2.6810   -7.2510    5.2400 c2        1 544     -0.106000
     26 C3D        -1.9250   -7.7430    4.1680 c2        1 544     -0.001000
     27 C3E        -0.8810   -7.2100    3.2940 c3        1 544     -0.187000
     28 C3I        -3.8950  -10.6460    4.9880 c2        1 544     -0.048000
     29 C3N        -1.9150   -0.5880    6.3740 c1        1 544     -0.303000
     30 C3M        -2.2970    0.0730    7.3010 c1        1 544     -0.303000
     31 C3L        -1.9230  -11.8790    2.2590 c1        1 544     -0.198000
     32 C3K        -2.7070  -11.7830    3.1610 c1        1 544     -0.123000
     33 C3J        -3.6340  -11.7090    4.2070 c2        1 544     -0.063000
     34 C3A        -1.5510   -5.0860    5.1760 c1        1 544     -0.012000
     35 C3B        -2.6550   -5.8910    5.8250 c3        1 544     -0.173000
     36 C           0.5060   -4.5080   -1.4090 c1        1 544      0.422000
     37 HN         -0.3620   -2.1310   -0.4940 hn        1 544      0.226000
     38 HA1         2.0090   -2.3800   -0.2480 h1        1 544      0.094500
     39 HB1         1.0550    0.1270    1.3170 hc        1 544      0.088500
     40 HB2         2.2020   -0.6410   -0.7360 h1        1 544      0.094500
     41 HD11        0.7420   -0.7290    3.9290 hc        1 544      0.121000
     42 HD21        2.4490   -0.9590    1.7030 hc        1 544      0.088500
     43 HE11       -0.7140   -0.2790    2.9480 hc        1 544      0.121000
     44 HE21        0.7440   -3.6180    0.9680 ha        1 544      0.090000
     45 H1F1       -2.2530   -1.3310   -1.5430 ha        1 544      0.146000
     46 H1B1        1.2840    0.5430   -2.6090 hc        1 544      0.103333
     47 H1B2       -0.1120    1.6420   -2.2530 hc        1 544      0.103333
     48 H1B3        1.0270    1.1810   -0.9230 hc        1 544      0.103333
     49 H1I1       -3.5040   -1.6700   -3.6230 ha        1 544      0.137000
     50 H1J1       -5.7470   -1.9430   -4.6340 ha        1 544      0.111000
     51 H1K1       -6.3010   -0.3220   -3.9310 ha        1 544      0.111000
     52 H1L1       -3.9360    3.8210    0.1830 ha        1 544      0.221000
     53 H1M1       -5.8400    0.7300   -1.9900 ha        1 544      0.137000
     54 H3E1       -0.8620   -7.7600    2.3220 hc        1 544      0.124000
     55 H3E2       -1.0370   -6.1040    3.0950 hc        1 544      0.124000
     56 H3E3        0.1140   -7.3210    3.7950 hc        1 544      0.124000
     57 H3N1       -1.5530   -1.2080    5.4950 ha        1 544      0.253000
     58 H3M1       -4.6610  -10.7390    5.7820 ha        1 544      0.146000
     59 H3L1       -2.6360    0.6490    8.1190 ha        1 544      0.253000
     60 H3K1       -1.2260  -11.9440    1.4650 ha        1 544      0.219000
     61 H3J1       -4.1960  -12.6460    4.3850 ha        1 544      0.130000
     62 H3A1       -2.2730   -3.2560   -0.0520 ha        1 544      0.002000
     63 H3A2       -1.9110   -3.5140    0.4620 ha        1 544      0.002000
     64 H3B1       -3.6750   -5.4250    5.7310 hc        1 544      0.100000
     65 H3B2       -2.4070   -5.9470    6.9200 hc        1 544      0.100000
     66 O2         -0.6660   -4.3600   -1.5390 o         1 544     -0.211000
     67 O1          1.6830   -4.6510   -1.2980 o         1 544     -0.211000
@<TRIPOS>BOND
     1    1    2 1   
     2    1   11 1   
     3    1   37 1   
     4    2    3 1   
     5    2   38 1   
     6    2   40 1   
     7    3    4 1   
     8    3   39 1   
     9    3   42 1   
    10    4    5 1   
    11    4    6 1   
    12    5    7 1   
    13    5   41 1   
    14    5   43 1   
    15    6    8 1   
    16    6   44 1   
    17    7    9 1   
    18    8    9 1   
    19    9   10 1   
    20   10   34 1   
    21   11   12 1   
    22   11   13 1   
    23   12   20 1   
    24   12   45 1   
    25   13   46 1   
    26   13   47 1   
    27   13   48 1   
    28   14   15 1   
    29   14   19 1   
    30   14   20 1   
    31   15   16 1   
    32   15   49 1   
    33   16   50 1   
    34   16   51 1   
    35   17   18 1   
    36   17   52 1   
    37   18   19 1   
    38   19   53 1   
    39   20   21 1   
    40   22   23 1   
    41   22   26 1   
    42   23   24 1   
    43   23   28 1   
    44   24   25 1   
    45   25   26 1   
    46   25   35 1   
    47   26   27 1   
    48   27   54 1   
    49   27   55 1   
    50   27   56 1   
    51   28   33 1   
    52   28   58 1   
    53   29   30 1   
    54   29   57 1   
    55   30   59 1   
    56   31   32 1   
    57   31   60 1   
    58   32   33 1   
    59   33   61 1   
    60   34   35 1   
    61   35   64 1   
    62   35   65 1   
    63   36   66 1   
    64   36   67 1   
    65   62   63 1   
@<TRIPOS>SUBSTRUCTURE
     1 544         1 TEMP              0 ****  ****    0 ROOT
