@<TRIPOS>MOLECULE
544
   67    59     1     0     0
SMALL
bcc


@<TRIPOS>ATOM
      1 N           2.6180    3.9400   -2.1170 n3        1 544     -0.248000
      2 CA          3.0430    2.6660   -1.6290 c3        1 544     -0.078000
      3 CB          2.6250    1.5890   -2.6050 c3        1 544     -0.129000
      4 CG          2.5000    0.2040   -1.8460 c2        1 544     -0.076000
      5 CD1         1.5090    0.0310   -0.8730 c2        1 544     -0.093000
      6 CD2         3.2560   -0.8860   -2.2660 c1        1 544     -0.106000
      7 CE1         1.2800   -1.2350   -0.3250 c1        1 544     -0.155000
      8 CE2         3.0240   -2.1570   -1.7130 c1        1 544     -0.197000
      9 CZ          2.0400   -2.3270   -0.7470 c1        1 544      0.045000
     10 OH          1.7380   -3.6520   -0.2530 os        1 544     -0.235000
     11 C1A         1.4550    4.5630   -1.5690 c2        1 544      0.202000
     12 C1F         0.2490    4.4290   -2.1950 c1        1 544     -0.478000
     13 C1B         1.5580    5.3650   -0.3080 c3        1 544     -0.230000
     14 C1H        -1.0700    2.7500   -3.7170 c1        1 544     -0.102000
     15 C1I        -2.1460    2.7990   -2.8400 c1        1 544     -0.129125
     16 C1J        -3.2360    1.9760   -3.0400 c1        1 544     -0.129125
     17 C1K        -3.2570    1.1010   -4.1130 c1        1 544     -0.129125
     18 C1L        -2.1880    1.0520   -4.9840 c1        1 544     -0.129125
     19 C1M        -1.0910    1.8800   -4.7850 c1        1 544     -0.096000
     20 C1G         0.1430    3.6180   -3.4740 c1        1 544      0.318000
     21 O1G         1.0750    3.5740   -4.2370 o         1 544     -0.408000
     22 O3F        -2.3450   -2.4810    2.4340 os        1 544     -0.124000
     23 C3G        -1.8520   -2.7210    3.6960 c2        1 544      0.030000
     24 N3H        -0.7410   -3.5030    3.5730 n2        1 544     -0.135000
     25 C3C        -0.5420   -3.7480    2.2500 c1        1 544     -0.133000
     26 C3D        -1.5420   -3.1100    1.5440 c1        1 544     -0.026000
     27 C3E        -1.7780   -3.1970   -0.0060 c2        1 544     -0.168000
     28 C3I        -2.4570   -2.3100    4.9250 c1        1 544     -0.015000
     29 C3N        -3.5780   -1.4930    4.9050 c1        1 544     -0.129125
     30 C3M        -4.1820   -1.1200    6.0890 c1        1 544     -0.129125
     31 C3L        -3.6640   -1.5650    7.3090 c1        1 544     -0.129125
     32 C3K        -2.5510   -2.3770    7.3320 c1        1 544     -0.129125
     33 C3J        -1.9410   -2.7540    6.1400 c1        1 544     -0.092000
     34 C3A         1.7570   -3.7600    1.1850 c3        1 544     -0.019000
     35 C3B         0.5560   -4.6440    1.6560 c2        1 544     -0.090000
     36 O2          5.2570    3.4390   -2.1750 o         1 544     -0.549500
     37 O1          5.1050    1.8380   -0.7060 o         1 544     -0.549500
     38 C           4.5530    2.6590   -1.4790 c2        1 544      0.329000
     39 HN          3.1250    4.3830   -2.7400 hn        1 544      0.253000
     40 HA1         2.6300    2.4960   -0.7620 h1        1 544      0.090000
     41 HB1         3.3020    1.5130   -3.3220 hc        1 544      0.110500
     42 HB2         1.7520    1.8250   -3.0010 hc        1 544      0.110500
     43 HD11        0.9450    0.7900   -0.6080 ha        1 544      0.156000
     44 HD21        3.8800   -0.7850   -2.9880 ha        1 544      0.133000
     45 HE11        0.5910   -1.3550    0.3510 ha        1 544      0.138000
     46 HE21        3.5480   -2.9380   -2.0300 ha        1 544      0.125000
     47 H1F1       -0.5470    4.8550   -1.8180 ha        1 544      0.126000
     48 H1B1        1.6700    6.3110   -0.5310 hc        1 544      0.109333
     49 H1B2        0.7350    5.2480    0.2240 hc        1 544      0.109333
     50 H1B3        2.3300    5.0590    0.2130 hc        1 544      0.109333
     51 H1I1       -2.1590    3.4510   -2.1300 ha        1 544      0.130875
     52 H1J1       -3.9970    2.0110   -2.4200 ha        1 544      0.130875
     53 H1K1       -4.0280    0.5200   -4.2540 ha        1 544      0.130875
     54 H1L1       -2.2030    0.4400   -5.7350 ha        1 544      0.130875
     55 H1M1       -0.3260    1.8440   -5.4080 ha        1 544      0.144000
     56 H3E1       -0.9120   -3.3030   -0.4650 ha        1 544      0.112333
     57 H3E2       -2.2150   -2.3750   -0.3170 ha        1 544      0.112333
     58 H3E3       -2.3560   -3.9750   -0.2090 ha        1 544      0.112333
     59 H3N1       -3.9090   -1.1520    4.0720 ha        1 544      0.130875
     60 H3M1       -4.9690   -0.5450    6.0740 ha        1 544      0.130875
     61 H3L1       -4.1270   -1.3550    8.1340 ha        1 544      0.130875
     62 H3K1       -2.1860   -2.6890    8.1950 ha        1 544      0.130875
     63 H3J1       -1.1010   -3.2390    6.1610 ha        1 544      0.154000
     64 H3A1        1.6820   -2.8610    1.5830 h1        1 544      0.084000
     65 H3A2        2.6110   -4.1800    1.4740 h1        1 544      0.084000
     66 H3B1        0.8660   -5.2810    2.3430 ha        1 544      0.109500
     67 H3B2        0.1900   -5.1460    0.8810 ha        1 544      0.109500
@<TRIPOS>BOND
     1    1    2 1   
     2    1   11 1   
     3    1   39 1   
     4    2    3 1   
     5    2   38 1   
     6    2   40 1   
     7    3    4 1   
     8    3   41 1   
     9    3   42 1   
    10    4    5 1   
    11    4    6 1   
    12    5    7 1   
    13    5   43 1   
    14    6   44 1   
    15    7   45 1   
    16    8    9 1   
    17    8   46 1   
    18    9   10 1   
    19   10   34 1   
    20   11   12 1   
    21   11   13 1   
    22   12   47 1   
    23   13   48 1   
    24   13   49 1   
    25   13   50 1   
    26   14   19 1   
    27   14   20 1   
    28   15   16 1   
    29   15   51 1   
    30   16   52 1   
    31   17   18 1   
    32   17   53 1   
    33   18   54 1   
    34   19   55 1   
    35   20   21 1   
    36   22   23 1   
    37   22   26 1   
    38   23   24 1   
    39   23   28 1   
    40   24   25 1   
    41   25   26 1   
    42   27   56 1   
    43   27   57 1   
    44   27   58 1   
    45   28   33 1   
    46   29   30 1   
    47   29   59 1   
    48   30   60 1   
    49   31   32 1   
    50   31   61 1   
    51   32   62 1   
    52   33   63 1   
    53   34   35 1   
    54   34   64 1   
    55   34   65 1   
    56   35   66 1   
    57   35   67 1   
    58   36   38 1   
    59   37   38 1   
@<TRIPOS>SUBSTRUCTURE
     1 544         1 TEMP              0 ****  ****    0 ROOT
