@<TRIPOS>MOLECULE
544
   68    65     1     0     0
SMALL
bcc


@<TRIPOS>ATOM
      1 N          -0.4130   -0.9180    0.3720 n8        1 544     -0.327000
      2 CA          5.3310   -1.3840    1.5020 c2        1 544     -0.205000
      3 CB          4.2980   -0.8820    2.1790 c2        1 544     -0.132000
      4 CG          3.1670   -1.6510    2.6750 ca        1 544     -0.069000
      5 CD1         3.2560   -3.0320    2.9030 ca        1 544     -0.101500
      6 CD2         1.9560   -0.9920    2.9490 ca        1 544     -0.101500
      7 CE1         0.8560   -1.6890    3.4340 ca        1 544     -0.175500
      8 CE2         2.1650   -3.7480    3.3880 ca        1 544     -0.175500
      9 CZ          0.9690   -3.0730    3.6530 ca        1 544      0.068000
     10 OH         -0.1920   -3.7090    4.0750 os        1 544     -0.149000
     11 C1A        -1.4890   -1.6750    0.0690 c2        1 544      0.234000
     12 C1F        -2.3520   -1.3110   -0.9780 c2        1 544     -0.381000
     13 C1B        -1.7550   -2.9060    0.8730 c3        1 544     -0.239000
     14 C1H        -4.4600   -1.7010   -2.4230 c2        1 544     -0.084000
     15 C1I        -4.4560   -0.6060   -3.1890 c2        1 544     -0.156000
     16 C1J        -5.1620   -6.8950   -2.1600 c1        1 544     -0.233750
     17 C1K        -5.1720   -8.0230   -2.5590 c1        1 544     -0.233750
     18 C1L        -5.0050   -3.7320   -1.4420 c1        1 544     -0.152000
     19 C1M        -5.4020   -2.8240   -2.3970 c2        1 544     -0.416000
     20 C1G        -3.4650   -2.0420   -1.3730 c2        1 544      0.224000
     21 O1G        -3.8180   -3.2310   -0.8290 os        1 544     -0.140000
     22 O3F        -4.1590   -6.6620    3.5560 os        1 544     -0.102000
     23 C3G        -3.6410   -5.7100    2.6530 c2        1 544      0.055000
     24 N3H        -2.4380   -5.2620    3.0370 n2        1 544     -0.152000
     25 C3C        -2.1310   -5.9350    4.2340 c2        1 544     -0.088000
     26 C3D        -3.1910   -6.7950    4.5510 c2        1 544     -0.051000
     27 C3E        -3.4750   -7.7310    5.6370 c3        1 544     -0.151000
     28 C3I        -4.4020   -5.3670    1.4740 c2        1 544     -0.119000
     29 C3N        -2.6190   -1.4470    4.1170 c1        1 544     -0.233750
     30 C3M        -3.0970   -0.3670    4.3080 c1        1 544     -0.233750
     31 C3L        -7.5220   -6.4460    2.8850 c1        1 544     -0.193000
     32 C3K        -6.6750   -6.0160    2.1550 c1        1 544     -0.133000
     33 C3J        -5.7210   -5.5030    1.2660 c2        1 544      0.001000
     34 C3A         0.0070   -4.8130    4.8980 c2        1 544     -0.035000
     35 C3B        -0.9150   -5.7860    4.9880 c2        1 544     -0.113000
     36 C           2.6190    1.0440   -1.7010 c1        1 544      0.428000
     37 HN          0.1910   -1.1730    1.1220 hn        1 544      0.248500
     38 HA1         5.4240   -2.4470    1.2440 ha        1 544      0.117500
     39 HB1         4.2520    0.2000    2.4030 ha        1 544      0.124000
     40 HB2         6.1590   -0.7510    1.1570 ha        1 544      0.117500
     41 HD11        4.2010   -3.5590    2.7010 ha        1 544      0.138500
     42 HD21        1.8820    0.0950    2.7920 ha        1 544      0.138500
     43 HE11       -0.0940   -1.1810    3.6650 ha        1 544      0.156000
     44 HE21        2.2390   -4.8330    3.5540 ha        1 544      0.156000
     45 H1F1       -2.1620   -0.3790   -1.5390 ha        1 544      0.148000
     46 H1B1       -2.8000   -2.8630    1.2830 hc        1 544      0.135667
     47 H1B2       -1.7030   -3.8030    0.2010 hc        1 544      0.135667
     48 H1B3       -1.0480   -3.0510    1.7300 hc        1 544      0.135667
     49 H1I1       -3.6830    0.1710   -3.1130 ha        1 544      0.118500
     50 H1J1       -5.1530   -5.8800   -1.8050 ha        1 544      0.231500
     51 H1K1       -5.2370   -0.4310   -3.9410 ha        1 544      0.118500
     52 H1L1       -5.1830   -9.0220   -2.9110 ha        1 544      0.231500
     53 H1M1       -6.2640   -2.8870   -3.0520 ha        1 544      0.153000
     54 H3E1       -4.1220   -7.2400    6.4080 hc        1 544      0.099667
     55 H3E2       -4.0130   -8.6320    5.2490 hc        1 544      0.099667
     56 H3E3       -2.5190   -8.0530    6.1200 hc        1 544      0.099667
     57 H3N1       -2.2030   -2.4150    3.9530 ha        1 544      0.231500
     58 H3M1       -3.7900   -4.9210    0.6600 ha        1 544      0.182000
     59 H3L1       -3.5280    0.5870    4.4790 ha        1 544      0.231500
     60 H3K1       -8.2710   -6.8270    3.5310 ha        1 544      0.220000
     61 H3J1       -6.1130   -5.1600    0.2760 ha        1 544      0.194000
     62 H3A1       -1.7160    1.4750   -2.9270 ha        1 544      0.001000
     63 H3A2       -2.1010    1.8030   -2.4770 ha        1 544      0.001000
     64 H3B1        0.9260   -4.7950    5.5050 h4        1 544      0.141000
     65 H3B2       -0.7480   -6.5780    5.7410 ha        1 544      0.140000
     66 O2          1.6460    0.8160   -1.0500 o         1 544     -0.213000
     67 O1          3.5870    1.2740   -2.3470 o         1 544     -0.213000
     68 HN3        -0.1960   -0.1050   -0.1540 hn        1 544      0.248500
@<TRIPOS>BOND
     1    1   11 1   
     2    1   37 1   
     3    1   68 1   
     4    2    3 1   
     5    2   38 1   
     6    2   40 1   
     7    3    4 1   
     8    3   39 1   
     9    4    5 1   
    10    4    6 1   
    11    5    8 1   
    12    5   41 1   
    13    6    7 1   
    14    6   42 1   
    15    7    9 1   
    16    7   43 1   
    17    8    9 1   
    18    8   44 1   
    19    9   10 1   
    20   10   34 1   
    21   11   12 1   
    22   11   13 1   
    23   12   20 1   
    24   12   45 1   
    25   13   46 1   
    26   13   47 1   
    27   13   48 1   
    28   14   15 1   
    29   14   19 1   
    30   14   20 1   
    31   15   49 1   
    32   15   51 1   
    33   16   17 1   
    34   16   50 1   
    35   17   52 1   
    36   18   19 1   
    37   18   21 1   
    38   19   53 1   
    39   20   21 1   
    40   22   23 1   
    41   22   26 1   
    42   23   24 1   
    43   23   28 1   
    44   24   25 1   
    45   25   26 1   
    46   25   35 1   
    47   26   27 1   
    48   27   54 1   
    49   27   55 1   
    50   27   56 1   
    51   28   33 1   
    52   28   58 1   
    53   29   30 1   
    54   29   57 1   
    55   30   59 1   
    56   31   32 1   
    57   31   60 1   
    58   32   33 1   
    59   33   61 1   
    60   34   35 1   
    61   34   64 1   
    62   35   65 1   
    63   36   66 1   
    64   36   67 1   
    65   62   63 1   
@<TRIPOS>SUBSTRUCTURE
     1 544         1 TEMP              0 ****  ****    0 ROOT
