@<TRIPOS>MOLECULE
545
   68    69     1     0     0
SMALL
bcc


@<TRIPOS>ATOM
      1 C8         -1.4720    0.6510    2.4560 ca        1 545     -0.082500
      2 C7         -0.3240    1.3540    2.7800 ca        1 545     -0.178000
      3 C12         0.9380    0.7820    2.5000 ca        1 545      0.194100
      4 C11         1.0280   -0.4860    1.9000 ca        1 545     -0.178000
      5 C10        -0.1370   -1.1750    1.5820 ca        1 545     -0.082500
      6 C9         -1.3930   -0.6130    1.8430 ca        1 545     -0.254300
      7 C14        -2.6350   -1.3760    1.5610 c3        1 545     -0.043100
      8 C15        -3.1290   -1.1030    0.1270 c3        1 545      0.076500
      9 C17        -4.5170   -1.6730   -0.2040 c         1 545      0.532100
     10 N19        -5.1050   -2.7260    0.6740 n4        1 545     -0.651800
     11 C20        -6.4120   -2.3050    1.3120 c3        1 545      0.085500
     12 C21        -6.3910   -0.8370    1.7160 c         1 545      0.683100
     13 O23        -7.4670   -0.4540    2.4020 os        1 545     -0.371900
     14 C24        -7.5510    0.9530    2.7950 c3        1 545      0.148400
     15 C25        -8.9060    1.0960    3.4560 c3        1 545     -0.093400
     16 C26        -9.1060    2.5320    3.9020 c3        1 545     -0.076400
     17 C27       -10.4470    2.7050    4.5670 c3        1 545     -0.098100
     18 O18        -5.1500   -1.3390   -1.1980 o         1 545     -0.397100
     19 N16        -3.1300    0.3690   -0.1630 n4        1 545     -0.835600
     20 O22        -5.4930   -0.0380    1.3940 o         1 545     -0.658000
     21 C6         -6.7490   -3.2240    2.5170 c3        1 545      0.126500
     22 N5         -5.6420   -3.2600    3.5100 n3        1 545     -0.484100
     23 C4         -5.9960   -4.1410    4.6490 c3        1 545      0.106800
     24 C3         -6.4230   -5.5560    4.2390 c3        1 545      0.127100
     25 C2         -7.5200   -5.5460    3.1500 c3        1 545      0.090800
     26 C1         -7.0280   -4.6540    1.9960 c3        1 545      0.144100
     27 O28        -5.4480   -1.9880    3.9220 oh        1 545     -0.456300
     28 O32        -5.2660   -6.2080    3.7480 oh        1 545     -0.600800
     29 O29        -7.6120   -6.8430    2.5740 oh        1 545     -0.606800
     30 C30        -8.8830   -5.1140    3.7130 c3        1 545      0.104400
     31 O31        -9.2970   -6.1730    4.5560 oh        1 545     -0.606800
     32 O64        -7.9400   -4.5270    0.9260 oh        1 545     -0.629800
     33 O13         2.0210    1.5310    2.8420 oh        1 545     -0.456100
     34 H8         -2.4540    1.0740    2.7200 ha        1 545      0.139000
     35 H7         -0.3690    2.3410    3.2700 ha        1 545      0.178500
     36 H11         2.0130   -0.9370    1.6980 ha        1 545      0.178500
     37 H10        -0.0610   -2.1800    1.1350 ha        1 545      0.139000
     38 H141       -3.4380   -1.0970    2.3000 hc        1 545      0.094700
     39 H142       -2.4220   -2.4770    1.6490 hc        1 545      0.094700
     40 H15        -2.4050   -1.5900   -0.6060 hx        1 545      0.152700
     41 H19        -4.4400   -2.9890    1.4190 hn        1 545      0.494300
     42 H20        -7.2360   -2.4350    0.5320 hx        1 545      0.183700
     43 H241       -6.7040    1.1590    3.4970 h1        1 545      0.069200
     44 H242       -7.4560    1.5780    1.8710 h1        1 545      0.069200
     45 H251       -8.9720    0.4070    4.3380 hc        1 545      0.067700
     46 H252       -9.7140    0.8010    2.7370 hc        1 545      0.067700
     47 H261       -9.0340    3.2150    3.0140 hc        1 545      0.048200
     48 H262       -8.2900    2.8220    4.6160 hc        1 545      0.048200
     49 H271      -10.5790    3.7680    4.8880 hc        1 545      0.050033
     50 H272      -10.5310    2.0520    5.4690 hc        1 545      0.050033
     51 H273      -11.2760    2.4450    3.8640 hc        1 545      0.050033
     52 H161       -3.7940    0.8490    0.4670 hn        1 545      0.489800
     53 H162       -3.3980    0.5470   -1.1380 hn        1 545      0.489800
     54 H6         -7.7040   -2.7880    2.9490 h1        1 545      0.128700
     55 H41        -6.8090   -3.6870    5.2830 h1        1 545      0.090200
     56 H42        -5.0580   -4.2310    5.2700 h1        1 545      0.090200
     57 H3         -6.8200   -6.0890    5.1510 h1        1 545      0.100700
     58 H1         -6.0820   -5.1370    1.6040 h1        1 545      0.064700
     59 H28        -4.7470   -2.0230    4.6020 ho        1 545      0.453000
     60 H32        -5.5210   -7.1200    3.5420 ho        1 545      0.438000
     61 H29        -8.1350   -7.3990    3.1730 ho        1 545      0.458000
     62 H301       -8.7860   -4.1700    4.3110 h1        1 545      0.048700
     63 H302       -9.6080   -4.9580    2.8710 h1        1 545      0.048700
     64 H31       -10.2420   -6.0610    4.7240 ho        1 545      0.443000
     65 H64        -8.4020   -5.3760    0.8330 ho        1 545      0.468000
     66 H13         2.8330    1.0270    2.6590 ho        1 545      0.453000
     67 H192       -5.3170   -3.5680    0.1090 hn        1 545      0.494300
     68 H163       -2.1800    0.7340    0.0240 hn        1 545      0.489800
@<TRIPOS>BOND
     1    1    2 ar  
     2    1    6 ar  
     3    1   34 1   
     4    2    3 ar  
     5    2   35 1   
     6    3    4 ar  
     7    3   33 1   
     8    4    5 ar  
     9    4   36 1   
    10    5    6 ar  
    11    5   37 1   
    12    6    7 1   
    13    7    8 1   
    14    7   38 1   
    15    7   39 1   
    16    8    9 1   
    17    8   19 1   
    18    8   40 1   
    19    9   10 1   
    20    9   18 2   
    21   10   11 1   
    22   10   41 1   
    23   10   67 1   
    24   11   12 1   
    25   11   21 1   
    26   11   42 1   
    27   12   13 1   
    28   12   20 2   
    29   13   14 1   
    30   14   15 1   
    31   14   43 1   
    32   14   44 1   
    33   15   16 1   
    34   15   45 1   
    35   15   46 1   
    36   16   17 1   
    37   16   47 1   
    38   16   48 1   
    39   17   49 1   
    40   17   50 1   
    41   17   51 1   
    42   19   52 1   
    43   19   53 1   
    44   19   68 1   
    45   21   22 1   
    46   21   26 1   
    47   21   54 1   
    48   22   23 1   
    49   22   27 1   
    50   23   24 1   
    51   23   55 1   
    52   23   56 1   
    53   24   25 1   
    54   24   28 1   
    55   24   57 1   
    56   25   26 1   
    57   25   29 1   
    58   25   30 1   
    59   26   32 1   
    60   26   58 1   
    61   27   59 1   
    62   28   60 1   
    63   29   61 1   
    64   30   31 1   
    65   30   62 1   
    66   30   63 1   
    67   31   64 1   
    68   32   65 1   
    69   33   66 1   
@<TRIPOS>SUBSTRUCTURE
     1 545         1 TEMP              0 ****  ****    0 ROOT
