@<TRIPOS>MOLECULE
545
   66    64     1     0     0
SMALL
bcc


@<TRIPOS>ATOM
      1 C8          2.6750   -5.4090   -0.1920 c1        1 545     -0.032500
      2 C7          3.6440   -6.3590   -0.4260 c1        1 545     -0.158500
      3 C12         4.5540   -6.6870    0.5750 c1        1 545      0.109600
      4 C11         4.4860   -6.0660    1.7920 c1        1 545     -0.056000
      5 C10         3.5120   -5.1100    2.0270 c1        1 545     -0.056000
      6 C9          2.6040   -4.7840    1.0260 c1        1 545     -0.086100
      7 C14         1.4610   -3.8310    1.3210 c3        1 545     -0.058300
      8 C15         1.8750   -2.4250    0.9750 c3        1 545      0.117500
      9 C17         0.6200   -1.5750    0.6980 c         1 545      0.625100
     10 N19         0.7270   -0.1070    0.6130 n         1 545     -0.558900
     11 C20        -0.4650    0.6950    0.4920 c3        1 545      0.065700
     12 C21        -0.6530    1.0930   -0.9390 c         1 545      0.639100
     13 O23        -1.3300    0.2210   -1.8360 os        1 545     -0.425900
     14 C24        -1.9140    0.8870   -2.9700 c3        1 545      0.142400
     15 C25        -2.4590   -0.1890   -3.9880 c3        1 545     -0.113400
     16 C26        -2.8490    0.4940   -5.2950 c3        1 545     -0.076400
     17 C27        -3.2790   -0.5690   -6.3160 c3        1 545     -0.092100
     18 O18        -0.4770   -2.1250    0.5510 o         1 545     -0.635100
     19 N16         2.5920   -1.8740    2.0500 n3        1 545     -0.885800
     20 O22        -0.1720    2.1190   -1.3460 o         1 545     -0.554000
     21 C6         -0.3300    1.9290    1.3420 c3        1 545      0.100500
     22 N5         -1.1100    1.7510    2.5650 n3        1 545     -0.473100
     23 C4         -1.1800    2.9810    3.3840 c3        1 545      0.101800
     24 C3         -1.6420    4.1950    2.5800 c3        1 545      0.128100
     25 C2         -0.8540    4.3840    1.3450 c3        1 545      0.091800
     26 C1         -0.7870    3.1450    0.5240 c3        1 545      0.150100
     27 O28        -0.5560    0.7280    3.3200 oh        1 545     -0.433300
     28 O32        -3.0140    4.0170    2.2250 oh        1 545     -0.588800
     29 O29         0.4610    4.7720    1.6940 oh        1 545     -0.608800
     30 C30        -1.5110    5.5160    0.5060 c3        1 545      0.102400
     31 O31        -1.9380    6.5530    1.3670 oh        1 545     -0.618800
     32 O64         0.1360    3.3540   -0.5480 oh        1 545     -0.594800
     33 O13         5.5940   -7.6030    0.3070 oh        1 545     -0.480600
     34 H8          2.0440   -5.1820   -0.8860 ha        1 545      0.073500
     35 H7          3.6910   -6.7970   -1.2840 ha        1 545      0.075500
     36 H11         5.1080   -6.2910    2.4770 ha        1 545      0.090000
     37 H10         3.4620   -4.6700    2.8870 ha        1 545      0.090000
     38 H141        0.6550   -4.0900    0.7690 hc        1 545      0.059200
     39 H142        1.2360   -3.8790    2.2660 hc        1 545      0.059200
     40 H15         2.4480   -2.4380    0.1710 h1        1 545      0.081700
     41 H19         1.5410    0.2850    0.5650 hn        1 545      0.327500
     42 H20        -1.2340    0.1800    0.7870 h1        1 545      0.124700
     43 H241       -1.2320    1.4450   -3.4130 h1        1 545      0.066200
     44 H242       -2.6660    1.4630   -2.6640 h1        1 545      0.066200
     45 H251       -3.2580   -0.6400   -3.5960 hc        1 545      0.057700
     46 H252       -1.7560   -0.8620   -4.1670 hc        1 545      0.057700
     47 H261       -3.5890    1.1090   -5.1320 hc        1 545      0.039200
     48 H262       -2.0780    0.9930   -5.6470 hc        1 545      0.039200
     49 H271       -4.1140   -0.9880   -6.0220 hc        1 545      0.034367
     50 H272       -3.4170   -0.1450   -7.1900 hc        1 545      0.034367
     51 H273       -2.5820   -1.2470   -6.3890 hc        1 545      0.034367
     52 H161        3.1680   -1.2250    1.7370 hn        1 545      0.362800
     53 H162        1.9980   -1.4960    2.6580 hn        1 545      0.362800
     54 H6          0.6350    2.0510    1.5880 h1        1 545      0.071700
     55 H41        -0.3100    3.1630    3.7440 h1        1 545      0.071200
     56 H42        -1.7870    2.8390    4.1000 h1        1 545      0.071200
     57 H3         -1.5580    5.0100    3.1440 h1        1 545      0.096700
     58 H1         -1.6870    2.9590    0.1430 h1        1 545      0.095700
     59 H28        -0.9610    0.6930    4.1210 ho        1 545      0.445000
     60 H32        -3.5400    4.4150    2.8430 ho        1 545      0.412000
     61 H29         0.4350    5.5630    2.1310 ho        1 545      0.435000
     62 H301       -2.2920    5.1540    0.0150 h1        1 545      0.054200
     63 H302       -0.8670    5.8660   -0.1260 h1        1 545      0.054200
     64 H31        -2.0650    7.2980    0.8960 ho        1 545      0.417000
     65 H64         0.8890    3.7730   -0.2270 ho        1 545      0.432000
     66 H13         5.2630   -8.4320    0.2750 ho        1 545      0.418000
@<TRIPOS>BOND
     1    1    6 3   
     2    1   34 1   
     3    2    3 3   
     4    2   35 1   
     5    3   33 1   
     6    4    5 3   
     7    4   36 1   
     8    5   37 1   
     9    6    7 1   
    10    7    8 1   
    11    7   38 1   
    12    7   39 1   
    13    8    9 1   
    14    8   19 1   
    15    8   40 1   
    16    9   10 1   
    17    9   18 2   
    18   10   11 1   
    19   10   41 1   
    20   11   12 1   
    21   11   21 1   
    22   11   42 1   
    23   12   13 1   
    24   12   20 2   
    25   13   14 1   
    26   14   15 1   
    27   14   43 1   
    28   14   44 1   
    29   15   16 1   
    30   15   45 1   
    31   15   46 1   
    32   16   17 1   
    33   16   47 1   
    34   16   48 1   
    35   17   49 1   
    36   17   50 1   
    37   17   51 1   
    38   19   52 1   
    39   19   53 1   
    40   21   22 1   
    41   21   26 1   
    42   21   54 1   
    43   22   23 1   
    44   22   27 1   
    45   23   24 1   
    46   23   55 1   
    47   23   56 1   
    48   24   25 1   
    49   24   28 1   
    50   24   57 1   
    51   25   26 1   
    52   25   29 1   
    53   25   30 1   
    54   26   32 1   
    55   26   58 1   
    56   27   59 1   
    57   28   60 1   
    58   29   61 1   
    59   30   31 1   
    60   30   62 1   
    61   30   63 1   
    62   31   64 1   
    63   32   65 1   
    64   33   66 1   
@<TRIPOS>SUBSTRUCTURE
     1 545         1 TEMP              0 ****  ****    0 ROOT
