@<TRIPOS>MOLECULE
545
   66    67     1     0     0
SMALL
bcc


@<TRIPOS>ATOM
      1 C8          0.1130   -0.8340   -6.0520 ca        1 545     -0.091500
      2 C7          0.1220   -0.3220   -7.3470 ca        1 545     -0.182000
      3 C12        -0.7970    0.6770   -7.6950 ca        1 545      0.128100
      4 C11        -1.7230    1.1610   -6.7550 ca        1 545     -0.182000
      5 C10        -1.7160    0.6360   -5.4680 ca        1 545     -0.091500
      6 C9         -0.8010   -0.3610   -5.1030 ca        1 545     -0.127300
      7 C14        -0.8080   -0.9170   -3.7260 c3        1 545     -0.072100
      8 C15         0.1290   -0.1220   -2.7930 c3        1 545      0.114500
      9 C17         0.0130   -0.7820   -1.4030 c         1 545      0.672100
     10 N19        -0.6110   -0.0660   -0.4080 n         1 545     -0.543900
     11 C20        -0.8000   -0.6030    0.9130 c3        1 545      0.074700
     12 C21        -2.1770   -0.2250    1.4500 c         1 545      0.627100
     13 O23        -2.2270   -0.1570    2.8150 os        1 545     -0.458900
     14 C24        -3.5170    0.1210    3.3960 c3        1 545      0.136400
     15 C25        -3.2840    0.2330    4.8910 c3        1 545     -0.086400
     16 C26        -4.5870    0.5300    5.6010 c3        1 545     -0.079400
     17 C27        -4.3820    0.6480    7.0890 c3        1 545     -0.093100
     18 O18         0.4510   -1.9350   -1.2020 o         1 545     -0.642100
     19 N16         1.5220   -0.0640   -3.1830 n3        1 545     -0.901800
     20 O22        -3.2110   -0.0170    0.8170 o         1 545     -0.523000
     21 C6          0.3170   -0.2080    1.9250 c3        1 545      0.082500
     22 N5          0.5250    1.2620    1.9730 n3        1 545     -0.451100
     23 C4          1.5480    1.5950    2.9850 c3        1 545      0.078800
     24 C3          2.8960    0.9300    2.7020 c3        1 545      0.117100
     25 C2          2.7710   -0.5980    2.5150 c3        1 545      0.077800
     26 C1          1.6290   -0.9340    1.5330 c3        1 545      0.136100
     27 O28        -0.6040    1.9230    2.1920 oh        1 545     -0.388300
     28 O32         3.5550    1.5050    1.5900 oh        1 545     -0.596800
     29 O29         3.9910   -1.1200    2.0010 oh        1 545     -0.596800
     30 C30         2.5840   -1.3040    3.8700 c3        1 545      0.146400
     31 O31         3.6870   -1.0740    4.7190 oh        1 545     -0.605800
     32 O64         1.3800   -2.3270    1.5870 oh        1 545     -0.598800
     33 O13        -0.8510    1.2340   -8.9510 oh        1 545     -0.495100
     34 H8          0.8260   -1.6260   -5.7770 ha        1 545      0.135500
     35 H7          0.8400   -0.6990   -8.0880 ha        1 545      0.145000
     36 H11        -2.4380    1.9420   -7.0500 ha        1 545      0.145000
     37 H10        -2.4410    1.0070   -4.7270 ha        1 545      0.135500
     38 H141       -0.4910   -1.9940   -3.7370 hc        1 545      0.068700
     39 H142       -1.8460   -0.8760   -3.3000 hc        1 545      0.068700
     40 H15        -0.2390    0.9470   -2.7630 h1        1 545      0.076700
     41 H19        -0.8140    0.8990   -0.5350 hn        1 545      0.340500
     42 H20        -0.7870   -1.7400    0.8540 h1        1 545      0.127700
     43 H241       -4.2110   -0.7210    3.1410 h1        1 545      0.058200
     44 H242       -3.9130    1.0750    2.9600 h1        1 545      0.058200
     45 H251       -2.5390    1.0470    5.0930 hc        1 545      0.051700
     46 H252       -2.8430   -0.7240    5.2760 hc        1 545      0.051700
     47 H261       -5.3260   -0.2860    5.3850 hc        1 545      0.044200
     48 H262       -5.0220    1.4850    5.2030 hc        1 545      0.044200
     49 H271       -5.3540    0.8660    7.5960 hc        1 545      0.036700
     50 H272       -3.9710   -0.3020    7.5080 hc        1 545      0.036700
     51 H273       -3.6680    1.4740    7.3260 hc        1 545      0.036700
     52 H161        1.9490   -0.9670   -3.1040 hn        1 545      0.364300
     53 H162        1.5930    0.2540   -4.1310 hn        1 545      0.364300
     54 H6         -0.0090   -0.6120    2.9330 h1        1 545      0.078700
     55 H41         1.2170    1.3140    4.0250 h1        1 545      0.068200
     56 H42         1.6820    2.7130    2.9460 h1        1 545      0.068200
     57 H3          3.5950    1.1230    3.5690 h1        1 545      0.110700
     58 H1          1.9490   -0.6240    0.4990 h1        1 545      0.062700
     59 H28        -1.0050    1.6640    3.0510 ho        1 545      0.387000
     60 H32         2.9300    1.5440    0.8540 ho        1 545      0.417000
     61 H29         4.3180   -0.5040    1.3310 ho        1 545      0.423000
     62 H301        1.6990   -0.8790    4.4110 h1        1 545      0.063700
     63 H302        2.4420   -2.4040    3.6920 h1        1 545      0.063700
     64 H31         4.4710   -1.4060    4.2590 ho        1 545      0.421000
     65 H64         1.3400   -2.6470    0.6740 ho        1 545      0.438000
     66 H13        -0.1740    0.8080   -9.4970 ho        1 545      0.421000
@<TRIPOS>BOND
     1    1    2 ar  
     2    1    6 ar  
     3    1   34 1   
     4    2    3 ar  
     5    2   35 1   
     6    3    4 ar  
     7    3   33 1   
     8    4    5 ar  
     9    4   36 1   
    10    5    6 ar  
    11    5   37 1   
    12    6    7 1   
    13    7    8 1   
    14    7   38 1   
    15    7   39 1   
    16    8    9 1   
    17    8   19 1   
    18    8   40 1   
    19    9   10 1   
    20    9   18 2   
    21   10   11 1   
    22   10   41 1   
    23   11   12 1   
    24   11   21 1   
    25   11   42 1   
    26   12   13 1   
    27   12   20 2   
    28   13   14 1   
    29   14   15 1   
    30   14   43 1   
    31   14   44 1   
    32   15   16 1   
    33   15   45 1   
    34   15   46 1   
    35   16   17 1   
    36   16   47 1   
    37   16   48 1   
    38   17   49 1   
    39   17   50 1   
    40   17   51 1   
    41   19   52 1   
    42   19   53 1   
    43   21   22 1   
    44   21   26 1   
    45   21   54 1   
    46   22   23 1   
    47   22   27 1   
    48   23   24 1   
    49   23   55 1   
    50   23   56 1   
    51   24   25 1   
    52   24   28 1   
    53   24   57 1   
    54   25   26 1   
    55   25   29 1   
    56   25   30 1   
    57   26   32 1   
    58   26   58 1   
    59   27   59 1   
    60   28   60 1   
    61   29   61 1   
    62   30   31 1   
    63   30   62 1   
    64   30   63 1   
    65   31   64 1   
    66   32   65 1   
    67   33   66 1   
@<TRIPOS>SUBSTRUCTURE
     1 545         1 TEMP              0 ****  ****    0 ROOT
