@<TRIPOS>MOLECULE
545
   68    69     1     0     0
SMALL
bcc


@<TRIPOS>ATOM
      1 C8         -1.4930    0.7240    2.5870 ca        1 545     -0.082500
      2 C7         -0.3730    1.4540    2.9450 ca        1 545     -0.178000
      3 C12         0.9090    0.8870    2.7570 ca        1 545      0.194100
      4 C11         1.0440   -0.4020    2.2140 ca        1 545     -0.178000
      5 C10        -0.0940   -1.1180    1.8610 ca        1 545     -0.082500
      6 C9         -1.3680   -0.5620    2.0310 ca        1 545     -0.254300
      7 C14        -2.5840   -1.3510    1.7120 c3        1 545     -0.043100
      8 C15        -3.0020   -1.1410    0.2420 c3        1 545      0.076500
      9 C17        -4.3630   -1.7410   -0.1410 c         1 545      0.532100
     10 N19        -4.9880   -2.7660    0.7450 n4        1 545     -0.651800
     11 C20        -6.3340   -2.3370    1.2900 c3        1 545      0.085500
     12 C21        -6.3510   -0.8540    1.6380 c         1 545      0.683100
     13 O23        -7.4670   -0.4580    2.2470 os        1 545     -0.371900
     14 C24        -7.5870    0.9610    2.5790 c3        1 545      0.148400
     15 C25        -8.9790    1.1140    3.1570 c3        1 545     -0.093400
     16 C26        -9.2180    2.5630    3.5340 c3        1 545     -0.076400
     17 C27       -10.5970    2.7460    4.1140 c3        1 545     -0.098100
     18 O18        -4.9430   -1.4550   -1.1810 o         1 545     -0.397100
     19 N16        -3.0020    0.3190   -0.1050 n4        1 545     -0.836600
     20 O22        -5.4430   -0.0570    1.3350 o         1 545     -0.658000
     21 C6         -6.7310   -3.2130    2.5090 c3        1 545      0.126500
     22 N5         -5.6820   -3.1990    3.5640 n3        1 545     -0.484100
     23 C4         -6.0920   -4.0390    4.7140 c3        1 545      0.106800
     24 C3         -6.4820   -5.4740    4.3360 c3        1 545      0.127100
     25 C2         -7.5150   -5.5180    3.1870 c3        1 545      0.090800
     26 C1         -6.9660   -4.6650    2.0290 c3        1 545      0.144100
     27 O28        -5.5230   -1.9100    3.9370 oh        1 545     -0.456300
     28 O32        -5.2930   -6.1310    3.9380 oh        1 545     -0.600800
     29 O29        -7.5610   -6.8360    2.6570 oh        1 545     -0.606800
     30 C30        -8.9110   -5.0800    3.6550 c3        1 545      0.104400
     31 O31        -9.3630   -6.1110    4.5130 oh        1 545     -0.606800
     32 O64        -7.8170   -4.5890    0.9050 oh        1 545     -0.629800
     33 O13         1.9640    1.6620    3.1270 oh        1 545     -0.456100
     34 H8         -2.4930    1.1450    2.7800 ha        1 545      0.139000
     35 H7         -0.4550    2.4590    3.3920 ha        1 545      0.178500
     36 H11         2.0440   -0.8480    2.0840 ha        1 545      0.178500
     37 H10         0.0170   -2.1380    1.4590 ha        1 545      0.139000
     38 H141       -3.4300   -1.0530    2.3940 hc        1 545      0.094700
     39 H142       -2.3650   -2.4450    1.8550 hc        1 545      0.094700
     40 H15        -2.2330   -1.6470   -0.4290 hx        1 545      0.152700
     41 H19        -4.3640   -2.9890    1.5370 hn        1 545      0.494300
     42 H20        -7.1090   -2.5060    0.4700 hx        1 545      0.183700
     43 H241       -7.4460    1.5520    1.6380 h1        1 545      0.069200
     44 H242       -6.7830    1.2050    3.3190 h1        1 545      0.069200
     45 H251       -9.0880    0.4590    4.0600 hc        1 545      0.067700
     46 H252       -9.7420    0.7820    2.4050 hc        1 545      0.067700
     47 H261       -8.4470    2.8900    4.2810 hc        1 545      0.048200
     48 H262       -9.1020    3.2130    2.6260 hc        1 545      0.048200
     49 H271      -10.7570    3.8180    4.3860 hc        1 545      0.050033
     50 H272      -11.3810    2.4490    3.3770 hc        1 545      0.050033
     51 H273      -10.7250    2.1270    5.0350 hc        1 545      0.050033
     52 H161       -3.2170    0.4550   -1.1000 hn        1 545      0.489800
     53 H162       -3.7060    0.8140    0.4670 hn        1 545      0.489800
     54 H6         -7.7130   -2.7720    2.8700 h1        1 545      0.128700
     55 H41        -5.1900   -4.0950    5.3910 h1        1 545      0.090200
     56 H42        -6.9440   -3.5710    5.2830 h1        1 545      0.090200
     57 H3         -6.9260   -5.9760    5.2440 h1        1 545      0.100700
     58 H1         -5.9950   -5.1520    1.7100 h1        1 545      0.064700
     59 H28        -4.8620   -1.9110    4.6560 ho        1 545      0.453000
     60 H32        -5.5270   -7.0530    3.7520 ho        1 545      0.438000
     61 H29        -8.1130   -7.3760    3.2470 ho        1 545      0.458000
     62 H301       -8.8580   -4.1130    4.2210 h1        1 545      0.048700
     63 H302       -9.5890   -4.9650    2.7680 h1        1 545      0.048700
     64 H31       -10.3180   -6.0040    4.6230 ho        1 545      0.443000
     65 H64        -8.2640   -5.4470    0.8190 ho        1 545      0.468000
     66 H13         2.7900    1.1620    3.0090 ho        1 545      0.453000
     67 H192       -5.1580   -3.6330    0.2050 hn        1 545      0.494300
     68 H163       -2.0680    0.7030    0.1190 hn        1 545      0.489800
@<TRIPOS>BOND
     1    1    2 ar  
     2    1    6 ar  
     3    1   34 1   
     4    2    3 ar  
     5    2   35 1   
     6    3    4 ar  
     7    3   33 1   
     8    4    5 ar  
     9    4   36 1   
    10    5    6 ar  
    11    5   37 1   
    12    6    7 1   
    13    7    8 1   
    14    7   38 1   
    15    7   39 1   
    16    8    9 1   
    17    8   19 1   
    18    8   40 1   
    19    9   10 1   
    20    9   18 2   
    21   10   11 1   
    22   10   41 1   
    23   10   67 1   
    24   11   12 1   
    25   11   21 1   
    26   11   42 1   
    27   12   13 1   
    28   12   20 2   
    29   13   14 1   
    30   14   15 1   
    31   14   43 1   
    32   14   44 1   
    33   15   16 1   
    34   15   45 1   
    35   15   46 1   
    36   16   17 1   
    37   16   47 1   
    38   16   48 1   
    39   17   49 1   
    40   17   50 1   
    41   17   51 1   
    42   19   52 1   
    43   19   53 1   
    44   19   68 1   
    45   21   22 1   
    46   21   26 1   
    47   21   54 1   
    48   22   23 1   
    49   22   27 1   
    50   23   24 1   
    51   23   55 1   
    52   23   56 1   
    53   24   25 1   
    54   24   28 1   
    55   24   57 1   
    56   25   26 1   
    57   25   29 1   
    58   25   30 1   
    59   26   32 1   
    60   26   58 1   
    61   27   59 1   
    62   28   60 1   
    63   29   61 1   
    64   30   31 1   
    65   30   62 1   
    66   30   63 1   
    67   31   64 1   
    68   32   65 1   
    69   33   66 1   
@<TRIPOS>SUBSTRUCTURE
     1 545         1 TEMP              0 ****  ****    0 ROOT
