@<TRIPOS>MOLECULE
545
   68    69     1     0     0
SMALL
bcc


@<TRIPOS>ATOM
      1 C8         -1.4460    0.6090    2.5140 ca        1 545     -0.082500
      2 C7         -0.2990    1.3040    2.8530 ca        1 545     -0.178000
      3 C12         0.9630    0.7170    2.6030 ca        1 545      0.194100
      4 C11         1.0510   -0.5570    2.0160 ca        1 545     -0.178000
      5 C10        -0.1140   -1.2380    1.6820 ca        1 545     -0.082500
      6 C9         -1.3690   -0.6610    1.9140 ca        1 545     -0.254300
      7 C14        -2.6130   -1.4140    1.6150 c3        1 545     -0.043100
      8 C15        -3.0770   -1.1490    0.1690 c3        1 545      0.076500
      9 C17        -4.4630   -1.7090   -0.1840 c         1 545      0.532100
     10 N19        -5.0790   -2.7480    0.6920 ny        1 545     -0.651800
     11 C20        -6.3950   -2.3080    1.2980 c3        1 545      0.085500
     12 C21        -6.3670   -0.8370    1.6910 c         1 545      0.683100
     13 O23        -7.4530   -0.4370    2.3520 os        1 545     -0.371900
     14 C24        -7.5300    0.9740    2.7310 c3        1 545      0.148400
     15 C25        -8.8960    1.1370    3.3640 c3        1 545     -0.093400
     16 C26        -9.0900    2.5790    3.7920 c3        1 545     -0.076400
     17 C27       -10.4430    2.7720    4.4280 c3        1 545     -0.098100
     18 O18        -5.0730   -1.3790   -1.1930 o         1 545     -0.397100
     19 N16        -3.0570    0.3200   -0.1340 nz        1 545     -0.835600
     20 O22        -5.4540   -0.0500    1.3810 o         1 545     -0.658000
     21 C6         -6.7670   -3.2130    2.5030 c3        1 545      0.126500
     22 N5         -5.6820   -3.2540    3.5190 n3        1 545     -0.484100
     23 C4         -6.0690   -4.1210    4.6580 c3        1 545      0.106800
     24 C3         -6.5030   -5.5340    4.2510 c3        1 545      0.127100
     25 C2         -7.5770   -5.5220    3.1390 c3        1 545      0.090800
     26 C1         -7.0510   -4.6450    1.9880 c3        1 545      0.144100
     27 O28        -5.4820   -1.9810    3.9250 oh        1 545     -0.456300
     28 O32        -5.3430   -6.2040    3.7900 oh        1 545     -0.600800
     29 O29        -7.6710   -6.8220    2.5720 oh        1 545     -0.606800
     30 C30        -8.9460   -5.0700    3.6700 c3        1 545      0.104400
     31 O31        -9.3900   -6.1170    4.5130 oh        1 545     -0.606800
     32 O64        -7.9390   -4.5160    0.8980 oh        1 545     -0.629800
     33 O13         2.0470    1.4580    2.9590 oh        1 545     -0.456100
     34 H8         -2.4300    1.0450    2.7560 ha        1 545      0.139000
     35 H7         -0.3430    2.2960    3.3330 ha        1 545      0.178500
     36 H11         2.0350   -1.0200    1.8370 ha        1 545      0.178500
     37 H10        -0.0400   -2.2470    1.2450 ha        1 545      0.139000
     38 H141       -3.4270   -1.1200    2.3360 hc        1 545      0.094700
     39 H142       -2.4130   -2.5160    1.7170 hc        1 545      0.094700
     40 H15        -2.3440   -1.6500   -0.5460 hx        1 545      0.152700
     41 H19        -5.2870   -3.5930    0.1320 hn        1 545      0.494300
     42 H20        -7.2030   -2.4360    0.5020 hx        1 545      0.183700
     43 H241       -6.6950    1.1770    3.4480 h1        1 545      0.069200
     44 H242       -7.4090    1.5900    1.8040 h1        1 545      0.069200
     45 H251       -8.9870    0.4570    4.2500 hc        1 545      0.067700
     46 H252       -9.6920    0.8430    2.6300 hc        1 545      0.067700
     47 H261       -8.9930    3.2530    2.9000 hc        1 545      0.048200
     48 H262       -8.2860    2.8670    4.5200 hc        1 545      0.048200
     49 H271      -10.5520    2.1280    5.3340 hc        1 545      0.050033
     50 H272      -11.2590    2.5130    3.7110 hc        1 545      0.050033
     51 H273      -10.5700    3.8380    4.7360 hc        1 545      0.050033
     52 H161       -2.1070    0.6770    0.0680 hn        1 545      0.489800
     53 H162       -3.7290    0.8110    0.4780 hn        1 545      0.489800
     54 H6         -7.7260   -2.7640    2.9120 h1        1 545      0.128700
     55 H41        -5.1460   -4.2160    5.3000 h1        1 545      0.090200
     56 H42        -6.8900   -3.6530    5.2710 h1        1 545      0.090200
     57 H3         -6.9250   -6.0560    5.1580 h1        1 545      0.100700
     58 H1         -6.1030   -5.1410    1.6200 h1        1 545      0.064700
     59 H28        -4.7960   -2.0180    4.6200 ho        1 545      0.453000
     60 H32        -5.6040   -7.1140    3.5850 ho        1 545      0.438000
     61 H29        -8.2130   -7.3680    3.1640 ho        1 545      0.458000
     62 H301       -8.8510   -4.1220    4.2620 h1        1 545      0.048700
     63 H302       -9.6520   -4.9130    2.8120 h1        1 545      0.048700
     64 H31       -10.3370   -5.9940    4.6600 ho        1 545      0.443000
     65 H64        -8.4080   -5.3620    0.8020 ho        1 545      0.468000
     66 H13         2.8580    0.9450    2.7950 ho        1 545      0.453000
     67 H192       -4.4320   -3.0090    1.4530 hn        1 545      0.494300
     68 H163       -3.3050    0.4910   -1.1150 hn        1 545      0.489800
@<TRIPOS>BOND
     1    1    2 ar  
     2    1    6 ar  
     3    1   34 1   
     4    2    3 ar  
     5    2   35 1   
     6    3    4 ar  
     7    3   33 1   
     8    4    5 ar  
     9    4   36 1   
    10    5    6 ar  
    11    5   37 1   
    12    6    7 1   
    13    7    8 1   
    14    7   38 1   
    15    7   39 1   
    16    8    9 1   
    17    8   19 1   
    18    8   40 1   
    19    9   10 1   
    20    9   18 2   
    21   10   11 1   
    22   10   41 1   
    23   10   67 1   
    24   11   12 1   
    25   11   21 1   
    26   11   42 1   
    27   12   13 1   
    28   12   20 2   
    29   13   14 1   
    30   14   15 1   
    31   14   43 1   
    32   14   44 1   
    33   15   16 1   
    34   15   45 1   
    35   15   46 1   
    36   16   17 1   
    37   16   47 1   
    38   16   48 1   
    39   17   49 1   
    40   17   50 1   
    41   17   51 1   
    42   19   52 1   
    43   19   53 1   
    44   19   68 1   
    45   21   22 1   
    46   21   26 1   
    47   21   54 1   
    48   22   23 1   
    49   22   27 1   
    50   23   24 1   
    51   23   55 1   
    52   23   56 1   
    53   24   25 1   
    54   24   28 1   
    55   24   57 1   
    56   25   26 1   
    57   25   29 1   
    58   25   30 1   
    59   26   32 1   
    60   26   58 1   
    61   27   59 1   
    62   28   60 1   
    63   29   61 1   
    64   30   31 1   
    65   30   62 1   
    66   30   63 1   
    67   31   64 1   
    68   32   65 1   
    69   33   66 1   
@<TRIPOS>SUBSTRUCTURE
     1 545         1 TEMP              0 ****  ****    0 ROOT
