@<TRIPOS>MOLECULE
546
   41    44     1     0     0
SMALL
bcc


@<TRIPOS>ATOM
      1 C1          0.0200   -0.2440    0.0330 c3        1 546     -0.065800
      2 N1          4.2840    0.3950   -0.0280 nb        1 546     -0.681000
      3 O1          4.9410   -3.9200   -1.8030 os        1 546     -0.441100
      4 C2          1.4840   -0.0340   -0.0020 ca        1 546      0.007700
      5 N2          0.5510    0.9910   -2.8760 nc        1 546     -0.550300
      6 C3          2.2160    0.0540    1.1910 ca        1 546     -0.261300
      7 N3          1.6990   -0.8610   -3.5230 na        1 546     -0.178000
      8 C4          3.6010    0.2700    1.1280 ca        1 546      0.405200
      9 N4          3.3330   -2.3600   -2.5990 nb        1 546     -0.744000
     10 C5          3.5820    0.3100   -1.1710 ca        1 546      0.444200
     11 N5          1.5860   -2.3840   -5.9280 nc        1 546     -0.656000
     12 C6          2.1860    0.0980   -1.2130 ca        1 546     -0.214200
     13 C7          1.4880    0.0790   -2.4970 cd        1 546      0.447400
     14 C8          0.1390    0.6540   -4.1630 cc        1 546      0.068400
     15 C9          0.8350   -0.5010   -4.5980 cd        1 546     -0.223600
     16 C10         2.5110   -2.0040   -3.6350 ca        1 546      0.461500
     17 C11         2.4210   -2.7480   -4.8710 ca        1 546      0.233300
     18 C12         3.2360   -3.9060   -4.9880 ca        1 546     -0.091300
     19 C13         4.0650   -4.2760   -3.9540 ca        1 546     -0.264300
     20 C14         4.0790   -3.4680   -2.7760 ca        1 546      0.658600
     21 C15         5.0390   -3.1730   -0.5890 c3        1 546      0.119700
     22 C16         0.8320   -1.3150   -5.8020 cd        1 546      0.484600
     23 C17        -0.0700   -0.8810   -6.9110 c3        1 546     -0.152400
     24 C18        -0.8760    1.4170   -4.9110 c3        1 546     -0.024900
     25 H1         -0.2930   -0.9800   -0.7500 hc        1 546      0.057367
     26 H1A        -0.5050    0.7240   -0.1710 hc        1 546      0.057367
     27 H1B        -0.3090   -0.6230    1.0310 hc        1 546      0.057367
     28 H3          1.7120   -0.0410    2.1620 ha        1 546      0.145000
     29 H4          4.2030    0.3510    2.0510 h4        1 546      0.021100
     30 H5          4.1630    0.4170   -2.1050 h4        1 546      0.029100
     31 H12         3.1970   -4.5020   -5.9150 ha        1 546      0.164000
     32 H13         4.7110   -5.1630   -4.0030 ha        1 546      0.168000
     33 H15         5.3850   -2.1310   -0.7930 h1        1 546      0.057033
     34 H15A        4.0600   -3.1670   -0.0540 h1        1 546      0.057033
     35 H15B        5.8080   -3.7440   -0.0090 h1        1 546      0.057033
     36 H17        -0.1270   -1.6430   -7.7280 hc        1 546      0.062367
     37 H17A       -1.0990   -0.7090   -6.5070 hc        1 546      0.062367
     38 H17B        0.3150    0.0760   -7.3430 hc        1 546      0.062367
     39 H18        -1.1060    2.3910   -4.4100 hc        1 546      0.053033
     40 H18A       -0.5110    1.6280   -5.9470 hc        1 546      0.053033
     41 H18B       -1.8240    0.8250   -4.9780 hc        1 546      0.053033
@<TRIPOS>BOND
     1    1    4 1   
     2    1   25 1   
     3    1   26 1   
     4    1   27 1   
     5    2    8 ar  
     6    2   10 ar  
     7    3   20 1   
     8    3   21 1   
     9    4    6 ar  
    10    4   12 ar  
    11    5   13 2   
    12    5   14 1   
    13    6    8 ar  
    14    6   28 1   
    15    7   13 1   
    16    7   15 1   
    17    7   16 1   
    18    8   29 1   
    19    9   16 ar  
    20    9   20 ar  
    21   10   12 ar  
    22   10   30 1   
    23   11   17 1   
    24   11   22 2   
    25   12   13 1   
    26   14   15 2   
    27   14   24 1   
    28   15   22 1   
    29   16   17 ar  
    30   17   18 ar  
    31   18   19 ar  
    32   18   31 1   
    33   19   20 ar  
    34   19   32 1   
    35   21   33 1   
    36   21   34 1   
    37   21   35 1   
    38   22   23 1   
    39   23   36 1   
    40   23   37 1   
    41   23   38 1   
    42   24   39 1   
    43   24   40 1   
    44   24   41 1   
@<TRIPOS>SUBSTRUCTURE
     1 546         1 TEMP              0 ****  ****    0 ROOT
