@<TRIPOS>MOLECULE
546
   41    35     1     0     0
SMALL
bcc


@<TRIPOS>ATOM
      1 C1         -2.4950    1.0720    3.0700 c3        1 546     -0.190000
      2 N1          1.1230   -1.0190    3.4700 n1        1 546     -0.146000
      3 O1          1.2860    3.9650   -1.4190 os        1 546     -0.174000
      4 C2         -1.1700    0.3700    2.8630 c2        1 546      0.016000
      5 N2         -1.7520   -1.5570    0.6340 n2        1 546     -0.125000
      6 C3         -0.6510    0.4260    4.1250 c2        1 546     -0.195000
      7 N3         -0.3550   -0.4500   -0.6760 n1        1 546     -0.081000
      8 C4          0.5050   -0.2750    4.4290 c1        1 546     -0.053000
      9 N4          0.7170    1.6950   -0.7180 n1        1 546     -0.161000
     10 C5          0.6070   -1.0760    2.2110 c1        1 546     -0.013000
     11 N5          0.9290   -1.1230   -3.0130 n1        1 546     -0.134000
     12 C6         -0.5500   -0.3760    1.9040 c1        1 546     -0.072000
     13 C7         -1.0850   -0.3830    0.4870 c1        1 546      0.050000
     14 C8         -1.4480   -2.3400   -0.4100 c1        1 546     -0.064000
     15 C9         -0.5720   -1.6410   -1.2290 c1        1 546     -0.139000
     16 C10         0.5130    0.4440   -1.2780 c1        1 546      0.109000
     17 C11         1.1520    0.1020   -2.4460 c1        1 546     -0.096000
     18 C12         2.0010    1.0100   -3.0630 c1        1 546     -0.017000
     19 C13         2.2010    2.2440   -2.5090 c1        1 546     -0.250000
     20 C14         1.5530    2.5890   -1.3260 c1        1 546      0.151000
     21 C15         2.1650    4.7690   -0.6670 c3        1 546     -0.080000
     22 C16         0.0840   -1.9920   -2.4280 c1        1 546      0.067000
     23 C17         0.4010   -3.3340   -3.0490 c3        1 546     -0.177000
     24 C18        -2.6580   -3.2410   -0.5120 c2        1 546     -0.148000
     25 H1         -2.9560    1.1580    2.2100 hc        1 546      0.095000
     26 H1A        -3.0480    0.5490    3.6870 hc        1 546      0.095000
     27 H1B        -2.3370    1.9620    3.4470 hc        1 546      0.095000
     28 H3         -1.0940    0.9590    4.8120 ha        1 546      0.143000
     29 H4          0.8760   -0.2350    5.3310 ha        1 546      0.157000
     30 H5          1.0500   -1.6090    1.5250 ha        1 546      0.163000
     31 H12         2.4550    0.7680   -3.8930 ha        1 546      0.162000
     32 H13         2.7980    2.8830   -2.9420 ha        1 546      0.155000
     33 H15         3.0320    4.3170   -0.5830 h1        1 546      0.091000
     34 H15A        1.7870    4.9210    0.2260 h1        1 546      0.091000
     35 H15B        2.2890    5.6310   -1.1200 h1        1 546      0.091000
     36 H17         0.4030   -4.0240   -2.3520 hc        1 546      0.102000
     37 H17A        1.2830   -3.2980   -3.4740 hc        1 546      0.102000
     38 H17B       -0.2780   -3.5520   -3.7210 hc        1 546      0.102000
     39 H18        -3.4020   -2.7450   -0.9130 ha        1 546      0.092667
     40 H18A       -2.4430   -4.0160   -1.0720 ha        1 546      0.092667
     41 H18B       -2.9150   -3.5460    0.3840 ha        1 546      0.092667
@<TRIPOS>BOND
     1    1    4 1   
     2    1   25 1   
     3    1   26 1   
     4    1   27 1   
     5    2   10 1   
     6    3   20 1   
     7    3   21 1   
     8    4    6 1   
     9    4   12 1   
    10    5   13 1   
    11    5   14 1   
    12    6    8 1   
    13    6   28 1   
    14    7   15 1   
    15    8   29 1   
    16    9   16 1   
    17   10   30 1   
    18   11   22 1   
    19   12   13 1   
    20   14   15 1   
    21   16   17 1   
    22   17   18 1   
    23   18   31 1   
    24   19   20 1   
    25   19   32 1   
    26   21   33 1   
    27   21   34 1   
    28   21   35 1   
    29   22   23 1   
    30   23   36 1   
    31   23   37 1   
    32   23   38 1   
    33   24   39 1   
    34   24   40 1   
    35   24   41 1   
@<TRIPOS>SUBSTRUCTURE
     1 546         1 TEMP              0 ****  ****    0 ROOT
