@<TRIPOS>MOLECULE
546
   41    44     1     0     0
SMALL
bcc


@<TRIPOS>ATOM
      1 C1          0.0210   -0.2390    0.0310 c3        1 546     -0.065800
      2 N1          4.2870    0.3940   -0.0290 nb        1 546     -0.681000
      3 O1          4.9350   -3.9250   -1.7990 os        1 546     -0.441100
      4 C2          1.4860   -0.0310   -0.0030 ca        1 546      0.007700
      5 N2          0.5550    0.9930   -2.8780 nc        1 546     -0.550300
      6 C3          2.2180    0.0570    1.1900 ca        1 546     -0.261300
      7 N3          1.7000   -0.8610   -3.5230 na        1 546     -0.178000
      8 C4          3.6030    0.2710    1.1270 ca        1 546      0.405200
      9 N4          3.3310   -2.3620   -2.5970 nb        1 546     -0.744000
     10 C5          3.5840    0.3090   -1.1730 ca        1 546      0.444200
     11 N5          1.5840   -2.3870   -5.9260 nc        1 546     -0.656000
     12 C6          2.1880    0.0990   -1.2140 ca        1 546     -0.214200
     13 C7          1.4900    0.0800   -2.4980 cd        1 546      0.447400
     14 C8          0.1430    0.6560   -4.1650 cc        1 546      0.068400
     15 C9          0.8360   -0.5010   -4.5990 cd        1 546     -0.223600
     16 C10         2.5090   -2.0060   -3.6340 ca        1 546      0.461500
     17 C11         2.4180   -2.7500   -4.8690 ca        1 546      0.233300
     18 C12         3.2310   -3.9110   -4.9850 ca        1 546     -0.091300
     19 C13         4.0590   -4.2820   -3.9500 ca        1 546     -0.264300
     20 C14         4.0750   -3.4720   -2.7730 ca        1 546      0.658600
     21 C15         5.0350   -3.1760   -0.5860 c3        1 546      0.119700
     22 C16         0.8320   -1.3160   -5.8020 cd        1 546      0.484600
     23 C17        -0.0700   -0.8810   -6.9120 c3        1 546     -0.152400
     24 C18        -0.8710    1.4210   -4.9140 c3        1 546     -0.024900
     25 H1         -0.2930   -0.9740   -0.7500 hc        1 546      0.057367
     26 H1A        -0.5030    0.7300   -0.1730 hc        1 546      0.057367
     27 H1B        -0.3090   -0.6160    1.0300 hc        1 546      0.057367
     28 H3          1.7140   -0.0370    2.1610 ha        1 546      0.145000
     29 H4          4.2050    0.3510    2.0500 h4        1 546      0.021100
     30 H5          4.1660    0.4140   -2.1070 h4        1 546      0.029100
     31 H12         3.1910   -4.5070   -5.9120 ha        1 546      0.164000
     32 H13         4.7030   -5.1700   -3.9990 ha        1 546      0.168000
     33 H15         5.3830   -2.1350   -0.7920 h1        1 546      0.057033
     34 H15A        4.0550   -3.1680   -0.0520 h1        1 546      0.057033
     35 H15B        5.8030   -3.7490   -0.0050 h1        1 546      0.057033
     36 H17        -0.1270   -1.6440   -7.7270 hc        1 546      0.062367
     37 H17A       -1.0980   -0.7070   -6.5080 hc        1 546      0.062367
     38 H17B        0.3180    0.0750   -7.3440 hc        1 546      0.062367
     39 H18        -1.0990    2.3960   -4.4140 hc        1 546      0.053033
     40 H18A       -0.5050    1.6300   -5.9500 hc        1 546      0.053033
     41 H18B       -1.8200    0.8300   -4.9810 hc        1 546      0.053033
@<TRIPOS>BOND
     1    1    4 1   
     2    1   25 1   
     3    1   26 1   
     4    1   27 1   
     5    2    8 ar  
     6    2   10 ar  
     7    3   20 1   
     8    3   21 1   
     9    4    6 ar  
    10    4   12 ar  
    11    5   13 2   
    12    5   14 1   
    13    6    8 ar  
    14    6   28 1   
    15    7   13 1   
    16    7   15 1   
    17    7   16 1   
    18    8   29 1   
    19    9   16 ar  
    20    9   20 ar  
    21   10   12 ar  
    22   10   30 1   
    23   11   17 1   
    24   11   22 2   
    25   12   13 1   
    26   14   15 2   
    27   14   24 1   
    28   15   22 1   
    29   16   17 ar  
    30   17   18 ar  
    31   18   19 ar  
    32   18   31 1   
    33   19   20 ar  
    34   19   32 1   
    35   21   33 1   
    36   21   34 1   
    37   21   35 1   
    38   22   23 1   
    39   23   36 1   
    40   23   37 1   
    41   23   38 1   
    42   24   39 1   
    43   24   40 1   
    44   24   41 1   
@<TRIPOS>SUBSTRUCTURE
     1 546         1 TEMP              0 ****  ****    0 ROOT
