@<TRIPOS>MOLECULE
546
   41    44     1     0     0
SMALL
bcc


@<TRIPOS>ATOM
      1 C1          1.4730    2.8460    1.8250 c3        1 546     -0.065800
      2 N1          3.3680    0.8210   -1.4770 nb        1 546     -0.681000
      3 O1          2.0820   -3.3500    0.2990 os        1 546     -0.441100
      4 C2          2.1110    2.1400    0.6920 ca        1 546      0.007700
      5 N2         -0.8700    2.6000   -0.3490 nc        1 546     -0.550300
      6 C3          3.5070    2.1350    0.5560 ca        1 546     -0.261300
      7 N3         -0.9240    0.3390   -0.1260 na        1 546     -0.178000
      8 C4          4.0840    1.4700   -0.5370 ca        1 546      0.405200
      9 N4          0.6420   -1.4710    0.0800 nb        1 546     -0.744000
     10 C5          2.0300    0.8260   -1.3460 ca        1 546      0.444200
     11 N5         -3.1170   -1.4630    0.1120 nc        1 546     -0.656000
     12 C6          1.3550    1.4680   -0.2840 ca        1 546     -0.214200
     13 C7         -0.1060    1.4780   -0.2470 cd        1 546      0.447400
     14 C8         -2.2030    2.2020   -0.2960 cc        1 546      0.068400
     15 C9         -2.2750    0.7950   -0.1540 cd        1 546     -0.223600
     16 C10        -0.6540   -1.0320    0.0390 ca        1 546      0.461500
     17 C11        -1.7960   -1.9090    0.1560 ca        1 546      0.233300
     18 C12        -1.5300   -3.2960    0.3260 ca        1 546     -0.092300
     19 C13        -0.2320   -3.7500    0.3710 ca        1 546     -0.264300
     20 C14         0.8240   -2.7960    0.2430 ca        1 546      0.658600
     21 C15         3.2080   -2.4800    0.1670 c3        1 546      0.119700
     22 C16        -3.3480   -0.1780   -0.0350 cd        1 546      0.484600
     23 C17        -4.7460    0.3480   -0.0790 c3        1 546     -0.152400
     24 C18        -3.3310    3.1470   -0.3930 c3        1 546     -0.024900
     25 H1          1.0530    3.8230    1.4720 hc        1 546      0.057367
     26 H1A         0.6320    2.2400    2.2460 hc        1 546      0.057367
     27 H1B         2.2100    3.0500    2.6390 hc        1 546      0.057367
     28 H3          4.1410    2.6470    1.2920 ha        1 546      0.145000
     29 H4          5.1800    1.4560   -0.6750 h4        1 546      0.021100
     30 H5          1.4650    0.2880   -2.1280 h4        1 546      0.029100
     31 H12        -2.3740   -3.9990    0.4190 ha        1 546      0.164000
     32 H13         0.0170   -4.8110    0.5010 ha        1 546      0.168000
     33 H15         3.1880   -1.9560   -0.8180 h1        1 546      0.057033
     34 H15A        3.2350   -1.7460    1.0060 h1        1 546      0.057033
     35 H15B        4.0750   -3.1880    0.2270 h1        1 546      0.057033
     36 H17        -5.5000   -0.4740   -0.1620 hc        1 546      0.062367
     37 H17A       -4.9490    0.9250    0.8580 hc        1 546      0.062367
     38 H17B       -4.8590    1.0300   -0.9580 hc        1 546      0.062367
     39 H18        -3.8380    3.0310   -1.3840 hc        1 546      0.053367
     40 H18A       -4.0750    2.9390    0.4170 hc        1 546      0.053367
     41 H18B       -2.9860    4.2070   -0.2960 hc        1 546      0.053367
@<TRIPOS>BOND
     1    1    4 1   
     2    1   25 1   
     3    1   26 1   
     4    1   27 1   
     5    2    8 ar  
     6    2   10 ar  
     7    3   20 1   
     8    3   21 1   
     9    4    6 ar  
    10    4   12 ar  
    11    5   13 2   
    12    5   14 1   
    13    6    8 ar  
    14    6   28 1   
    15    7   13 1   
    16    7   15 1   
    17    7   16 1   
    18    8   29 1   
    19    9   16 ar  
    20    9   20 ar  
    21   10   12 ar  
    22   10   30 1   
    23   11   17 1   
    24   11   22 2   
    25   12   13 1   
    26   14   15 2   
    27   14   24 1   
    28   15   22 1   
    29   16   17 ar  
    30   17   18 ar  
    31   18   19 ar  
    32   18   31 1   
    33   19   20 ar  
    34   19   32 1   
    35   21   33 1   
    36   21   34 1   
    37   21   35 1   
    38   22   23 1   
    39   23   36 1   
    40   23   37 1   
    41   23   38 1   
    42   24   39 1   
    43   24   40 1   
    44   24   41 1   
@<TRIPOS>SUBSTRUCTURE
     1 546         1 TEMP              0 ****  ****    0 ROOT
