@<TRIPOS>MOLECULE
547
   56    60     1     0     0
SMALL
bcc


@<TRIPOS>ATOM
      1 C1          2.3470   -4.4780    0.6150 ca        1 547      0.447200
      2 N2          2.1310   -5.7800    0.3390 nb        1 547     -0.677000
      3 C3          1.5620   -6.4510    1.3670 ca        1 547      0.595600
      4 C4          1.1960   -5.9200    2.6480 ca        1 547     -0.274100
      5 C5          1.4330   -4.5440    2.8880 ca        1 547      0.257600
      6 C6          2.0380   -3.8290    1.8230 ca        1 547     -0.346300
      7 O9          1.2560   -7.8150    1.3120 os        1 547     -0.304400
      8 C10         0.6960   -8.1410    2.5730 cc        1 547      0.102900
      9 C11         0.6480   -7.0330    3.4020 cd        1 547     -0.050400
     10 C12         0.1700   -6.9560    4.7690 ca        1 547     -0.041800
     11 C13        -1.0330   -6.2980    5.0620 ca        1 547     -0.118000
     12 C14        -1.4860   -6.2180    6.3780 ca        1 547     -0.136500
     13 C15        -0.7440   -6.7890    7.4110 ca        1 547     -0.127000
     14 C16         0.4550   -7.4420    7.1270 ca        1 547     -0.136500
     15 C17         0.9120   -7.5280    5.8130 ca        1 547     -0.118000
     16 C23         0.3000   -9.5240    2.7110 ca        1 547     -0.043800
     17 C24        -0.5570   -9.9190    3.7490 ca        1 547     -0.101500
     18 C25        -0.9350  -11.2550    3.8750 ca        1 547     -0.136000
     19 C26        -0.4660  -12.2060    2.9700 ca        1 547     -0.117000
     20 C27         0.3830  -11.8190    1.9320 ca        1 547     -0.136000
     21 C28         0.7660  -10.4870    1.7990 ca        1 547     -0.101500
     22 N34         1.0300   -3.9450    4.0660 nh        1 547     -0.750600
     23 C35         1.5680   -2.6610    4.4440 c3        1 547      0.198800
     24 C36         1.2070   -2.2920    5.9020 c3        1 547      0.161800
     25 N39         1.6740   -0.9580    6.2490 n3        1 547     -0.733600
     26 C42         0.8800   -0.3620    7.3160 c3        1 547      0.169300
     27 C43         1.3770    1.0420    7.7160 c3        1 547      0.161800
     28 N44         2.7990    1.0790    7.9900 n3        1 547     -0.820200
     29 C45         3.5950    0.4860    6.9340 c3        1 547      0.161800
     30 C46         3.1030   -0.9180    6.5320 c3        1 547      0.169300
     31 H1          2.8130   -3.9060   -0.2090 h4        1 547      0.025100
     32 H6          2.2630   -2.7590    1.9240 ha        1 547      0.147000
     33 H13        -1.6190   -5.8470    4.2460 ha        1 547      0.146000
     34 H14        -2.4350   -5.7060    6.5980 ha        1 547      0.136000
     35 H15        -1.1050   -6.7260    8.4490 ha        1 547      0.134000
     36 H16         1.0420   -7.8940    7.9400 ha        1 547      0.136000
     37 H17         1.8560   -8.0480    5.5900 ha        1 547      0.146000
     38 H24        -0.9300   -9.1700    4.4640 ha        1 547      0.149000
     39 H25        -1.6070  -11.5550    4.6920 ha        1 547      0.135000
     40 H26        -0.7670  -13.2590    3.0720 ha        1 547      0.133000
     41 H27         0.7520  -12.5670    1.2150 ha        1 547      0.135000
     42 H28         1.4320  -10.1800    0.9780 ha        1 547      0.149000
     43 HN34        0.7890   -4.5650    4.8100 hn        1 547      0.429800
     44 H351        1.1410   -1.8840    3.7470 h1        1 547      0.050700
     45 H352        2.6910   -2.6520    4.3200 h1        1 547      0.050700
     46 H361        1.6310   -3.0770    6.5950 h1        1 547      0.040700
     47 H362        0.0850   -2.3160    6.0070 h1        1 547      0.040700
     48 H421        0.8630   -1.0150    8.2360 h1        1 547      0.038200
     49 H422       -0.1770   -0.2580    6.9430 h1        1 547      0.038200
     50 H431        1.0790    1.7670    6.9030 h1        1 547      0.036200
     51 H432        0.8400    1.3420    8.6590 h1        1 547      0.036200
     52 HN44        3.0930    2.0240    8.1550 hn        1 547      0.364800
     53 H451        4.6490    0.3860    7.3170 h1        1 547      0.036200
     54 H452        3.6230    1.1310    6.0080 h1        1 547      0.036200
     55 H461        3.6490   -1.2180    5.5950 h1        1 547      0.038200
     56 H462        3.3860   -1.6470    7.3470 h1        1 547      0.038200
@<TRIPOS>BOND
     1    1    2 ar  
     2    1    6 ar  
     3    1   31 1   
     4    2    3 ar  
     5    3    4 ar  
     6    3    7 1   
     7    4    5 ar  
     8    4    9 1   
     9    5    6 ar  
    10    5   22 1   
    11    6   32 1   
    12    7    8 1   
    13    8    9 2   
    14    8   16 1   
    15    9   10 1   
    16   10   11 ar  
    17   10   15 ar  
    18   11   12 ar  
    19   11   33 1   
    20   12   13 ar  
    21   12   34 1   
    22   13   14 ar  
    23   13   35 1   
    24   14   15 ar  
    25   14   36 1   
    26   15   37 1   
    27   16   17 ar  
    28   16   21 ar  
    29   17   18 ar  
    30   17   38 1   
    31   18   19 ar  
    32   18   39 1   
    33   19   20 ar  
    34   19   40 1   
    35   20   21 ar  
    36   20   41 1   
    37   21   42 1   
    38   22   23 1   
    39   22   43 1   
    40   23   24 1   
    41   23   44 1   
    42   23   45 1   
    43   24   25 1   
    44   24   46 1   
    45   24   47 1   
    46   25   26 1   
    47   25   30 1   
    48   26   27 1   
    49   26   48 1   
    50   26   49 1   
    51   27   28 1   
    52   27   50 1   
    53   27   51 1   
    54   28   29 1   
    55   28   52 1   
    56   29   30 1   
    57   29   53 1   
    58   29   54 1   
    59   30   55 1   
    60   30   56 1   
@<TRIPOS>SUBSTRUCTURE
     1 547         1 TEMP              0 ****  ****    0 ROOT
