@<TRIPOS>MOLECULE
547
   56    60     1     0     0
SMALL
bcc


@<TRIPOS>ATOM
      1 C1          0.0320    0.1660   -0.1160 ca        1 547      0.447200
      2 N2          1.3770    0.2550   -0.1080 nb        1 547     -0.677000
      3 C3          1.9040    0.1820    1.1370 ca        1 547      0.595600
      4 C4          1.1890    0.0280    2.3700 ca        1 547     -0.274100
      5 C5         -0.2240   -0.0730    2.3090 ca        1 547      0.257600
      6 C6         -0.7920    0.0120    1.0120 ca        1 547     -0.346300
      7 O9          3.2770    0.2640    1.3900 os        1 547     -0.304400
      8 C10         3.4220    0.1630    2.7970 cc        1 547      0.101900
      9 C11         2.1920    0.0250    3.4190 cd        1 547     -0.050400
     10 C12         1.9120   -0.0840    4.8370 ca        1 547     -0.041800
     11 C13         1.4860   -1.3040    5.3830 ca        1 547     -0.118000
     12 C14         1.2100   -1.4040    6.7450 ca        1 547     -0.136500
     13 C15         1.3510   -0.2910    7.5740 ca        1 547     -0.127000
     14 C16         1.7710    0.9260    7.0370 ca        1 547     -0.136500
     15 C17         2.0520    1.0320    5.6760 ca        1 547     -0.118000
     16 C23         4.7890    0.2160    3.2620 ca        1 547     -0.043800
     17 C24         5.1150   -0.1990    4.5620 ca        1 547     -0.101500
     18 C25         6.4360   -0.1450    5.0030 ca        1 547     -0.136000
     19 C26         7.4420    0.3190    4.1560 ca        1 547     -0.117000
     20 C27         7.1250    0.7280    2.8610 ca        1 547     -0.136000
     21 C28         5.8080    0.6780    2.4120 ca        1 547     -0.101500
     22 N34        -0.9730   -0.3070    3.4460 nu        1 547     -0.750600
     23 C35        -2.3940   -0.0670    3.4360 c3        1 547      0.198800
     24 C36        -2.9980   -0.1260    4.8590 c3        1 547      0.161800
     25 N39        -4.4460    0.0260    4.8350 n3        1 547     -0.733600
     26 C42        -5.0800   -0.5980    5.9890 c3        1 547      0.169300
     27 C43        -6.6120   -0.4250    5.9950 c3        1 547      0.161800
     28 N44        -7.0230    0.9520    5.8060 n7        1 547     -0.820200
     29 C45        -6.3960    1.5790    4.6600 c3        1 547      0.161800
     30 C46        -4.8640    1.4090    4.6520 c3        1 547      0.169300
     31 H1         -0.4240    0.2240   -1.1230 h4        1 547      0.025100
     32 H6         -1.8790   -0.0500    0.8730 ha        1 547      0.147000
     33 H13         1.3730   -2.1830    4.7290 ha        1 547      0.146000
     34 H14         0.8820   -2.3660    7.1660 ha        1 547      0.136000
     35 H15         1.1340   -0.3730    8.6490 ha        1 547      0.134000
     36 H16         1.8840    1.8050    7.6880 ha        1 547      0.136000
     37 H17         2.3880    1.9920    5.2540 ha        1 547      0.146000
     38 H24         4.3230   -0.5670    5.2330 ha        1 547      0.149000
     39 H25         6.6820   -0.4710    6.0240 ha        1 547      0.135000
     40 H26         8.4830    0.3590    4.5070 ha        1 547      0.133000
     41 H27         7.9170    1.0920    2.1890 ha        1 547      0.135000
     42 H28         5.5570    0.9970    1.3870 ha        1 547      0.149000
     43 HN34       -0.5020   -0.1650    4.3150 hn        1 547      0.429800
     44 H351       -2.6230    0.9360    2.9710 h1        1 547      0.050700
     45 H352       -2.8780   -0.8590    2.7950 h1        1 547      0.050700
     46 H361       -2.5060    0.6640    5.5000 h1        1 547      0.040700
     47 H362       -2.7520   -1.1300    5.3090 h1        1 547      0.040700
     48 H421       -4.8590   -1.7010    5.9510 h1        1 547      0.038200
     49 H422       -4.6680   -0.1930    6.9590 h1        1 547      0.038200
     50 H431       -6.9930   -0.7600    7.0000 h1        1 547      0.036200
     51 H432       -7.0480   -1.1130    5.2120 h1        1 547      0.036200
     52 HN44       -8.0220    1.0040    5.7230 hn        1 547      0.364800
     53 H451       -6.6210    2.6810    4.7080 h1        1 547      0.036200
     54 H452       -6.8010    1.1850    3.6820 h1        1 547      0.036200
     55 H461       -4.4850    1.7550    3.6500 h1        1 547      0.038200
     56 H462       -4.4220    2.0850    5.4410 h1        1 547      0.038200
@<TRIPOS>BOND
     1    1    2 ar  
     2    1    6 ar  
     3    1   31 1   
     4    2    3 ar  
     5    3    4 ar  
     6    3    7 1   
     7    4    5 ar  
     8    4    9 1   
     9    5    6 ar  
    10    5   22 1   
    11    6   32 1   
    12    7    8 1   
    13    8    9 2   
    14    8   16 1   
    15    9   10 1   
    16   10   11 ar  
    17   10   15 ar  
    18   11   12 ar  
    19   11   33 1   
    20   12   13 ar  
    21   12   34 1   
    22   13   14 ar  
    23   13   35 1   
    24   14   15 ar  
    25   14   36 1   
    26   15   37 1   
    27   16   17 ar  
    28   16   21 ar  
    29   17   18 ar  
    30   17   38 1   
    31   18   19 ar  
    32   18   39 1   
    33   19   20 ar  
    34   19   40 1   
    35   20   21 ar  
    36   20   41 1   
    37   21   42 1   
    38   22   23 1   
    39   22   43 1   
    40   23   24 1   
    41   23   44 1   
    42   23   45 1   
    43   24   25 1   
    44   24   46 1   
    45   24   47 1   
    46   25   26 1   
    47   25   30 1   
    48   26   27 1   
    49   26   48 1   
    50   26   49 1   
    51   27   28 1   
    52   27   50 1   
    53   27   51 1   
    54   28   29 1   
    55   28   52 1   
    56   29   30 1   
    57   29   53 1   
    58   29   54 1   
    59   30   55 1   
    60   30   56 1   
@<TRIPOS>SUBSTRUCTURE
     1 547         1 TEMP              0 ****  ****    0 ROOT
