@<TRIPOS>MOLECULE
547
   56    49     1     0     0
SMALL
bcc


@<TRIPOS>ATOM
      1 C1         -0.4620    0.9200   -4.1880 c1        1 547     -0.132000
      2 N2          0.9250    1.0270   -4.1800 n1        1 547     -0.150000
      3 C3          1.6130    0.9980   -2.9860 c1        1 547      0.098000
      4 C4          0.9260    0.8640   -1.7980 c1        1 547     -0.197000
      5 C5         -0.4710    0.7570   -1.8060 c1        1 547      0.176000
      6 C6         -1.1540    0.7850   -2.9960 c1        1 547     -0.132000
      7 O9          2.9860    1.0820   -2.6860 o         1 547     -0.091000
      8 C10         3.1300    0.9990   -1.3160 c2        1 547      0.049000
      9 C11         1.8600    0.8640   -0.7560 c1        1 547     -0.076000
     10 C12         1.9790    0.8660    0.6360 c1        1 547     -0.030000
     11 C13         1.9970   -0.3470    1.3440 c1        1 547     -0.132000
     12 C14         2.0840   -0.3380    2.7480 c1        1 547     -0.132000
     13 C15         2.1510    0.8520    3.4210 c1        1 547     -0.132000
     14 C16         2.1330    2.0640    2.7110 c1        1 547     -0.132000
     15 C17         2.0460    2.0560    1.3120 c1        1 547     -0.110000
     16 C23         4.5150    0.9750   -1.2070 c1        1 547     -0.031000
     17 C24         5.2010   -0.2680   -1.1990 c1        1 547     -0.132000
     18 C25         6.5990   -0.2960   -1.1910 c1        1 547     -0.132000
     19 C26         7.3140    0.8920   -1.1910 c1        1 547     -0.132000
     20 C27         6.6200    2.1400   -1.2000 c1        1 547     -0.132000
     21 C28         5.2280    2.1620   -1.2080 c1        1 547     -0.096000
     22 N34        -1.3030    0.7000   -0.5730 n3        1 547     -0.305000
     23 C35        -2.6790    0.2830   -0.6510 c3        1 547     -0.039000
     24 C36        -3.1720   -0.1210    0.7610 c3        1 547     -0.073000
     25 N39        -4.0920   -1.2450    0.6490 n3        1 547     -0.261000
     26 C42        -3.6300   -2.3860    1.5850 c3        1 547     -0.102000
     27 C43        -4.7220   -3.4290    1.1450 c3        1 547     -0.086500
     28 N44        -6.0470   -2.9990    1.4280 n3        1 547     -0.269000
     29 C45        -6.1080   -1.7390    1.6140 c3        1 547     -0.086500
     30 C46        -5.4090   -0.8080    0.9100 c3        1 547     -0.102000
     31 H1         -0.9310    0.9400   -5.0040 ha        1 547      0.140700
     32 H6         -2.1640    0.7070   -3.0020 ha        1 547      0.140700
     33 H13         1.9480   -1.2130    0.8510 ha        1 547      0.140700
     34 H14         2.0970   -1.1890    3.2500 ha        1 547      0.140700
     35 H15         2.2100    0.8590    4.3820 ha        1 547      0.140700
     36 H16         2.1820    2.9280    3.2030 ha        1 547      0.140700
     37 H17         2.0340    2.9060    0.8120 ha        1 547      0.147000
     38 H24         4.6700   -1.1450   -1.1980 ha        1 547      0.140700
     39 H25         7.0730   -1.1530   -1.1850 ha        1 547      0.140700
     40 H26         8.3020    0.8750   -1.1860 ha        1 547      0.140700
     41 H27         7.1280    2.9900   -1.2000 ha        1 547      0.140700
     42 H28         4.7240    3.0650   -1.2140 ha        1 547      0.153000
     43 HN34       -0.9770    1.0140    0.1980 hn        1 547      0.226000
     44 H351       -3.2440    1.0460   -0.9980 h1        1 547      0.090500
     45 H352       -2.7560   -0.4830   -1.2570 h1        1 547      0.090500
     46 H361       -3.6110    0.6060    1.1570 h1        1 547      0.079500
     47 H362       -2.3650   -0.3940    1.3430 h1        1 547      0.079500
     48 H421       -3.7220   -2.1380    2.5420 h1        1 547      0.076250
     49 H422       -2.6600   -2.7120    1.3510 h1        1 547      0.076250
     50 H431       -4.5500   -4.3100    1.6330 h1        1 547      0.093000
     51 H432       -4.6410   -3.5840    0.1760 h1        1 547      0.093000
     52 HN44       -6.6040   -3.2340    0.7190 hn        1 547      0.153000
     53 H451       -7.0570   -1.4980    1.5170 h1        1 547      0.093000
     54 H452       -5.8810   -1.5990    2.5310 h1        1 547      0.093000
     55 H461       -5.3760    0.0460    1.4320 h1        1 547      0.076250
     56 H462       -5.8860   -0.6370    0.0180 h1        1 547      0.076250
@<TRIPOS>BOND
     1    1    6 1   
     2    1   31 1   
     3    2    3 1   
     4    4    5 1   
     5    5   22 1   
     6    6   32 1   
     7    7    8 1   
     8    8    9 1   
     9    8   16 1   
    10    9   10 1   
    11   10   15 1   
    12   11   12 1   
    13   11   33 1   
    14   12   34 1   
    15   13   14 1   
    16   13   35 1   
    17   14   36 1   
    18   15   37 1   
    19   16   21 1   
    20   17   18 1   
    21   17   38 1   
    22   18   39 1   
    23   19   20 1   
    24   19   40 1   
    25   20   41 1   
    26   21   42 1   
    27   22   23 1   
    28   22   43 1   
    29   23   24 1   
    30   23   44 1   
    31   23   45 1   
    32   24   25 1   
    33   24   46 1   
    34   24   47 1   
    35   25   26 1   
    36   25   30 1   
    37   26   27 1   
    38   26   48 1   
    39   26   49 1   
    40   27   28 1   
    41   27   50 1   
    42   27   51 1   
    43   28   29 1   
    44   28   52 1   
    45   29   30 1   
    46   29   53 1   
    47   29   54 1   
    48   30   55 1   
    49   30   56 1   
@<TRIPOS>SUBSTRUCTURE
     1 547         1 TEMP              0 ****  ****    0 ROOT
