@<TRIPOS>MOLECULE
547
   57    61     1     0     0
SMALL
bcc


@<TRIPOS>ATOM
      1 C1          0.0980   -2.1020    0.2340 ca        1 547      0.422200
      2 N2          1.3680   -1.6550    0.1650 nb        1 547     -0.571000
      3 C3          1.8360   -1.1440    1.3200 ca        1 547      0.576600
      4 C4          1.1150   -1.0370    2.5710 ca        1 547     -0.165100
      5 C5         -0.2000   -1.5150    2.5720 ca        1 547      0.009600
      6 C6         -0.7190   -2.0600    1.3850 ca        1 547     -0.229300
      7 O9          3.1240   -0.6300    1.4840 os        1 547     -0.279400
      8 C10         3.2180   -0.2050    2.8290 cc        1 547      0.222900
      9 C11         2.0260   -0.4300    3.5130 cd        1 547     -0.135400
     10 C12         1.7010   -0.1280    4.8920 ca        1 547     -0.073800
     11 C13         1.6490   -1.1580    5.8460 ca        1 547     -0.137000
     12 C14         1.3360   -0.8690    7.1730 ca        1 547     -0.127500
     13 C15         1.0720    0.4460    7.5610 ca        1 547     -0.112000
     14 C16         1.1250    1.4730    6.6190 ca        1 547     -0.127500
     15 C17         1.4380    1.1910    5.2890 ca        1 547     -0.137000
     16 C23         4.4980    0.3500    3.1930 ca        1 547     -0.103800
     17 C24         5.4300    0.6900    2.1950 ca        1 547     -0.076500
     18 C25         6.6670    1.2220    2.5490 ca        1 547     -0.135500
     19 C26         6.9890    1.4170    3.8930 ca        1 547     -0.078000
     20 C27         6.0690    1.0770    4.8870 ca        1 547     -0.135500
     21 C28         4.8300    0.5460    4.5440 ca        1 547     -0.076500
     22 N34        -1.0020   -1.4570    3.7940 n4        1 547     -0.633400
     23 C35        -2.1570   -0.5150    3.6680 c3        1 547      0.093800
     24 C36        -3.0240   -0.5080    4.9520 c3        1 547      0.164800
     25 N39        -4.1860    0.3300    4.7450 n3        1 547     -0.744600
     26 C42        -5.4020   -0.2240    5.3310 c3        1 547      0.171300
     27 C43        -6.6300    0.6870    5.1260 c3        1 547      0.164800
     28 N44        -6.3750    2.0540    5.5290 n3        1 547     -0.823200
     29 C45        -5.1970    2.6110    4.8990 c3        1 547      0.164800
     30 C46        -3.9520    1.7240    5.1040 c3        1 547      0.171300
     31 H1         -0.2980   -2.5280   -0.7100 h4        1 547      0.065100
     32 H6         -1.7440   -2.4560    1.3270 ha        1 547      0.166000
     33 H13         1.9020   -2.1890    5.5530 ha        1 547      0.149000
     34 H14         1.3170   -1.6770    7.9200 ha        1 547      0.154000
     35 H15         0.8370    0.6730    8.6130 ha        1 547      0.156000
     36 H16         0.9340    2.5140    6.9260 ha        1 547      0.154000
     37 H17         1.4990    2.0080    4.5520 ha        1 547      0.149000
     38 H24         5.1800    0.5320    1.1330 ha        1 547      0.150500
     39 H25         7.3920    1.4880    1.7640 ha        1 547      0.152000
     40 H26         7.9690    1.8370    4.1700 ha        1 547      0.152000
     41 H27         6.3250    1.2270    5.9480 ha        1 547      0.152000
     42 H28         4.1080    0.2760    5.3320 ha        1 547      0.150500
     43 HN34       -0.3940   -1.1550    4.5770 hn        1 547      0.461300
     44 H351       -1.7440    0.5140    3.4670 hx        1 547      0.114200
     45 H352       -2.7720   -0.8340    2.7790 hx        1 547      0.114200
     46 H361       -3.3500   -1.5640    5.1760 h1        1 547      0.050200
     47 H362       -2.3850   -0.1550    5.8150 h1        1 547      0.050200
     48 H421       -5.6130   -1.2070    4.8240 h1        1 547      0.041450
     49 H422       -5.2750   -0.4170    6.4350 h1        1 547      0.041450
     50 H431       -7.4630    0.2870    5.7690 h1        1 547      0.047200
     51 H432       -6.9540    0.6080    4.0470 h1        1 547      0.047200
     52 HN44       -7.1770    2.6300    5.3550 hn        1 547      0.384800
     53 H451       -5.3360    2.7770    3.7900 h1        1 547      0.047200
     54 H452       -4.9890    3.6100    5.3760 h1        1 547      0.047200
     55 H461       -3.1320    2.1160    4.4410 h1        1 547      0.041450
     56 H462       -3.6120    1.8220    6.1760 h1        1 547      0.041450
     57 H342       -1.3540   -2.3990    4.0010 hn        1 547      0.461300
@<TRIPOS>BOND
     1    1    2 ar  
     2    1    6 ar  
     3    1   31 1   
     4    2    3 ar  
     5    3    4 ar  
     6    3    7 1   
     7    4    5 ar  
     8    4    9 1   
     9    5    6 ar  
    10    5   22 1   
    11    6   32 1   
    12    7    8 1   
    13    8    9 2   
    14    8   16 1   
    15    9   10 1   
    16   10   11 ar  
    17   10   15 ar  
    18   11   12 ar  
    19   11   33 1   
    20   12   13 ar  
    21   12   34 1   
    22   13   14 ar  
    23   13   35 1   
    24   14   15 ar  
    25   14   36 1   
    26   15   37 1   
    27   16   17 ar  
    28   16   21 ar  
    29   17   18 ar  
    30   17   38 1   
    31   18   19 ar  
    32   18   39 1   
    33   19   20 ar  
    34   19   40 1   
    35   20   21 ar  
    36   20   41 1   
    37   21   42 1   
    38   22   23 1   
    39   22   43 1   
    40   22   57 1   
    41   23   24 1   
    42   23   44 1   
    43   23   45 1   
    44   24   25 1   
    45   24   46 1   
    46   24   47 1   
    47   25   26 1   
    48   25   30 1   
    49   26   27 1   
    50   26   48 1   
    51   26   49 1   
    52   27   28 1   
    53   27   50 1   
    54   27   51 1   
    55   28   29 1   
    56   28   52 1   
    57   29   30 1   
    58   29   53 1   
    59   29   54 1   
    60   30   55 1   
    61   30   56 1   
@<TRIPOS>SUBSTRUCTURE
     1 547         1 TEMP              0 ****  ****    0 ROOT
