@<TRIPOS>MOLECULE
548
   41    36     1     0     0
SMALL
bcc


@<TRIPOS>ATOM
      1 C1         -0.0070    2.4810    2.7940 c3        1 548     -0.183000
      2 F1          0.6110   -3.5390    2.8230 f         1 548     -0.160333
      3 N1          3.4220    1.8720    3.0570 n1        1 548     -0.117000
      4 CL1        -3.0320   -4.0380   -2.2390 cl        1 548      0.038000
      5 C2          1.2150    1.8520    2.1550 c2        1 548     -0.079000
      6 F2          0.1480   -5.3490    1.6830 f         1 548     -0.160333
      7 N2          0.7710    1.9590   -0.7200 n2        1 548     -0.111000
      8 C3          2.1010    2.1920    3.1690 c1        1 548     -0.076000
      9 F3         -1.4200   -4.3460    2.8310 f         1 548     -0.160333
     10 N3         -0.2310   -0.0180   -0.7090 n1        1 548     -0.072000
     11 C4          3.8740    1.2180    1.9500 c1        1 548     -0.078000
     12 N4         -2.0880   -1.1710   -2.3830 n1        1 548     -0.143000
     13 C5          2.9910    0.8770    0.9350 c1        1 548     -0.152000
     14 C6          1.6670    1.1970    1.0460 c2        1 548     -0.002000
     15 C7          0.6820    0.7770   -0.0510 c1        1 548      0.015000
     16 C8         -0.0640    1.9060   -1.7700 c1        1 548     -0.054000
     17 C9         -0.6900    0.6640   -1.7590 c1        1 548     -0.152000
     18 C10        -0.6880   -1.3010   -0.4650 c1        1 548      0.026000
     19 C11        -0.2050   -2.0230    0.6400 c1        1 548     -0.093000
     20 C12        -0.6640   -3.3120    0.8840 c1        1 548     -0.139000
     21 C13        -1.6030   -3.8900    0.0340 c2        1 548     -0.092000
     22 C14        -2.0820   -3.1790   -1.0580 c2        1 548     -0.028000
     23 C15        -1.6170   -1.8730   -1.3070 c2        1 548      0.012000
     24 C16        -1.6430    0.0780   -2.6210 c1        1 548      0.096000
     25 C17        -2.3240    0.4600   -3.9230 c3        1 548     -0.182000
     26 C18        -0.3220   -4.1610    2.0910 c2        1 548      0.469000
     27 C19         0.2010    3.1800   -2.5490 c2        1 548     -0.151000
     28 H1          0.1860    3.4180    3.0190 hc        1 548      0.095667
     29 H1A        -0.7570    2.4440    2.1690 hc        1 548      0.095667
     30 H1B        -0.2390    1.9890    3.6110 hc        1 548      0.095667
     31 H3          1.7780    2.6600    3.9630 ha        1 548      0.167000
     32 H4          4.8230    0.9890    1.8700 ha        1 548      0.168000
     33 H5          3.3160    0.4080    0.1420 ha        1 548      0.155000
     34 H11         0.4530   -1.6190    1.2370 ha        1 548      0.172000
     35 H13        -1.9240   -4.7920    0.2060 ha        1 548      0.173000
     36 H17        -3.2820    0.2460   -3.8670 hc        1 548      0.106667
     37 H17A       -2.2140    1.4220   -4.0790 hc        1 548      0.106667
     38 H17B       -1.9190   -0.0400   -4.6630 hc        1 548      0.106667
     39 H19        -0.6520    3.6100   -2.7720 ha        1 548      0.096000
     40 H19A        0.6850    2.9640   -3.3740 ha        1 548      0.096000
     41 H19B        0.7430    3.7920   -2.0020 ha        1 548      0.096000
@<TRIPOS>BOND
     1    1    5 1   
     2    1   28 1   
     3    1   29 1   
     4    1   30 1   
     5    2   26 1   
     6    3   11 1   
     7    4   22 1   
     8    5    8 1   
     9    5   14 1   
    10    6   26 1   
    11    7   15 1   
    12    7   16 1   
    13    8   31 1   
    14    9   26 1   
    15   10   18 1   
    16   11   32 1   
    17   12   23 1   
    18   13   14 1   
    19   13   33 1   
    20   14   15 1   
    21   16   17 1   
    22   17   24 1   
    23   18   23 1   
    24   19   20 1   
    25   19   34 1   
    26   20   21 1   
    27   21   22 1   
    28   21   35 1   
    29   22   23 1   
    30   24   25 1   
    31   25   36 1   
    32   25   37 1   
    33   25   38 1   
    34   27   39 1   
    35   27   40 1   
    36   27   41 1   
@<TRIPOS>SUBSTRUCTURE
     1 548         1 TEMP              0 ****  ****    0 ROOT
