@<TRIPOS>MOLECULE
548
   41    44     1     0     0
SMALL
bcc


@<TRIPOS>ATOM
      1 C1          1.6860    2.5370    2.3410 c3        1 548     -0.057800
      2 F1          2.5540   -2.9860    1.1770 f         1 548     -0.231633
      3 N1          4.3570    1.9950   -0.2610 nb        1 548     -0.643000
      4 CL1        -3.1710   -3.3810   -0.0860 cl        1 548     -0.040400
      5 C2          2.3080    2.2780    1.0270 ca        1 548     -0.151600
      6 F2          2.9360   -2.3010   -0.8450 f         1 548     -0.231633
      7 N2         -0.5650    3.4490   -0.0980 nc        1 548     -0.539300
      8 C3          3.7150    2.2000    0.9020 ca        1 548      0.389200
      9 F3          1.9810   -4.2190   -0.5130 f         1 548     -0.231633
     10 N3         -0.8320    1.1880   -0.1150 na        1 548     -0.062200
     11 C4          3.6050    1.8550   -1.3700 ca        1 548      0.387200
     12 N4         -3.1820   -0.4110   -0.0990 nc        1 548     -0.669000
     13 C5          2.2000    1.9120   -1.3650 ca        1 548     -0.217300
     14 C6          1.5470    2.1230   -0.1440 ca        1 548     -0.085900
     15 C7          0.0860    2.2530   -0.1130 cd        1 548      0.425400
     16 C8         -1.9290    3.1770   -0.0920 cc        1 548      0.082400
     17 C9         -2.1320    1.7740   -0.1010 cd        1 548     -0.241600
     18 C10        -0.6970   -0.2070   -0.1070 ca        1 548     -0.063600
     19 C11         0.5560   -0.8510   -0.1040 ca        1 548     -0.093000
     20 C12         0.6180   -2.2370   -0.0940 ca        1 548     -0.146300
     21 C13        -0.5410   -3.0170   -0.0880 ca        1 548     -0.092000
     22 C14        -1.7880   -2.4030   -0.0920 ca        1 548     -0.014900
     23 C15        -1.9090   -0.9870   -0.0990 ca        1 548      0.405600
     24 C16        -3.2910    0.8990   -0.0980 cd        1 548      0.518600
     25 C17        -4.6360    1.5510   -0.0860 c3        1 548     -0.158400
     26 C18         1.9840   -2.9190   -0.0720 c3        1 548      0.690200
     27 C19        -2.9640    4.2270   -0.0880 c3        1 548     -0.028900
     28 H1          1.2980    3.5880    2.3780 hc        1 548      0.056367
     29 H1A         0.8250    1.8450    2.5160 hc        1 548      0.056367
     30 H1B         2.4240    2.4030    3.1710 hc        1 548      0.056367
     31 H3          4.3580    2.3130    1.7940 h4        1 548      0.030100
     32 H4          4.1600    1.6900   -2.3110 h4        1 548      0.031100
     33 H5          1.6330    1.8050   -2.2990 ha        1 548      0.155000
     34 H11         1.4920   -0.2660   -0.1150 ha        1 548      0.172000
     35 H13        -0.4610   -4.1180   -0.0850 ha        1 548      0.173000
     36 H17        -5.4600    0.8150   -0.2590 hc        1 548      0.067700
     37 H17A       -4.7950    2.0380    0.9100 hc        1 548      0.067700
     38 H17B       -4.6760    2.3340   -0.8830 hc        1 548      0.067700
     39 H19        -3.4680    4.2650   -1.0880 hc        1 548      0.056700
     40 H19A       -3.7330    4.0050    0.6930 hc        1 548      0.056700
     41 H19B       -2.5240    5.2340    0.1210 hc        1 548      0.056700
@<TRIPOS>BOND
     1    1    5 1   
     2    1   28 1   
     3    1   29 1   
     4    1   30 1   
     5    2   26 1   
     6    3    8 ar  
     7    3   11 ar  
     8    4   22 1   
     9    5    8 ar  
    10    5   14 ar  
    11    6   26 1   
    12    7   15 2   
    13    7   16 1   
    14    8   31 1   
    15    9   26 1   
    16   10   15 1   
    17   10   17 1   
    18   10   18 1   
    19   11   13 ar  
    20   11   32 1   
    21   12   23 1   
    22   12   24 2   
    23   13   14 ar  
    24   13   33 1   
    25   14   15 1   
    26   16   17 2   
    27   16   27 1   
    28   17   24 1   
    29   18   19 ar  
    30   18   23 ar  
    31   19   20 ar  
    32   19   34 1   
    33   20   21 ar  
    34   20   26 1   
    35   21   22 ar  
    36   21   35 1   
    37   22   23 ar  
    38   24   25 1   
    39   25   36 1   
    40   25   37 1   
    41   25   38 1   
    42   27   39 1   
    43   27   40 1   
    44   27   41 1   
@<TRIPOS>SUBSTRUCTURE
     1 548         1 TEMP              0 ****  ****    0 ROOT
