@<TRIPOS>MOLECULE
548
   41    44     1     0     0
SMALL
bcc


@<TRIPOS>ATOM
      1 C1          0.0060    0.2570    0.0720 c3        1 548     -0.057800
      2 F1          2.0280   -5.0800   -0.0660 f         1 548     -0.231633
      3 N1          3.7710    0.1180    0.0620 nb        1 548     -0.643000
      4 CL1        -1.1580   -5.9110   -4.9330 cl        1 548     -0.040400
      5 C2          1.3870    0.1370   -0.4380 ca        1 548     -0.151600
      6 F2          3.6240   -4.2440   -1.2730 f         1 548     -0.231633
      7 N2         -0.0140    1.1130   -3.2610 nc        1 548     -0.539300
      8 C3          2.4870    0.1930    0.4500 ca        1 548      0.389200
      9 F3          2.9140   -6.2570   -1.6570 f         1 548     -0.231633
     10 N3          0.0510   -1.1580   -3.4210 na        1 548     -0.062200
     11 C4          4.0160   -0.0190   -1.2560 ca        1 548      0.387200
     12 N4         -1.4700   -2.9580   -5.0070 nc        1 548     -0.669000
     13 C5          3.0030   -0.0880   -2.2270 ca        1 548     -0.217300
     14 C6          1.6700   -0.0130   -1.8060 ca        1 548     -0.085900
     15 C7          0.5900   -0.0170   -2.8000 cd        1 548      0.425400
     16 C8         -0.9630    0.7200   -4.1990 cc        1 548      0.082400
     17 C9         -0.9500   -0.6920   -4.3230 cd        1 548     -0.241600
     18 C10         0.2910   -2.5320   -3.2950 ca        1 548     -0.063600
     19 C11         1.2540   -3.0610   -2.4130 ca        1 548     -0.093000
     20 C12         1.4390   -4.4340   -2.3370 ca        1 548     -0.146300
     21 C13         0.6880   -5.3140   -3.1200 ca        1 548     -0.092000
     22 C14        -0.2670   -4.8140   -3.9980 ca        1 548     -0.014900
     23 C15        -0.4980   -3.4160   -4.1140 ca        1 548      0.405600
     24 C16        -1.6870   -1.6650   -5.1090 cd        1 548      0.518600
     25 C17        -2.7130   -1.1370   -6.0590 c3        1 548     -0.158400
     26 C18         2.4740   -4.9900   -1.3620 c3        1 548      0.690200
     27 C19        -1.8290    1.6700   -4.9210 c3        1 548     -0.028900
     28 H1         -0.6550   -0.5190   -0.3870 hc        1 548      0.056367
     29 H1A        -0.0260    0.1380    1.1830 hc        1 548      0.056367
     30 H1B        -0.4090    1.2640   -0.1890 hc        1 548      0.056367
     31 H3          2.3170    0.3070    1.5360 h4        1 548      0.030100
     32 H4          5.0820   -0.0740   -1.5450 h4        1 548      0.031100
     33 H5          3.2560   -0.1880   -3.2920 ha        1 548      0.155000
     34 H11         1.8700   -2.3940   -1.7840 ha        1 548      0.172000
     35 H13         0.8600   -6.4010   -3.0410 ha        1 548      0.173000
     36 H17        -2.1940   -0.5960   -6.8900 hc        1 548      0.067367
     37 H17A       -3.3360   -1.9540   -6.4990 hc        1 548      0.067367
     38 H17B       -3.3820   -0.4210   -5.5210 hc        1 548      0.067367
     39 H19        -1.8190    1.4410   -6.0160 hc        1 548      0.056700
     40 H19A       -2.8810    1.5840   -4.5460 hc        1 548      0.056700
     41 H19B       -1.4890    2.7260   -4.7750 hc        1 548      0.056700
@<TRIPOS>BOND
     1    1    5 1   
     2    1   28 1   
     3    1   29 1   
     4    1   30 1   
     5    2   26 1   
     6    3    8 ar  
     7    3   11 ar  
     8    4   22 1   
     9    5    8 ar  
    10    5   14 ar  
    11    6   26 1   
    12    7   15 2   
    13    7   16 1   
    14    8   31 1   
    15    9   26 1   
    16   10   15 1   
    17   10   17 1   
    18   10   18 1   
    19   11   13 ar  
    20   11   32 1   
    21   12   23 1   
    22   12   24 2   
    23   13   14 ar  
    24   13   33 1   
    25   14   15 1   
    26   16   17 2   
    27   16   27 1   
    28   17   24 1   
    29   18   19 ar  
    30   18   23 ar  
    31   19   20 ar  
    32   19   34 1   
    33   20   21 ar  
    34   20   26 1   
    35   21   22 ar  
    36   21   35 1   
    37   22   23 ar  
    38   24   25 1   
    39   25   36 1   
    40   25   37 1   
    41   25   38 1   
    42   27   39 1   
    43   27   40 1   
    44   27   41 1   
@<TRIPOS>SUBSTRUCTURE
     1 548         1 TEMP              0 ****  ****    0 ROOT
