@<TRIPOS>MOLECULE
549
   26    27     1     0     0
SMALL
bcc


@<TRIPOS>ATOM
      1 C10        -0.0520    0.0000    0.1810 c3        1 549      0.083000
      2 C01         5.1490   -0.0100    1.1750 ca        1 549     -0.127600
      3 C02         4.5200    0.0550   -0.0780 ca        1 549     -0.102000
      4 C03         3.1340    0.0500   -0.2150 ca        1 549     -0.155000
      5 C04         2.3650   -0.0240    0.9460 ca        1 549     -0.099200
      6 C05         3.0070   -0.0910    2.2390 ca        1 549     -0.115200
      7 C06         4.3960   -0.0850    2.3490 ca        1 549     -0.094000
      8 N07         0.9670   -0.0520    1.1990 nh        1 549     -0.155500
      9 C08         0.7340   -0.1320    2.5670 c1        1 549     -0.023000
     10 N09         1.9620   -0.1560    3.1940 nu        1 549     -0.261500
     11 C11        -0.9620   -1.2330    0.1890 c3        1 549     -0.104600
     12 C12        -0.9280    1.2530    0.2810 c3        1 549     -0.104600
     13 O14         7.3210    0.0680    0.1790 o         1 549     -0.829800
     14 O15         7.1970   -0.0620    2.4060 o         1 549     -0.829800
     15 H20         0.4820    0.0300   -0.8180 h1        1 549      0.049700
     16 H16         2.6650    0.1020   -1.2060 ha        1 549      0.114000
     17 H17         5.1690    0.1120   -0.9690 ha        1 549      0.156000
     18 H18         4.9150   -0.1350    3.3170 ha        1 549      0.160000
     19 H19         2.1100   -0.2100    4.1640 hn        1 549      0.294700
     20 H23        -1.5040   -1.3130    1.1620 hc        1 549      0.039033
     21 H21        -1.7060   -1.1410   -0.6360 hc        1 549      0.039033
     22 H22        -0.3670   -2.1640    0.0340 hc        1 549      0.039033
     23 H24        -1.6690    1.2460   -0.5530 hc        1 549      0.039033
     24 H25        -0.3080    2.1770    0.2030 hc        1 549      0.039033
     25 H26        -1.4750    1.2720    1.2540 hc        1 549      0.039033
     26 C13         6.6710   -0.0010    1.2590 c         1 549      0.910200
@<TRIPOS>BOND
     1    1    8 1   
     2    1   11 1   
     3    1   12 1   
     4    1   15 1   
     5    2    3 ar  
     6    2    7 ar  
     7    2   26 1   
     8    3    4 ar  
     9    3   17 1   
    10    4    5 ar  
    11    4   16 1   
    12    5    6 ar  
    13    5    8 1   
    14    6    7 ar  
    15    6   10 1   
    16    7   18 1   
    17    8    9 2   
    18    9   10 2   
    19   10   19 1   
    20   11   20 1   
    21   11   21 1   
    22   11   22 1   
    23   12   23 1   
    24   12   24 1   
    25   12   25 1   
    26   13   26 1   
    27   14   26 1   
@<TRIPOS>SUBSTRUCTURE
     1 549         1 TEMP              0 ****  ****    0 ROOT
