@<TRIPOS>MOLECULE
54C
   42    41     1     0     0
SMALL
bcc


@<TRIPOS>ATOM
      1 CA          1.3230   -0.4510   -1.1290 c2        1 54C     -0.310000
      2 CB          0.7500   -0.1870    0.0690 c2        1 54C      0.183000
      3 CG          0.1610   -1.2040    0.9060 c2        1 54C     -0.224000
      4 N           2.5950    1.1910    2.8650 n9        1 54C     -0.419000
      5 C           1.9580    0.5020   -2.0340 c2        1 54C      0.352000
      6 O           2.7880    0.2110   -2.9020 o         1 54C     -0.321000
      7 CD1         0.0880   -1.1980    2.2870 c2        1 54C      0.016000
      8 NE2        -0.6010   -2.3280    2.7820 n3        1 54C     -0.122000
      9 C1         -0.8730   -2.5900    4.1390 c2        1 54C     -0.028000
     10 C2         -4.3570   -5.9560    3.3860 c3        1 54C     -0.280000
     11 C3         -1.6510   -3.6190    4.5360 c2        1 54C     -0.210000
     12 CE2        -1.1330   -3.0300    1.7000 c2        1 54C      0.111000
     13 CD2        -0.3970   -2.5130    0.4320 c3        1 54C     -0.069000
     14 CE3        -1.0750   -2.8070   -0.8330 c2        1 54C     -0.112000
     15 CZ3        -2.0380   -3.7670   -0.8900 c2        1 54C     -0.161000
     16 C70        -2.7280   -4.1520    0.3180 c2        1 54C     -0.007000
     17 CH2        -2.2050   -3.8360    1.5250 c1        1 54C     -0.351000
     18 OB          0.7380    1.1170    0.5170 oh        1 54C     -0.280000
     19 C4         -0.2370   -1.6880    5.1600 c3        1 54C     -0.112000
     20 C5         -1.7580    0.1420    5.5460 c1        1 54C     -0.012000
     21 O6         -0.7020   -0.3090    5.0000 os        1 54C     -0.090000
     22 H1          0.9820    2.0260   -1.3500 ho        1 54C      0.237000
     23 H2          1.3770   -1.4970   -1.4750 ha        1 54C      0.166000
     24 H3          3.4420    0.6940    3.0460 hn        1 54C      0.139667
     25 H4          2.5470    1.9810    3.4730 hn        1 54C      0.139667
     26 H9          0.4870   -0.4510    2.9910 h4        1 54C      0.212000
     27 H10        -5.4250   -5.6520    3.4140 hc        1 54C      0.069750
     28 H11        -4.2810   -7.0120    3.0490 hc        1 54C      0.069750
     29 H12        -3.9190   -5.8610    4.4030 hc        1 54C      0.069750
     30 H13        -3.7990   -5.2960    2.6800 hc        1 54C      0.069750
     31 H14        -1.8500   -3.7940    5.6010 ha        1 54C      0.153500
     32 H15        -2.1380   -4.3160    3.8320 ha        1 54C      0.153500
     33 H16         0.4930   -3.2440    0.4170 hc        1 54C      0.167000
     34 H17        -0.7280   -2.2780   -1.7340 ha        1 54C      0.147000
     35 H18        -2.4330   -4.1120   -1.8570 ha        1 54C      0.140000
     36 H19        -3.7470   -4.5600    0.2270 ha        1 54C      0.149000
     37 H20         0.2770    1.1580    1.3690 ho        1 54C      0.248000
     38 H21         0.8740   -1.6160    5.0260 h1        1 54C      0.118000
     39 H22        -0.4780   -2.0430    6.1940 h1        1 54C      0.118000
     40 H23        -2.3950   -0.5120    6.1800 ha        1 54C      0.034000
     41 OXT         1.6620    1.8360   -2.0100 oh        1 54C     -0.294000
     42 HN3         2.6030    1.5100    1.9170 hn        1 54C      0.139667
@<TRIPOS>BOND
     1    1    2 1   
     2    1    5 1   
     3    1   23 1   
     4    2    3 1   
     5    2   18 1   
     6    3    7 1   
     7    3   13 1   
     8    4   24 1   
     9    4   25 1   
    10    4   42 1   
    11    5    6 1   
    12    5   41 1   
    13    7    8 1   
    14    7   26 1   
    15    8    9 1   
    16    8   12 1   
    17    9   11 1   
    18    9   19 1   
    19   10   27 1   
    20   10   28 1   
    21   10   29 1   
    22   10   30 1   
    23   11   31 1   
    24   11   32 1   
    25   12   13 1   
    26   12   17 1   
    27   13   14 1   
    28   13   33 1   
    29   14   15 1   
    30   14   34 1   
    31   15   16 1   
    32   15   35 1   
    33   16   17 1   
    34   16   36 1   
    35   18   37 1   
    36   19   21 1   
    37   19   38 1   
    38   19   39 1   
    39   20   21 1   
    40   20   40 1   
    41   22   41 1   
@<TRIPOS>SUBSTRUCTURE
     1 54C         1 TEMP              0 ****  ****    0 ROOT
