@<TRIPOS>MOLECULE
54C
   42    44     1     0     0
SMALL
bcc


@<TRIPOS>ATOM
      1 CA          1.3090    0.0240   -0.3360 c3        1 54C     -0.103500
      2 CB         -0.1110    0.1120    0.2510 c3        1 54C      0.229300
      3 CG         -0.4730   -1.1040    1.0120 cc        1 54C     -0.213400
      4 N           2.3260   -0.2470    0.7190 n4        1 54C     -0.814600
      5 C           1.7110    1.3900   -1.0670 c         1 54C      0.933600
      6 O           0.7590    2.1130   -1.4180 o         1 54C     -0.767800
      7 CD1        -0.9010   -1.1470    2.3400 cd        1 54C     -0.050100
      8 NE2        -1.1610   -2.4660    2.7260 na        1 54C     -0.076400
      9 C1         -1.7340   -2.8730    4.0080 c3        1 54C      0.091700
     10 C2         -3.1550   -3.4340    3.8320 c3        1 54C     -0.111600
     11 C3         -0.8700   -3.9490    4.6980 c3        1 54C     -0.111600
     12 CE2        -0.9610   -3.2930    1.6050 ca        1 54C     -0.042200
     13 CD2        -0.5160   -2.4590    0.5060 ca        1 54C     -0.092800
     14 CE3        -0.2550   -3.0350   -0.7380 ca        1 54C     -0.101000
     15 CZ3        -0.4080   -4.4050   -0.8930 ca        1 54C     -0.148000
     16 C70        -0.8290   -5.2120    0.1760 ca        1 54C     -0.117000
     17 CH2        -1.1130   -4.6770    1.4240 ca        1 54C     -0.141000
     18 OB         -0.1730    1.2280    1.1320 oh        1 54C     -0.631800
     19 C4         -1.7520   -1.6870    4.9800 cx        1 54C      0.038100
     20 C5         -2.8790   -1.4180    5.9150 cx        1 54C      0.068400
     21 O6         -2.6960   -0.6330    4.7290 os        1 54C     -0.391600
     22 H1          1.3630   -0.7990   -1.0980 hx        1 54C      0.093700
     23 H2         -0.8120    0.2640   -0.6210 h1        1 54C      0.099700
     24 H3          2.0650    0.2800    1.5560 hn        1 54C      0.448467
     25 H4          2.3780   -1.2370    0.9390 hn        1 54C      0.448467
     26 H9         -1.0520   -0.3010    3.0210 h4        1 54C      0.198000
     27 H10        -3.8620   -2.6130    3.5580 hc        1 54C      0.054033
     28 H11        -3.1800   -4.2100    3.0300 hc        1 54C      0.054033
     29 H12        -3.4880   -3.9020    4.7880 hc        1 54C      0.054033
     30 H13         0.1850   -3.6020    4.8130 hc        1 54C      0.054033
     31 H14        -0.8730   -4.8980    4.1140 hc        1 54C      0.054033
     32 H15        -1.2930   -4.1500    5.7110 hc        1 54C      0.054033
     33 H16         0.0470   -2.4050   -1.5880 ha        1 54C      0.138000
     34 H17        -0.2090   -4.8700   -1.8700 ha        1 54C      0.135000
     35 H18        -0.9460   -6.2950    0.0150 ha        1 54C      0.133000
     36 H19        -1.4600   -5.3270    2.2380 ha        1 54C      0.134000
     37 H20        -0.1890    2.0170    0.5640 ho        1 54C      0.455000
     38 H21        -0.7360   -1.3230    5.2410 h1        1 54C      0.094700
     39 H22        -3.7920   -2.0410    5.9190 h1        1 54C      0.085700
     40 H23        -2.6910   -0.8740    6.8600 h1        1 54C      0.085700
     41 OXT         2.9500    1.5700   -1.1670 o         1 54C     -0.767800
     42 HN3         3.2300    0.1090    0.3570 hn        1 54C      0.448467
@<TRIPOS>BOND
     1    1    2 1   
     2    1    4 1   
     3    1    5 1   
     4    1   22 1   
     5    2    3 1   
     6    2   18 1   
     7    2   23 1   
     8    3    7 2   
     9    3   13 1   
    10    4   24 1   
    11    4   25 1   
    12    4   42 1   
    13    5    6 1   
    14    5   41 1   
    15    7    8 1   
    16    7   26 1   
    17    8    9 1   
    18    8   12 1   
    19    9   10 1   
    20    9   11 1   
    21    9   19 1   
    22   10   27 1   
    23   10   28 1   
    24   10   29 1   
    25   11   30 1   
    26   11   31 1   
    27   11   32 1   
    28   12   13 ar  
    29   12   17 ar  
    30   13   14 ar  
    31   14   15 ar  
    32   14   33 1   
    33   15   16 ar  
    34   15   34 1   
    35   16   17 ar  
    36   16   35 1   
    37   17   36 1   
    38   18   37 1   
    39   19   20 1   
    40   19   21 1   
    41   19   38 1   
    42   20   21 1   
    43   20   39 1   
    44   20   40 1   
@<TRIPOS>SUBSTRUCTURE
     1 54C         1 TEMP              0 ****  ****    0 ROOT
