@<TRIPOS>MOLECULE
54D
   15    15     1     0     0
SMALL
bcc


@<TRIPOS>ATOM
      1 O8          1.8290   -1.5370   -0.0030 o         1 54D     -0.537000
      2 C6          1.1830   -0.4850   -0.0020 c         1 54D      0.679700
      3 O7          1.8910    0.6940   -0.0020 os        1 54D     -0.446900
      4 C9          3.3140    0.5790   -0.0020 c3        1 54D      0.130700
      5 C2         -0.2570   -0.3160   -0.0020 cc        1 54D     -0.199700
      6 S3         -1.0940    1.1360   -0.0010 ss        1 54D      0.141200
      7 C4         -2.5790    0.4080   -0.0010 cc        1 54D     -0.176100
      8 C5         -2.4870   -0.9740   -0.0020 cd        1 54D     -0.173000
      9 C1         -1.1310   -1.4000   -0.0020 cd        1 54D     -0.084000
     10 H9          3.6630    1.6410   -0.0020 h1        1 54D      0.051700
     11 H9A         3.6520    0.0350    0.9120 h1        1 54D      0.051700
     12 H9B         3.6520    0.0360   -0.9170 h1        1 54D      0.051700
     13 H4         -3.5160    0.9670   -0.0010 h4        1 54D      0.176000
     14 H5         -3.3350   -1.6610   -0.0020 ha        1 54D      0.160000
     15 H1         -0.8110   -2.4460   -0.0020 ha        1 54D      0.173000
@<TRIPOS>BOND
     1    1    2 2   
     2    2    3 1   
     3    2    5 1   
     4    3    4 1   
     5    4   10 1   
     6    4   11 1   
     7    4   12 1   
     8    5    6 1   
     9    5    9 2   
    10    6    7 1   
    11    7    8 2   
    12    7   13 1   
    13    8    9 1   
    14    8   14 1   
    15    9   15 1   
@<TRIPOS>SUBSTRUCTURE
     1 54D         1 TEMP              0 ****  ****    0 ROOT
