@<TRIPOS>MOLECULE
54D
   15    15     1     0     0
SMALL
bcc


@<TRIPOS>ATOM
      1 O8         -0.0980   -0.0060    0.0690 o         1 54D     -0.537000
      2 C6          1.1310   -0.0060   -0.0470 c         1 54D      0.679700
      3 O7          1.8780   -0.0020    1.1080 os        1 54D     -0.446900
      4 C9          1.1480    0.0020    2.3350 c3        1 54D      0.130700
      5 C2          1.9170   -0.0100   -1.2650 cc        1 54D     -0.199700
      6 S3          3.5900   -0.0100   -1.3770 ss        1 54D      0.141200
      7 C4          3.5900   -0.0150   -3.0310 cc        1 54D     -0.176100
      8 C5          2.3090   -0.0170   -3.5570 cd        1 54D     -0.173000
      9 C1          1.3290   -0.0140   -2.5280 cd        1 54D     -0.084000
     10 H9          0.5110    0.9160    2.3960 h1        1 54D      0.051700
     11 H9A         1.9480    0.0040    3.1160 h1        1 54D      0.051700
     12 H9B         0.5110   -0.9130    2.4020 h1        1 54D      0.051700
     13 H4          4.5040   -0.0170   -3.6260 h4        1 54D      0.176000
     14 H5          2.0660   -0.0210   -4.6210 ha        1 54D      0.160000
     15 H1          0.2490   -0.0150   -2.7010 ha        1 54D      0.173000
@<TRIPOS>BOND
     1    1    2 2   
     2    2    3 1   
     3    2    5 1   
     4    3    4 1   
     5    4   10 1   
     6    4   11 1   
     7    4   12 1   
     8    5    6 1   
     9    5    9 2   
    10    6    7 1   
    11    7    8 2   
    12    7   13 1   
    13    8    9 1   
    14    8   14 1   
    15    9   15 1   
@<TRIPOS>SUBSTRUCTURE
     1 54D         1 TEMP              0 ****  ****    0 ROOT
