@<TRIPOS>MOLECULE
54D
   15    11     1     0     0
SMALL
bcc


@<TRIPOS>ATOM
      1 O8          0.2180   -0.6140    1.9170 o         1 54D     -0.348000
      2 C6         -0.2930   -0.0900    0.9580 c1        1 54D      0.380000
      3 O7         -1.5330    0.5890    1.1020 o         1 54D     -0.285000
      4 C9         -2.2210    0.2950    2.3410 c3        1 54D     -0.059000
      5 C2          0.4710    0.0210   -0.3250 c2        1 54D     -0.449000
      6 S3          1.2020    1.2990   -0.8470 ss        1 54D      0.681000
      7 C4          1.9450    0.9110   -2.1790 c1        1 54D     -0.446000
      8 C5          1.6810   -0.5120   -2.4460 c1        1 54D     -0.173000
      9 C1          0.7460   -1.0790   -1.2720 c1        1 54D     -0.084000
     10 H9         -1.6160    0.5210    3.1270 h1        1 54D      0.091000
     11 H9A        -3.0660    0.8470    2.3980 h1        1 54D      0.091000
     12 H9B        -2.4510   -0.6560    2.3690 h1        1 54D      0.091000
     13 H4          2.4780    1.5020   -2.7240 DU        1 54D      0.169667
     14 H5          2.0250   -1.0340   -3.2250 DU        1 54D      0.169667
     15 H1          0.4130   -2.0010   -1.1950 DU        1 54D      0.169667
@<TRIPOS>BOND
     1    1    2 1   
     2    2    5 1   
     3    3    4 1   
     4    4   10 1   
     5    4   11 1   
     6    4   12 1   
     7    5    6 1   
     8    5    9 1   
     9    6    7 1   
    10    7    8 1   
    11    8    9 1   
@<TRIPOS>SUBSTRUCTURE
     1 54D         1 TEMP              0 ****  ****    0 ROOT
