@<TRIPOS>MOLECULE
54F
   24    20     1     0     0
SMALL
bcc


@<TRIPOS>ATOM
      1 N1         -1.8020    0.9610    0.9870 n1        1 54F     -0.180000
      2 C2         -0.7640    1.5370    0.3170 c1        1 54F      0.110000
      3 C3          0.0610    2.4420    0.9650 c1        1 54F     -0.182000
      4 C4         -0.1660    2.7570    2.2730 c1        1 54F     -0.143000
      5 C5         -1.2060    2.1800    2.9420 c1        1 54F     -0.143000
      6 C6         -2.0290    1.2750    2.2930 c1        1 54F     -0.039000
      7 N8         -0.3490   -3.5540   -1.0580 n3        1 54F     -0.329000
      8 C9          0.2630   -2.2920   -1.2720 c2        1 54F      0.071000
      9 C10        -0.4430   -1.1260   -1.0170 c1        1 54F     -0.192000
     10 C11         0.1570    0.1060   -1.2210 c1        1 54F      0.110000
     11 C12         1.4630    0.1730   -1.6790 c1        1 54F     -0.182000
     12 C13         2.1690   -0.9920   -1.9340 c1        1 54F     -0.084000
     13 C14         1.5690   -2.2240   -1.7300 c2        1 54F     -0.197000
     14 OAK        -0.5880    1.2840   -1.0530 os        1 54F     -0.160000
     15 H3          0.8050    2.8550    0.4850 ha        1 54F      0.153000
     16 H4          0.4150    3.3950    2.7300 ha        1 54F      0.142500
     17 H5         -1.3690    2.4050    3.8770 ha        1 54F      0.142500
     18 H6         -2.7730    0.8620    2.7710 ha        1 54F      0.163000
     19 HN8        -1.2610   -3.6210   -1.0290 hn        1 54F      0.186000
     20 HN8A        0.1670   -4.3020   -0.9610 hn        1 54F      0.186000
     21 H10        -1.3630   -1.1740   -0.6940 ha        1 54F      0.147000
     22 H12         1.8860    1.0420   -1.8230 ha        1 54F      0.153000
     23 H13         3.0890   -0.9440   -2.2570 ha        1 54F      0.133000
     24 H14         2.0660   -3.0450   -1.9100 ha        1 54F      0.133000
@<TRIPOS>BOND
     1    1    6 1   
     2    2    3 1   
     3    2   14 1   
     4    3   15 1   
     5    4    5 1   
     6    4   16 1   
     7    5   17 1   
     8    6   18 1   
     9    7    8 1   
    10    7   19 1   
    11    7   20 1   
    12    8    9 1   
    13    8   13 1   
    14    9   21 1   
    15   10   11 1   
    16   10   14 1   
    17   11   22 1   
    18   12   13 1   
    19   12   23 1   
    20   13   24 1   
@<TRIPOS>SUBSTRUCTURE
     1 54F         1 TEMP              0 ****  ****    0 ROOT
