@<TRIPOS>MOLECULE
54F
   25    26     1     0     0
SMALL
bcc


@<TRIPOS>ATOM
      1 N1          0.9430    1.5970    0.1990 n2        1 54F     -0.182000
      2 C2          1.5610    0.2450   -0.0150 c3        1 54F      0.085000
      3 C3          1.5520   -0.6210    1.2340 c2        1 54F     -0.187000
      4 C4          0.8580   -0.2890    2.3540 c2        1 54F     -0.076000
      5 C5         -0.1660    0.7490    2.2290 c2        1 54F     -0.131000
      6 C6          0.1540    1.5350    1.1820 c1        1 54F     -0.008000
      7 C9         -0.4030    0.5820   -4.1040 c2        1 54F     -0.218000
      8 C10         0.0500    0.7570   -2.8350 c2        1 54F     -0.002000
      9 C11         1.2200   -0.0620   -2.3740 c3        1 54F      0.027000
     10 C12         1.5700   -1.2130   -3.2670 c2        1 54F     -0.015000
     11 C13         1.0500   -1.3310   -4.5140 c2        1 54F     -0.200000
     12 C14         0.0450   -0.4570   -4.9970 c1        1 54F     -0.044000
     13 OAK         0.9960   -0.5600   -1.0620 os        1 54F     -0.237000
     14 H3          2.6270    0.5300   -0.2720 h2        1 54F      0.148000
     15 H4          2.1230   -1.5560    1.1520 ha        1 54F      0.171000
     16 H5          0.9240   -0.8610    3.2910 ha        1 54F      0.172000
     17 H6         -1.0580    0.7780    2.8570 ha        1 54F      0.194000
     18 HN8        -2.3150    1.3650   -4.1120 hn        1 54F      0.261333
     19 HN8A       -1.1660    2.3670   -4.7980 hn        1 54F      0.261333
     20 H10        -0.3570    1.4790   -2.1050 ha        1 54F      0.182000
     21 H12         2.1150    0.6500   -2.3990 h1        1 54F      0.173000
     22 H13         2.2940   -1.9330   -2.8460 ha        1 54F      0.180000
     23 H14         1.3670   -2.1480   -5.1890 ha        1 54F      0.193000
     24 H83        -1.6770    0.9950   -5.6260 hn        1 54F      0.261333
     25 N8         -1.4730    1.3960   -4.6920 n4        1 54F     -0.009000
@<TRIPOS>BOND
     1    1    2 1   
     2    1    6 1   
     3    2    3 1   
     4    2   13 1   
     5    2   14 1   
     6    3    4 1   
     7    3   15 1   
     8    4    5 1   
     9    4   16 1   
    10    5    6 1   
    11    5   17 1   
    12    7    8 1   
    13    7   12 1   
    14    7   25 1   
    15    8    9 1   
    16    8   20 1   
    17    9   10 1   
    18    9   13 1   
    19    9   21 1   
    20   10   11 1   
    21   10   22 1   
    22   11   12 1   
    23   11   23 1   
    24   18   25 1   
    25   19   25 1   
    26   24   25 1   
@<TRIPOS>SUBSTRUCTURE
     1 54F         1 TEMP              0 ****  ****    0 ROOT
