@<TRIPOS>MOLECULE
54F
   24    25     1     0     0
SMALL
bcc


@<TRIPOS>ATOM
      1 N1          1.3930   -0.7020   -0.6590 nb        1 54F     -0.712000
      2 C2          1.5420    0.3600    0.1730 ca        1 54F      0.623600
      3 C3          2.7850    0.7800    0.7170 ca        1 54F     -0.257300
      4 C4          3.9180    0.0540    0.3660 ca        1 54F     -0.069000
      5 C5          3.7940   -1.0440   -0.4920 ca        1 54F     -0.281300
      6 C6          2.5170   -1.3770   -0.9720 ca        1 54F      0.424200
      7 C9         -2.7210   -0.7150    0.2660 ca        1 54F      0.149600
      8 C10        -1.3730   -0.4290    0.5810 ca        1 54F     -0.189000
      9 C11        -0.8150    0.7720    0.1480 ca        1 54F      0.140100
     10 C12        -1.5420    1.7090   -0.5970 ca        1 54F     -0.170000
     11 C13        -2.8710    1.4210   -0.8980 ca        1 54F     -0.085000
     12 C14        -3.4590    0.2310   -0.4850 ca        1 54F     -0.196000
     13 OAK         0.4690    1.1560    0.5490 os        1 54F     -0.372400
     14 H3          2.8250    1.6500    1.3840 ha        1 54F      0.160000
     15 H4          4.9030    0.3430    0.7620 ha        1 54F      0.141000
     16 H5          4.6700   -1.6340   -0.7860 ha        1 54F      0.146000
     17 H6          2.3710   -2.2350   -1.6520 h4        1 54F      0.023100
     18 HN8        -2.7020   -2.6120    0.9680 hn        1 54F      0.389800
     19 HN8A       -4.1270   -2.1690    0.2350 hn        1 54F      0.389800
     20 H10        -0.7620   -1.1400    1.1560 ha        1 54F      0.147000
     21 H12        -1.0700    2.6450   -0.9220 ha        1 54F      0.147000
     22 H13        -3.4630    2.1440   -1.4790 ha        1 54F      0.133000
     23 H14        -4.5100    0.0300   -0.7420 ha        1 54F      0.133000
     24 N8         -3.3340   -1.8720    0.7600 nh        1 54F     -0.817200
@<TRIPOS>BOND
     1    1    2 ar  
     2    1    6 ar  
     3    2    3 ar  
     4    2   13 1   
     5    3    4 ar  
     6    3   14 1   
     7    4    5 ar  
     8    4   15 1   
     9    5    6 ar  
    10    5   16 1   
    11    6   17 1   
    12    7    8 ar  
    13    7   12 ar  
    14    7   24 1   
    15    8    9 ar  
    16    8   20 1   
    17    9   10 ar  
    18    9   13 1   
    19   10   11 ar  
    20   10   21 1   
    21   11   12 ar  
    22   11   22 1   
    23   12   23 1   
    24   18   24 1   
    25   19   24 1   
@<TRIPOS>SUBSTRUCTURE
     1 54F         1 TEMP              0 ****  ****    0 ROOT
