@<TRIPOS>MOLECULE
54F
   24    24     1     0     0
SMALL
bcc


@<TRIPOS>ATOM
      1 N1         -0.2190    0.8580    1.1870 n2        1 54F     -0.489600
      2 C2          0.9690    0.4240    0.3670 c3        1 54F      0.351500
      3 C3          2.0880   -0.1150    1.2610 c2        1 54F     -0.200200
      4 C4          1.8950   -0.4660    2.5570 ce        1 54F     -0.094000
      5 C5          0.5170   -0.5810    3.0390 ce        1 54F     -0.235100
      6 C6         -0.2620    0.1770    2.2420 c1        1 54F      0.274500
      7 C9         -0.0170    0.9340   -5.6380 c1        1 54F     -0.024200
      8 C10        -0.3680    0.9990   -2.0720 c2        1 54F     -0.284000
      9 C11         0.2510   -0.1700   -1.8530 ce        1 54F      0.104100
     10 C12         0.4560   -1.2440   -2.8150 ce        1 54F     -0.128000
     11 C13         0.4050   -1.1580   -4.1550 cf        1 54F      0.016300
     12 C14         0.1730   -0.0200   -4.9280 ch        1 54F     -0.205300
     13 OAK         0.7500   -0.5830   -0.6130 os        1 54F     -0.333900
     14 H3          1.2820    1.4020   -0.1070 h2        1 54F      0.104700
     15 H4          3.0480   -0.2510    0.7480 ha        1 54F      0.156000
     16 H5          2.7100   -0.8000    3.2120 ha        1 54F      0.148000
     17 H6          0.2220   -1.2510    3.8440 ha        1 54F      0.175000
     18 HN8        -0.1470    2.8620   -5.9990 hn        1 54F      0.397300
     19 HN8A        0.0390    1.9020   -7.3480 hn        1 54F      0.397300
     20 H10        -0.5330    1.7590   -1.3010 ha        1 54F      0.139000
     21 H12        -0.7680    1.2420   -3.0650 ha        1 54F      0.139000
     22 H13         0.6790   -2.2240   -2.3520 ha        1 54F      0.146000
     23 H14         0.5700   -2.0780   -4.7530 ha        1 54F      0.140000
     24 N8         -0.3410    1.9760   -6.4240 n3        1 54F     -0.692400
@<TRIPOS>BOND
     1    1    2 1   
     2    1    6 2   
     3    2    3 1   
     4    2   13 1   
     5    2   14 1   
     6    3    4 2   
     7    3   15 1   
     8    4    5 1   
     9    4   16 1   
    10    5    6 2   
    11    5   17 1   
    12    7   12 3   
    13    7   24 1   
    14    8    9 2   
    15    8   20 1   
    16    8   21 1   
    17    9   10 1   
    18    9   13 1   
    19   10   11 2   
    20   10   22 1   
    21   11   12 1   
    22   11   23 1   
    23   18   24 1   
    24   19   24 1   
@<TRIPOS>SUBSTRUCTURE
     1 54F         1 TEMP              0 ****  ****    0 ROOT
