@<TRIPOS>MOLECULE
54H
   55    69     1     0     0
SMALL
bcc


@<TRIPOS>ATOM
      1 C4          0.0000    0.0000    0.0000 c2        1 54H     -0.237000
      2 C5          1.4050    0.0000    0.0000 c2        1 54H     -0.326000
      3 C6          2.0700    0.0000    1.2390 c3        1 54H      0.480000
      4 C8          0.7600   -0.0090   -2.0700 c2        1 54H     -0.271000
      5 N1          1.3380    0.0000    2.3490 n2        1 54H     -0.148000
      6 N3         -0.6460    0.0010    1.1620 nu        1 54H      0.258000
      7 CB          1.9910    0.4070   -6.3150 DU        1 54H      0.311000
      8 CG1         3.4060    0.9540   -6.5140 c3        1 54H      0.160000
      9 CA          1.6690   -0.5920   -7.4280 DU        1 54H     -0.394000
     10 N           2.6330   -1.7000   -7.3850 nz        1 54H      0.158000
     11 C           0.2760   -1.1310   -7.2320 c3        1 54H      0.810000
     12 O           0.1120   -2.2200   -6.7230 o         1 54H     -0.386000
     13 NAP        -0.7900   -0.4040   -7.6230 ny        1 54H     -0.557000
     14 SBD        -2.3210   -0.9960   -7.4080 s6        1 54H      2.410000
     15 OAF        -3.2100    0.0060   -7.8830 o         1 54H     -0.788500
     16 OAG        -2.3110   -2.3260   -7.9080 o         1 54H     -0.788500
     17 O5'        -2.5560   -1.1030   -5.9080 os        1 54H     -0.567000
     18 C4'        -3.0110   -0.0740   -3.7680 DU        1 54H     -0.354000
     19 O4'        -1.7990   -0.5540   -3.1620 os        1 54H     -0.223000
     20 C3'        -3.3680    1.2600   -3.0840 DU        1 54H      0.124000
     21 O3'        -4.6580    1.1790   -2.4740 oh        1 54H     -0.172000
     22 C2'        -2.2690    1.4420   -2.0100 DU        1 54H     -0.006000
     23 O2'        -2.8250    1.9420   -0.7920 oh        1 54H     -0.130000
     24 C1'        -1.7520   -0.0090   -1.8270 c3        1 54H      0.035000
     25 N9         -0.3780   -0.0050   -1.3180 na        1 54H      0.365000
     26 N7          1.8040   -0.0010   -1.2940 n2        1 54H      0.138000
     27 C2          0.0180    0.0000    2.2980 c2        1 54H     -0.022000
     28 N6          3.4520   -0.0010    1.3020 n8        1 54H      0.073000
     29 H8          0.7580    0.4170   -3.0660 h5        1 54H      0.154000
     30 HG1         2.3580    0.8290   -6.2700 hc        1 54H     -0.154000
     31 HG1A        2.7570    0.7130   -5.6800 DU        1 54H      0.260000
     32 HG1B        3.5960    1.0890   -7.5720 hc        1 54H     -0.154000
     33 HA          2.2500    0.2020   -6.9750 DU        1 54H      0.260000
     34 HN          3.1730   -0.9960   -6.9220 hn        1 54H      0.015500
     35 HNA         2.2040   -0.9340   -7.8660 DU        1 54H      0.226000
     36 HNAP        0.1880   -0.6120   -7.5810 DU        1 54H      0.095000
     37 H4'        -2.2060   -0.4030   -4.4140 DU        1 54H      0.476000
     38 H3'        -2.8740    1.0880   -4.0330 DU        1 54H      0.166000
     39 HO3'       -4.3350    0.4190   -2.9300 DU        1 54H      0.289000
     40 H2'        -2.7970    1.7570   -2.9020 DU        1 54H      0.130000
     41 HO2'       -3.5430    1.9170   -1.4020 ho        1 54H      0.245000
     42 H1'        -1.6150    1.0310   -2.0990 DU        1 54H      0.128000
     43 H2         -0.5610    0.6320    1.6360 DU        1 54H      0.168000
     44 HN6         2.5330   -0.0890    0.9150 hn        1 54H     -0.065000
     45 HN6A        2.5510   -0.0000    1.7370 DU        1 54H      0.071000
     46 CG2         0.9870    1.5610   -6.3600 c3        1 54H     -0.282000
     47 HN3         2.7680   -1.4500   -6.4260 hn        1 54H      0.015500
     48 HAP2        0.0680   -0.9030   -7.4890 DU        1 54H     -0.746000
     49 C5'        -2.7880    0.1530   -5.2660 DU        1 54H      0.185000
     50 HB          1.9270   -0.0900   -5.3540 ha        1 54H      0.118000
     51 H5'        -3.6450    0.7760   -5.4920 ha        1 54H      0.092000
     52 HG2         1.0770    2.4830   -5.7990 hc        1 54H      0.087333
     53 HG2A        0.7240    2.1190   -7.2500 hc        1 54H      0.087333
     54 HG2B       -0.0590    1.4870   -6.0870 hc        1 54H      0.087333
     55 H5'A       -1.9310    0.8070   -5.1600 ha        1 54H      0.092000
@<TRIPOS>BOND
     1    1    2 1   
     2    1    6 1   
     3    1   25 1   
     4    2    3 1   
     5    2   26 1   
     6    3    5 1   
     7    3   28 1   
     8    3   45 1   
     9    4   25 1   
    10    4   26 1   
    11    4   29 1   
    12    5   27 1   
    13    6   27 1   
    14    6   43 1   
    15    7    8 1   
    16    7    9 1   
    17    7   31 1   
    18    7   33 1   
    19    7   46 1   
    20    7   50 1   
    21    8   30 1   
    22    8   31 1   
    23    8   32 1   
    24    9   10 1   
    25    9   11 1   
    26    9   33 1   
    27    9   35 1   
    28   10   34 1   
    29   10   35 1   
    30   10   47 1   
    31   11   12 1   
    32   11   13 1   
    33   11   36 1   
    34   13   14 1   
    35   13   36 1   
    36   13   48 1   
    37   14   15 1   
    38   14   16 1   
    39   14   17 1   
    40   17   49 1   
    41   18   19 1   
    42   18   20 1   
    43   18   37 1   
    44   18   38 1   
    45   18   49 1   
    46   19   24 1   
    47   20   21 1   
    48   20   22 1   
    49   20   38 1   
    50   20   39 1   
    51   20   40 1   
    52   21   39 1   
    53   22   23 1   
    54   22   24 1   
    55   22   40 1   
    56   22   42 1   
    57   23   41 1   
    58   24   25 1   
    59   24   42 1   
    60   27   43 1   
    61   28   44 1   
    62   28   45 1   
    63   36   48 1   
    64   37   49 1   
    65   46   52 1   
    66   46   53 1   
    67   46   54 1   
    68   49   51 1   
    69   49   55 1   
@<TRIPOS>SUBSTRUCTURE
     1 54H         1 TEMP              0 ****  ****    0 ROOT
