@<TRIPOS>MOLECULE
54H
   53    48     1     0     0
SMALL
bcc


@<TRIPOS>ATOM
      1 C4          2.9870    0.5960    4.8270 c1        1 54H      0.061000
      2 C5          4.3290    0.6250    4.8690 c1        1 54H     -0.238000
      3 C6          4.9900    0.6400    6.1060 c1        1 54H      0.242000
      4 C8          3.7300    0.6600    2.7560 c1        1 54H     -0.034000
      5 N1          4.2820    0.6250    7.2480 n1        1 54H     -0.269000
      6 N3          2.2630    0.5810    6.0010 n1        1 54H     -0.237000
      7 CG2        -1.3660   -1.8110   -6.0930 c3        1 54H     -0.214500
      8 CB         -2.2840   -0.6420   -5.7280 c3        1 54H     -0.139000
      9 CG1        -2.7100    0.1210   -7.0360 c3        1 54H     -0.214500
     10 CA         -3.5330   -1.1770   -5.0210 c3        1 54H     -0.041000
     11 N          -3.4790   -2.5770   -4.9740 n3        1 54H     -0.347000
     12 C          -3.5980   -0.6150   -3.5910 c2        1 54H      0.337000
     13 O          -4.2950    0.3460   -3.3500 o         1 54H     -0.333000
     14 NAP        -2.8290   -1.2330   -2.5350 n         1 54H     -0.872000
     15 SBD        -2.1250   -0.3070   -1.3820 s4        1 54H      2.033800
     16 OAF        -1.1870    0.7090   -1.9890 o         1 54H     -0.521400
     17 OAG        -3.1450    0.5990   -0.7030 o         1 54H     -0.521400
     18 O5'        -1.3910   -1.1980   -0.3520 o         1 54H     -0.708000
     19 C5'        -0.1150   -0.7470    0.0570 c3        1 54H      0.018000
     20 C4'        -0.1630   -0.3400    1.5500 c3        1 54H     -0.003000
     21 O4'         0.9560   -0.6260    2.1270 os        1 54H     -0.264000
     22 C3'        -0.3070    1.1970    1.6840 c3        1 54H      0.006000
     23 O3'        -1.5440    1.5150    2.1550 oh        1 54H     -0.312000
     24 C2'         0.7730    1.6240    2.6880 c3        1 54H     -0.025000
     25 O2'         0.1840    2.5040    3.7330 oh        1 54H     -0.321000
     26 C1'         1.1980    0.5140    3.2180 c3        1 54H      0.132000
     27 N9          2.6070    0.6180    3.5180 n2        1 54H     -0.207000
     28 N7          4.7910    0.6650    3.5820 n1        1 54H     -0.123000
     29 C2          2.9110    0.5960    7.2060 c1        1 54H      0.029000
     30 N6          6.4150    0.7490    6.3640 n3        1 54H     -0.353000
     31 H8          3.7630    0.6070    1.7800 DU        1 54H      0.215000
     32 HG2        -1.0590   -2.2520   -5.2730 hc        1 54H      0.080000
     33 HG2A       -0.5920   -1.4740   -6.5940 hc        1 54H      0.080000
     34 HG2B       -1.8570   -2.4530   -6.6440 hc        1 54H      0.080000
     35 HB         -1.8010   -0.0180   -5.1230 hc        1 54H      0.126000
     36 HG1        -1.9080    0.4330   -7.5090 hc        1 54H      0.080000
     37 HG1A       -3.2260   -0.4900   -7.6240 hc        1 54H      0.080000
     38 HG1B       -3.2610    0.8810   -6.7990 hc        1 54H      0.080000
     39 HA         -4.3410   -0.8970   -5.5210 h1        1 54H      0.126000
     40 HN         -3.8400   -2.8730   -4.1820 hn        1 54H      0.161000
     41 HNA        -3.9560   -2.9260   -5.6780 hn        1 54H      0.161000
     42 HNAP       -2.7670   -2.1210   -2.4910 hn        1 54H      0.275000
     43 H5'         0.1460    0.0270   -0.4850 h1        1 54H      0.099000
     44 H5'A        0.5450   -1.4720   -0.0650 h1        1 54H      0.099000
     45 H4'        -0.9020   -0.7890    2.0010 h1        1 54H      0.163000
     46 H3'        -0.1530    1.6250    0.8260 h1        1 54H      0.131000
     47 HO3'       -1.9120    2.1310    1.6340 ho        1 54H      0.229000
     48 H2'         1.5060    2.0850    2.2270 h1        1 54H      0.118000
     49 HO2'        0.4440    3.3380    3.5960 ho        1 54H      0.237000
     50 H1'         0.6920    0.3130    4.0350 h2        1 54H      0.144000
     51 H2          2.3900    0.5850    8.0490 ha        1 54H      0.189000
     52 HN6         6.7260    0.8490    7.2410 hn        1 54H      0.243500
     53 HN6A        7.0170    0.6790    5.6650 hn        1 54H      0.243500
@<TRIPOS>BOND
     1    1    6 1   
     2    2    3 1   
     3    3   30 1   
     4    4   27 1   
     5    4   28 1   
     6    5   29 1   
     7    7    8 1   
     8    7   32 1   
     9    7   33 1   
    10    7   34 1   
    11    8    9 1   
    12    8   10 1   
    13    8   35 1   
    14    9   36 1   
    15    9   37 1   
    16    9   38 1   
    17   10   11 1   
    18   10   12 1   
    19   10   39 1   
    20   11   40 1   
    21   11   41 1   
    22   12   13 1   
    23   12   14 1   
    24   14   15 1   
    25   14   42 1   
    26   15   16 1   
    27   15   17 1   
    28   18   19 1   
    29   19   20 1   
    30   19   43 1   
    31   19   44 1   
    32   20   21 1   
    33   20   22 1   
    34   20   45 1   
    35   21   26 1   
    36   22   23 1   
    37   22   24 1   
    38   22   46 1   
    39   23   47 1   
    40   24   25 1   
    41   24   26 1   
    42   24   48 1   
    43   25   49 1   
    44   26   27 1   
    45   26   50 1   
    46   29   51 1   
    47   30   52 1   
    48   30   53 1   
@<TRIPOS>SUBSTRUCTURE
     1 54H         1 TEMP              0 ****  ****    0 ROOT
