@<TRIPOS>MOLECULE
54H
   53    55     1     0     0
SMALL
bcc


@<TRIPOS>ATOM
      1 C4          3.1100    0.1030    0.0050 ca        1 54H      0.443800
      2 C5          2.9410   -1.3400    0.1180 ca        1 54H     -0.223200
      3 C6          4.0370   -2.1600   -0.3100 ca        1 54H      0.750200
      4 C8          1.1000   -0.4410    0.8730 cc        1 54H      0.432700
      5 N1          5.1760   -1.5510   -0.7820 nb        1 54H     -0.789000
      6 N3          4.2400    0.7040   -0.4780 nb        1 54H     -0.756000
      7 CB         -1.4780   -3.2200   -1.0420 c3        1 54H     -0.112700
      8 CG1        -1.2110   -2.2550   -2.1770 c3        1 54H     -0.093100
      9 CA         -2.8750   -2.9460   -0.4340 c3        1 54H      0.116500
     10 N          -3.3660   -3.9030    0.5340 n3        1 54H     -0.902800
     11 C          -2.8130   -1.5600    0.2420 c         1 54H      0.696100
     12 O          -2.0860   -1.3440    1.2220 o         1 54H     -0.559100
     13 NAP        -3.5960   -0.5290   -0.2840 n         1 54H     -0.701300
     14 SBD        -3.8730    0.9610    0.3400 s6        1 54H      1.703100
     15 OAF        -4.3840    1.7490   -0.6870 o         1 54H     -0.632300
     16 OAG        -4.4620    0.9480    1.5840 o         1 54H     -0.632300
     17 O5'        -2.3590    1.6010    0.6370 os        1 54H     -0.545500
     18 C4'        -0.4550    2.9390    0.1990 c3        1 54H      0.094100
     19 O4'         0.3660    2.3000    1.1840 os        1 54H     -0.383600
     20 C3'         0.4620    3.5170   -0.9000 c3        1 54H      0.129100
     21 O3'         0.4290    4.9210   -0.9170 oh        1 54H     -0.570800
     22 C2'         1.8610    2.9270   -0.6110 c3        1 54H      0.082100
     23 O2'         2.7460    3.9900   -0.3390 oh        1 54H     -0.591800
     24 C1'         1.6840    2.0680    0.6850 c3        1 54H      0.218800
     25 N9          1.9080    0.6540    0.4780 na        1 54H     -0.295000
     26 N7          1.6790   -1.6320    0.6600 nd        1 54H     -0.560100
     27 C2          5.1900   -0.1930   -0.8340 ca        1 54H      0.685900
     28 N6          3.9230   -3.5310   -0.2910 nh        1 54H     -0.946500
     29 H8          0.0970   -0.2780    1.3060 h5        1 54H      0.110800
     30 HG2        -0.4490   -4.7720   -2.1480 hc        1 54H      0.039033
     31 HG2A       -1.3240   -5.3650   -0.6840 hc        1 54H      0.039033
     32 HG2B       -2.2550   -4.9100   -2.1750 hc        1 54H      0.039033
     33 HG1        -0.1900   -2.4310   -2.5950 hc        1 54H      0.039033
     34 HG1A       -1.9560   -2.3890   -2.9970 hc        1 54H      0.039033
     35 HG1B       -1.2620   -1.1990   -1.8150 hc        1 54H      0.039033
     36 HA         -3.6210   -2.9420   -1.2850 h1        1 54H      0.068700
     37 HN         -3.3620   -4.8240    0.1400 hn        1 54H      0.368300
     38 HNA        -2.8090   -3.8900    1.3670 hn        1 54H      0.368300
     39 HNAP       -4.0520   -0.7730   -1.1390 hn        1 54H      0.343500
     40 H4'        -1.0020    3.7470    0.7590 h1        1 54H      0.112700
     41 H3'         0.1120    3.2160   -1.9260 h1        1 54H      0.090700
     42 HO3'        0.9420    5.2460   -0.1650 ho        1 54H      0.427000
     43 H2'         2.2220    2.3210   -1.4830 h1        1 54H      0.083700
     44 HO2'        3.6420    3.6310   -0.4000 ho        1 54H      0.435000
     45 H1'         2.3850    2.4290    1.5000 h2        1 54H      0.104700
     46 H2          6.1340    0.2440   -1.2270 h5        1 54H      0.052100
     47 HN6         3.1760   -3.9200    0.2310 hn        1 54H      0.440800
     48 HN6A        4.7270   -4.0880   -0.4500 hn        1 54H      0.440800
     49 C5'        -1.4560    1.9410   -0.3860 c3        1 54H      0.166400
     50 HB         -0.7040   -3.0570   -0.2370 hc        1 54H      0.089700
     51 CG2        -1.3770   -4.6470   -1.5370 c3        1 54H     -0.093100
     52 H5'        -0.9280    1.0060   -0.7230 h1        1 54H      0.048700
     53 H5'A       -2.0090    2.4160   -1.2430 h1        1 54H      0.048700
@<TRIPOS>BOND
     1    1    2 ar  
     2    1    6 ar  
     3    1   25 1   
     4    2    3 ar  
     5    2   26 1   
     6    3    5 ar  
     7    3   28 1   
     8    4   25 1   
     9    4   26 2   
    10    4   29 1   
    11    5   27 ar  
    12    6   27 ar  
    13    7    8 1   
    14    7    9 1   
    15    7   50 1   
    16    7   51 1   
    17    8   33 1   
    18    8   34 1   
    19    8   35 1   
    20    9   10 1   
    21    9   11 1   
    22    9   36 1   
    23   10   37 1   
    24   10   38 1   
    25   11   12 2   
    26   11   13 1   
    27   13   14 1   
    28   13   39 1   
    29   14   15 2   
    30   14   16 2   
    31   14   17 1   
    32   17   49 1   
    33   18   19 1   
    34   18   20 1   
    35   18   40 1   
    36   18   49 1   
    37   19   24 1   
    38   20   21 1   
    39   20   22 1   
    40   20   41 1   
    41   21   42 1   
    42   22   23 1   
    43   22   24 1   
    44   22   43 1   
    45   23   44 1   
    46   24   25 1   
    47   24   45 1   
    48   27   46 1   
    49   28   47 1   
    50   28   48 1   
    51   30   51 1   
    52   31   51 1   
    53   32   51 1   
    54   49   52 1   
    55   49   53 1   
@<TRIPOS>SUBSTRUCTURE
     1 54H         1 TEMP              0 ****  ****    0 ROOT
