@<TRIPOS>MOLECULE
54K
   19    20     1     0     0
SMALL
bcc


@<TRIPOS>ATOM
      1 N1         -0.0610   -0.1200   -0.0300 nb        1 54K     -0.702000
      2 C2          1.2890   -0.1190    0.0200 ca        1 54K      0.392200
      3 C3          2.0800   -0.0420    1.1760 ca        1 54K     -0.150600
      4 C3M         3.5530   -0.0310    1.1220 c3        1 54K     -0.040800
      5 C4          1.3820    0.0210    2.3950 ca        1 54K      0.109400
      6 C5         -0.0690    0.0040    2.3670 ca        1 54K     -0.214500
      7 C6         -0.7690   -0.0640    1.1270 ca        1 54K      0.599200
      8 N6         -2.1840   -0.1440    1.1490 nh        1 54K     -0.902500
      9 N7         -0.4870    0.0840    3.6990 na        1 54K     -0.269300
     10 C8          0.6890    0.1080    4.4700 cc        1 54K      0.425700
     11 N9          1.8140    0.0930    3.7340 nd        1 54K     -0.569100
     12 H1          1.7730   -0.1770   -0.9740 h4        1 54K      0.023100
     13 H2          3.9510    0.8950    1.6090 hc        1 54K      0.049700
     14 H3          3.9200   -0.0670    0.0670 hc        1 54K      0.049700
     15 H4          3.9660   -0.9140    1.6740 hc        1 54K      0.049700
     16 H5         -2.5860   -0.2660    0.2390 hn        1 54K      0.383800
     17 H6         -2.5790    0.6530    1.6070 hn        1 54K      0.383800
     18 H7         -1.4040   -0.0740    4.0200 hn        1 54K      0.310700
     19 H8          0.6570    0.1610    5.5660 h5        1 54K      0.070800
@<TRIPOS>BOND
     1    1    2 ar  
     2    1    7 ar  
     3    2    3 ar  
     4    2   12 1   
     5    3    4 1   
     6    3    5 ar  
     7    4   13 1   
     8    4   14 1   
     9    4   15 1   
    10    5    6 ar  
    11    5   11 1   
    12    6    7 ar  
    13    6    9 1   
    14    7    8 1   
    15    8   16 1   
    16    8   17 1   
    17    9   10 1   
    18    9   18 1   
    19   10   11 2   
    20   10   19 1   
@<TRIPOS>SUBSTRUCTURE
     1 54K         1 TEMP              0 ****  ****    0 ROOT
