@<TRIPOS>MOLECULE
54K
   19    20     1     0     0
SMALL
bcc


@<TRIPOS>ATOM
      1 N1         -0.0570   -0.1290   -0.0320 nb        1 54K     -0.702000
      2 C2          1.2930   -0.1200    0.0210 ca        1 54K      0.392200
      3 C3          2.0810   -0.0360    1.1780 ca        1 54K     -0.150600
      4 C3M         3.5550   -0.0180    1.1270 c3        1 54K     -0.040800
      5 C4          1.3810    0.0250    2.3960 ca        1 54K      0.109400
      6 C5         -0.0700    0.0000    2.3650 ca        1 54K     -0.214500
      7 C6         -0.7680   -0.0740    1.1250 ca        1 54K      0.599200
      8 N6         -2.1820   -0.1610    1.1440 nv        1 54K     -0.902500
      9 N7         -0.4900    0.0810    3.6960 na        1 54K     -0.269300
     10 C8          0.6840    0.1140    4.4700 cc        1 54K      0.425700
     11 N9          1.8110    0.1030    3.7360 nd        1 54K     -0.569100
     12 H1          1.7780   -0.1780   -0.9720 h4        1 54K      0.023100
     13 H2          3.9710   -0.8990    1.6780 hc        1 54K      0.049700
     14 H3          3.9230   -0.0510    0.0720 hc        1 54K      0.049700
     15 H4          3.9470    0.9100    1.6140 hc        1 54K      0.049700
     16 H5         -2.5820    0.6340    1.6000 hn        1 54K      0.383800
     17 H6         -2.5820   -0.2890    0.2340 hn        1 54K      0.383800
     18 H7         -1.4070   -0.0810    4.0170 hn        1 54K      0.310700
     19 H8          0.6500    0.1690    5.5650 h5        1 54K      0.070800
@<TRIPOS>BOND
     1    1    2 ar  
     2    1    7 ar  
     3    2    3 ar  
     4    2   12 1   
     5    3    4 1   
     6    3    5 ar  
     7    4   13 1   
     8    4   14 1   
     9    4   15 1   
    10    5    6 ar  
    11    5   11 1   
    12    6    7 ar  
    13    6    9 1   
    14    7    8 1   
    15    8   16 1   
    16    8   17 1   
    17    9   10 1   
    18    9   18 1   
    19   10   11 2   
    20   10   19 1   
@<TRIPOS>SUBSTRUCTURE
     1 54K         1 TEMP              0 ****  ****    0 ROOT
