@<TRIPOS>MOLECULE
54L
   12    10     1     0     0
SMALL
bcc


@<TRIPOS>ATOM
      1 C38        -0.1980    0.3330   -0.4130 c2        1 54L      0.264000
      2 O39         0.3920    1.2690    0.2200 o         1 54L     -0.583500
      3 C40        -0.8970   -0.6990    0.3700 c1        1 54L     -0.103000
      4 C41         0.3360   -0.2500    2.9860 c3        1 54L     -0.176000
      5 C42        -0.2950    0.0780    4.2220 c1        1 54L     -0.103000
      6 C43        -0.8260    0.3540    5.2610 c1        1 54L     -0.315000
      7 H2          0.3000    0.6130    2.2560 hc        1 54L      0.129000
      8 H3         -1.9630   -0.4940    0.5580 ha        1 54L      0.012000
      9 H4          1.4110   -0.5150    3.1530 hc        1 54L      0.129000
     10 H5         -0.1710   -1.1250    2.4930 hc        1 54L      0.129000
     11 H6         -1.2990    0.6040    6.1720 ha        1 54L      0.202000
     12 O1         -0.1890    0.2250   -1.6780 o         1 54L     -0.583500
@<TRIPOS>BOND
     1    1    2 1   
     2    1    3 1   
     3    1   12 1   
     4    3    8 1   
     5    4    5 1   
     6    4    7 1   
     7    4    9 1   
     8    4   10 1   
     9    5    6 1   
    10    6   11 1   
@<TRIPOS>SUBSTRUCTURE
     1 54L         1 TEMP              0 ****  ****    0 ROOT
