@<TRIPOS>MOLECULE
54M
   46    49     1     0     0
SMALL
bcc


@<TRIPOS>ATOM
      1 C15         4.9400    3.8480    0.8290 c3        1 54M      0.113700
      2 O14         4.6840    3.0760   -0.3380 os        1 54M     -0.327900
      3 C2          3.7960    2.0290   -0.1910 ca        1 54M      0.125100
      4 C3          3.5430    1.2950   -1.3650 ca        1 54M     -0.184000
      5 C4          2.6690    0.2190   -1.3160 ca        1 54M     -0.083500
      6 C1          3.1660    1.6810    1.0080 ca        1 54M     -0.184000
      7 C6          2.2890    0.5950    1.0340 ca        1 54M     -0.083500
      8 C5          2.0380   -0.1550   -0.1190 ca        1 54M     -0.106300
      9 C7          1.0810   -1.3370   -0.1170 c3        1 54M      0.238800
     10 C19         1.7330   -2.5580   -0.8730 c3        1 54M     -0.105400
     11 C17         1.2370   -3.0390    1.4150 c2        1 54M      0.584200
     12 N16         0.7890   -1.8110    1.2560 n2        1 54M     -0.653900
     13 N20         1.2360   -3.7580    2.6080 nh        1 54M     -0.883800
     14 C8         -0.1910   -0.8810   -0.8210 ca        1 54M     -0.059300
     15 C13        -1.2860   -0.4100   -0.0880 ca        1 54M     -0.089000
     16 C9         -0.2640   -0.8870   -2.2200 ca        1 54M     -0.124000
     17 C10        -1.4180   -0.4530   -2.8700 ca        1 54M     -0.131000
     18 C11        -2.5130   -0.0020   -2.1380 ca        1 54M     -0.117000
     19 C12        -2.4500    0.0260   -0.7380 cp        1 54M     -0.044000
     20 C21        -3.5820    0.5070    0.0370 cp        1 54M     -0.257600
     21 C14         1.8910   -3.6550    0.1750 c3        1 54M     -0.165700
     22 C26        -4.9180    0.2430   -0.3470 ca        1 54M      0.431200
     23 N21        -5.9770    0.6830    0.3610 nb        1 54M     -0.691500
     24 C24        -5.6900    1.4030    1.4790 ca        1 54M      0.622900
     25 N23        -4.4520    1.7190    1.9470 nb        1 54M     -0.691500
     26 C22        -3.4110    1.2670    1.2200 ca        1 54M      0.431200
     27 H151        4.0010    4.3260    1.2010 h1        1 54M      0.044033
     28 H152        5.4000    3.2160    1.6270 h1        1 54M      0.044033
     29 H153        5.6650    4.6250    0.4750 h1        1 54M      0.044033
     30 H3          4.0380    1.5860   -2.3020 ha        1 54M      0.142500
     31 H1          3.3480    2.2490    1.9300 ha        1 54M      0.142500
     32 H4          2.4650   -0.3400   -2.2430 ha        1 54M      0.140500
     33 H6          1.7970    0.3480    1.9880 ha        1 54M      0.140500
     34 H191        1.0740   -2.9130   -1.7000 hc        1 54M      0.061200
     35 H192        2.7240   -2.2780   -1.3030 hc        1 54M      0.061200
     36 H141        1.3710   -4.5970   -0.1250 hc        1 54M      0.066200
     37 H142        2.9650   -3.8890    0.3750 hc        1 54M      0.066200
     38 H201        0.6640   -3.3940    3.3390 hn        1 54M      0.404800
     39 H202        1.1580   -4.7410    2.4820 hn        1 54M      0.404800
     40 H13        -1.2500   -0.3750    1.0120 ha        1 54M      0.155000
     41 H9          0.5930   -1.2230   -2.8240 ha        1 54M      0.131000
     42 H10        -1.4620   -0.4630   -3.9690 ha        1 54M      0.134000
     43 H11        -3.4180    0.3440   -2.6570 ha        1 54M      0.134000
     44 H26        -5.1440   -0.3480   -1.2530 h4        1 54M      0.033600
     45 H22        -2.4020    1.5250    1.5900 h4        1 54M      0.033600
     46 H24        -6.5540    1.7710    2.0700 h5        1 54M      0.054100
@<TRIPOS>BOND
     1    1    2 1   
     2    1   27 1   
     3    1   28 1   
     4    1   29 1   
     5    2    3 1   
     6    3    4 ar  
     7    3    6 ar  
     8    4    5 ar  
     9    4   30 1   
    10    5    8 ar  
    11    5   32 1   
    12    6    7 ar  
    13    6   31 1   
    14    7    8 ar  
    15    7   33 1   
    16    8    9 1   
    17    9   10 1   
    18    9   12 1   
    19    9   14 1   
    20   10   21 1   
    21   10   34 1   
    22   10   35 1   
    23   11   12 2   
    24   11   13 1   
    25   11   21 1   
    26   13   38 1   
    27   13   39 1   
    28   14   15 ar  
    29   14   16 ar  
    30   15   19 ar  
    31   15   40 1   
    32   16   17 ar  
    33   16   41 1   
    34   17   18 ar  
    35   17   42 1   
    36   18   19 ar  
    37   18   43 1   
    38   19   20 1   
    39   20   22 ar  
    40   20   26 ar  
    41   21   36 1   
    42   21   37 1   
    43   22   23 ar  
    44   22   44 1   
    45   23   24 ar  
    46   24   25 ar  
    47   24   46 1   
    48   25   26 ar  
    49   26   45 1   
@<TRIPOS>SUBSTRUCTURE
     1 54M         1 TEMP              0 ****  ****    0 ROOT
