@<TRIPOS>MOLECULE
54M
   47    50     1     0     0
SMALL
bcc


@<TRIPOS>ATOM
      1 C15         0.2980   -0.3490   -0.4880 c3        1 54M      0.108700
      2 O14         1.6390    0.0800   -0.2620 os        1 54M     -0.313900
      3 C2          2.0850    0.0460    1.0370 ca        1 54M      0.156100
      4 C3          3.4370    0.4080    1.2120 ca        1 54M     -0.178000
      5 C4          3.9790    0.4200    2.4880 ca        1 54M     -0.077500
      6 C1          1.3040   -0.3130    2.1430 ca        1 54M     -0.178000
      7 C6          1.8690   -0.2970    3.4170 ca        1 54M     -0.077500
      8 C5          3.1990    0.0910    3.6090 ca        1 54M     -0.149300
      9 C7          3.8370    0.0900    4.9850 c3        1 54M      0.249800
     10 C19         4.8570    1.2860    5.1500 c3        1 54M     -0.107400
     11 C17         3.0960    1.3810    6.7190 c2        1 54M      0.413200
     12 N16         2.8000    0.3120    6.0420 n2        1 54M     -0.473900
     13 N20         2.2720    1.8830    7.8290 n4        1 54M     -0.784600
     14 C8          4.5350   -1.2450    5.1830 ca        1 54M     -0.095300
     15 C13         3.9420   -2.2910    5.8930 ca        1 54M     -0.107000
     16 C9          5.7840   -1.4480    4.5790 ca        1 54M     -0.116000
     17 C10         6.4400   -2.6690    4.7170 ca        1 54M     -0.113000
     18 C11         5.8600   -3.7030    5.4470 ca        1 54M     -0.099000
     19 C12         4.6020   -3.5220    6.0380 cp        1 54M     -0.018000
     20 C21         3.9770   -4.5970    6.7900 cp        1 54M     -0.284600
     21 C14         4.3570    2.1330    6.3250 c3        1 54M     -0.149700
     22 C26         4.0770   -5.9520    6.3880 ca        1 54M      0.440200
     23 N21         3.5000   -6.9540    7.0780 nb        1 54M     -0.682500
     24 C24         2.8060   -6.5950    8.1930 ca        1 54M      0.642900
     25 N23         2.6420   -5.3320    8.6740 nb        1 54M     -0.682500
     26 C22         3.2310   -4.3500    7.9660 ca        1 54M      0.440200
     27 H151       -0.4210    0.3240    0.0380 h1        1 54M      0.054367
     28 H152        0.1640   -1.4080   -0.1590 h1        1 54M      0.054367
     29 H153        0.1860   -0.2600   -1.5990 h1        1 54M      0.054367
     30 H3          4.0440    0.6660    0.3320 ha        1 54M      0.158000
     31 H1          0.2560   -0.6190    2.0180 ha        1 54M      0.158000
     32 H4          5.0460    0.6690    2.6020 ha        1 54M      0.136000
     33 H6          1.2410   -0.6170    4.2620 ha        1 54M      0.136000
     34 H191        4.8930    1.9080    4.2240 hc        1 54M      0.093200
     35 H192        5.8840    0.9020    5.3640 hc        1 54M      0.093200
     36 H141        5.0950    2.1590    7.1640 hc        1 54M      0.087700
     37 H142        4.1270    3.1820    6.0120 hc        1 54M      0.087700
     38 H201        1.9560    2.8320    7.5960 hn        1 54M      0.474133
     39 H202        2.8510    1.9110    8.6770 hn        1 54M      0.474133
     40 H13         2.9360   -2.1890    6.3290 ha        1 54M      0.140000
     41 H9          6.2470   -0.6550    3.9710 ha        1 54M      0.137000
     42 H10         7.4210   -2.8180    4.2390 ha        1 54M      0.152000
     43 H11         6.3880   -4.6630    5.5600 ha        1 54M      0.152000
     44 H26         4.6350   -6.2390    5.4780 h4        1 54M      0.026600
     45 H22         3.1110   -3.3250    8.3590 h4        1 54M      0.026600
     46 H24         2.3260   -7.4160    8.7680 h5        1 54M      0.068100
     47 H203        1.4520    1.2830    7.9970 hn        1 54M      0.474133
@<TRIPOS>BOND
     1    1    2 1   
     2    1   27 1   
     3    1   28 1   
     4    1   29 1   
     5    2    3 1   
     6    3    4 ar  
     7    3    6 ar  
     8    4    5 ar  
     9    4   30 1   
    10    5    8 ar  
    11    5   32 1   
    12    6    7 ar  
    13    6   31 1   
    14    7    8 ar  
    15    7   33 1   
    16    8    9 1   
    17    9   10 1   
    18    9   12 1   
    19    9   14 1   
    20   10   21 1   
    21   10   34 1   
    22   10   35 1   
    23   11   12 2   
    24   11   13 1   
    25   11   21 1   
    26   13   38 1   
    27   13   39 1   
    28   13   47 1   
    29   14   15 ar  
    30   14   16 ar  
    31   15   19 ar  
    32   15   40 1   
    33   16   17 ar  
    34   16   41 1   
    35   17   18 ar  
    36   17   42 1   
    37   18   19 ar  
    38   18   43 1   
    39   19   20 1   
    40   20   22 ar  
    41   20   26 ar  
    42   21   36 1   
    43   21   37 1   
    44   22   23 ar  
    45   22   44 1   
    46   23   24 ar  
    47   24   25 ar  
    48   24   46 1   
    49   25   26 ar  
    50   26   45 1   
@<TRIPOS>SUBSTRUCTURE
     1 54M         1 TEMP              0 ****  ****    0 ROOT
