@<TRIPOS>MOLECULE
54M
   47    50     1     0     0
SMALL
bcc


@<TRIPOS>ATOM
      1 C15         0.3110   -0.3460   -0.4980 c3        1 54M      0.108700
      2 O14         1.6520    0.0820   -0.2680 os        1 54M     -0.313900
      3 C2          2.0940    0.0470    1.0320 ca        1 54M      0.156100
      4 C3          3.4450    0.4080    1.2120 ca        1 54M     -0.178000
      5 C4          3.9840    0.4190    2.4890 ca        1 54M     -0.077500
      6 C1          1.3100   -0.3130    2.1350 ca        1 54M     -0.178000
      7 C6          1.8710   -0.2980    3.4110 ca        1 54M     -0.077500
      8 C5          3.2000    0.0890    3.6070 ca        1 54M     -0.149300
      9 C7          3.8340    0.0870    4.9850 c3        1 54M      0.249800
     10 C19         4.8540    1.2830    5.1540 c3        1 54M     -0.107400
     11 C17         3.0880    1.3760    6.7180 c2        1 54M      0.413200
     12 N16         2.7950    0.3080    6.0400 n2        1 54M     -0.473900
     13 N20         2.2610    1.8760    7.8260 nz        1 54M     -0.784600
     14 C8          4.5330   -1.2480    5.1830 ca        1 54M     -0.095300
     15 C13         3.9370   -2.2960    5.8900 ca        1 54M     -0.107000
     16 C9          5.7840   -1.4500    4.5840 ca        1 54M     -0.116000
     17 C10         6.4390   -2.6710    4.7220 ca        1 54M     -0.113000
     18 C11         5.8560   -3.7070    5.4490 ca        1 54M     -0.099000
     19 C12         4.5960   -3.5260    6.0350 cp        1 54M     -0.018000
     20 C21         3.9690   -4.6030    6.7830 cp        1 54M     -0.284600
     21 C14         4.3500    2.1290    6.3280 c3        1 54M     -0.149700
     22 C26         4.0710   -5.9570    6.3800 ca        1 54M      0.440200
     23 N21         3.4910   -6.9600    7.0660 nb        1 54M     -0.682500
     24 C24         2.7930   -6.6030    8.1790 ca        1 54M      0.642900
     25 N23         2.6270   -5.3410    8.6610 nb        1 54M     -0.682500
     26 C22         3.2190   -4.3570    7.9580 ca        1 54M      0.440200
     27 H151        0.1750   -1.4050   -0.1710 h1        1 54M      0.054367
     28 H152        0.2020   -0.2560   -1.6090 h1        1 54M      0.054367
     29 H153       -0.4100    0.3260    0.0260 h1        1 54M      0.054367
     30 H3          4.0550    0.6670    0.3330 ha        1 54M      0.158000
     31 H1          0.2620   -0.6190    2.0070 ha        1 54M      0.158000
     32 H4          5.0510    0.6680    2.6060 ha        1 54M      0.136000
     33 H6          1.2400   -0.6190    4.2540 ha        1 54M      0.136000
     34 H191        4.8920    1.9060    4.2280 hc        1 54M      0.093200
     35 H192        5.8810    0.8990    5.3700 hc        1 54M      0.093200
     36 H141        5.0860    2.1540    7.1700 hc        1 54M      0.087700
     37 H142        4.1210    3.1780    6.0150 hc        1 54M      0.087700
     38 H201        1.4410    1.2760    7.9910 hn        1 54M      0.474133
     39 H202        2.8380    1.9050    8.6760 hn        1 54M      0.474133
     40 H13         2.9290   -2.1940    6.3220 ha        1 54M      0.140000
     41 H9          6.2480   -0.6560    3.9780 ha        1 54M      0.137000
     42 H10         7.4220   -2.8200    4.2480 ha        1 54M      0.152000
     43 H11         6.3840   -4.6670    5.5620 ha        1 54M      0.152000
     44 H26         4.6320   -6.2420    5.4710 h4        1 54M      0.026600
     45 H22         3.0970   -3.3330    8.3510 h4        1 54M      0.026600
     46 H24         2.3110   -7.4250    8.7510 h5        1 54M      0.068100
     47 H203        1.9460    2.8250    7.5930 hn        1 54M      0.474133
@<TRIPOS>BOND
     1    1    2 1   
     2    1   27 1   
     3    1   28 1   
     4    1   29 1   
     5    2    3 1   
     6    3    4 ar  
     7    3    6 ar  
     8    4    5 ar  
     9    4   30 1   
    10    5    8 ar  
    11    5   32 1   
    12    6    7 ar  
    13    6   31 1   
    14    7    8 ar  
    15    7   33 1   
    16    8    9 1   
    17    9   10 1   
    18    9   12 1   
    19    9   14 1   
    20   10   21 1   
    21   10   34 1   
    22   10   35 1   
    23   11   12 2   
    24   11   13 1   
    25   11   21 1   
    26   13   38 1   
    27   13   39 1   
    28   13   47 1   
    29   14   15 ar  
    30   14   16 ar  
    31   15   19 ar  
    32   15   40 1   
    33   16   17 ar  
    34   16   41 1   
    35   17   18 ar  
    36   17   42 1   
    37   18   19 ar  
    38   18   43 1   
    39   19   20 1   
    40   20   22 ar  
    41   20   26 ar  
    42   21   36 1   
    43   21   37 1   
    44   22   23 ar  
    45   22   44 1   
    46   23   24 ar  
    47   24   25 ar  
    48   24   46 1   
    49   25   26 ar  
    50   26   45 1   
@<TRIPOS>SUBSTRUCTURE
     1 54M         1 TEMP              0 ****  ****    0 ROOT
