@<TRIPOS>MOLECULE
54M
   47    50     1     0     0
SMALL
bcc


@<TRIPOS>ATOM
      1 C15         0.1430   -0.1490   -0.3990 c3        1 54M      0.108700
      2 O14         1.5020    0.2380   -0.2080 os        1 54M     -0.313900
      3 C2          1.9880    0.1610    1.0750 ca        1 54M      0.157100
      4 C3          3.3550    0.4820    1.2130 ca        1 54M     -0.177500
      5 C4          3.9380    0.4490    2.4700 ca        1 54M     -0.078000
      6 C1          1.2340   -0.2030    2.1970 ca        1 54M     -0.177500
      7 C6          1.8410   -0.2330    3.4520 ca        1 54M     -0.078000
      8 C5          3.1860    0.1140    3.6080 ca        1 54M     -0.149300
      9 C7          3.8670    0.0610    4.9620 c3        1 54M      0.249800
     10 C19         4.9360    1.2140    5.1190 c3        1 54M     -0.107400
     11 C17         3.2420    1.3280    6.7580 c2        1 54M      0.414200
     12 N16         2.8740    0.2980    6.0570 n2        1 54M     -0.473900
     13 N20         2.4790    1.8290    7.9110 n4        1 54M     -0.783600
     14 C8          4.5240   -1.3010    5.1130 ca        1 54M     -0.095300
     15 C13         3.9340   -2.3320    5.8480 ca        1 54M     -0.109000
     16 C9          5.7340   -1.5410    4.4460 ca        1 54M     -0.116000
     17 C10         6.3560   -2.7830    4.5460 ca        1 54M     -0.113000
     18 C11         5.7820   -3.8010    5.3030 ca        1 54M     -0.099000
     19 C12         4.5610   -3.5830    5.9550 cp        1 54M     -0.018000
     20 C21         3.9410   -4.6420    6.7350 cp        1 54M     -0.288600
     21 C14         4.5230    2.0340    6.3450 c3        1 54M     -0.149700
     22 C26         4.7030   -5.5230    7.5400 ca        1 54M      0.438700
     23 N21         4.1400   -6.5030    8.2710 nb        1 54M     -0.682500
     24 C24         2.7850   -6.6060    8.1950 ca        1 54M      0.640900
     25 N23         1.9520   -5.8220    7.4570 nb        1 54M     -0.682500
     26 C22         2.5410   -4.8520    6.7310 ca        1 54M      0.438700
     27 H151       -0.0110   -1.2110   -0.0910 h1        1 54M      0.054367
     28 H152       -0.5400    0.5310    0.1650 h1        1 54M      0.054367
     29 H153       -0.0020   -0.0310   -1.5040 h1        1 54M      0.054367
     30 H3          3.9400    0.7460    0.3200 ha        1 54M      0.158500
     31 H1          0.1740   -0.4760    2.1000 ha        1 54M      0.158500
     32 H4          5.0140    0.6690    2.5540 ha        1 54M      0.135500
     33 H6          1.2300   -0.5540    4.3100 ha        1 54M      0.135500
     34 H191        5.9590    0.7890    5.2650 hc        1 54M      0.092700
     35 H192        4.9470    1.8700    4.2140 hc        1 54M      0.092700
     36 H141        4.3360    3.1060    6.0860 hc        1 54M      0.087700
     37 H142        5.2920    1.9860    7.1560 hc        1 54M      0.087700
     38 H201        3.0850    1.7980    8.7400 hn        1 54M      0.474133
     39 H202        2.2040    2.8000    7.7230 hn        1 54M      0.474133
     40 H13         2.9620   -2.1960    6.3470 ha        1 54M      0.138000
     41 H9          6.1900   -0.7600    3.8180 ha        1 54M      0.137000
     42 H10         7.3050   -2.9620    4.0160 ha        1 54M      0.152000
     43 H11         6.2770   -4.7830    5.3740 ha        1 54M      0.152000
     44 H26         5.8030   -5.4350    7.6000 h4        1 54M      0.032100
     45 H22         1.8710   -4.2260    6.1140 h4        1 54M      0.032100
     46 H24         2.3110   -7.4140    8.7930 h5        1 54M      0.068100
     47 H203        1.6370    1.2640    8.0850 hn        1 54M      0.474133
@<TRIPOS>BOND
     1    1    2 1   
     2    1   27 1   
     3    1   28 1   
     4    1   29 1   
     5    2    3 1   
     6    3    4 ar  
     7    3    6 ar  
     8    4    5 ar  
     9    4   30 1   
    10    5    8 ar  
    11    5   32 1   
    12    6    7 ar  
    13    6   31 1   
    14    7    8 ar  
    15    7   33 1   
    16    8    9 1   
    17    9   10 1   
    18    9   12 1   
    19    9   14 1   
    20   10   21 1   
    21   10   34 1   
    22   10   35 1   
    23   11   12 2   
    24   11   13 1   
    25   11   21 1   
    26   13   38 1   
    27   13   39 1   
    28   13   47 1   
    29   14   15 ar  
    30   14   16 ar  
    31   15   19 ar  
    32   15   40 1   
    33   16   17 ar  
    34   16   41 1   
    35   17   18 ar  
    36   17   42 1   
    37   18   19 ar  
    38   18   43 1   
    39   19   20 1   
    40   20   22 ar  
    41   20   26 ar  
    42   21   36 1   
    43   21   37 1   
    44   22   23 ar  
    45   22   44 1   
    46   23   24 ar  
    47   24   25 ar  
    48   24   46 1   
    49   25   26 ar  
    50   26   45 1   
@<TRIPOS>SUBSTRUCTURE
     1 54M         1 TEMP              0 ****  ****    0 ROOT
