@<TRIPOS>MOLECULE
54M
   46    42     1     0     0
SMALL
bcc


@<TRIPOS>ATOM
      1 C15        -3.0320   -0.3790   -5.3800 c3        1 54M     -0.076000
      2 O14        -3.3740    0.6670   -4.5410 os        1 54M     -0.210000
      3 C2         -2.7540    0.6140   -3.2930 c2        1 54M      0.079000
      4 C3         -3.3070   -0.1460   -2.2820 c2        1 54M     -0.206000
      5 C4         -2.7570   -0.1160   -1.0090 c1        1 54M     -0.097000
      6 C1         -1.6460    1.4100   -3.0360 c1        1 54M     -0.162000
      7 C6         -1.0910    1.4430   -1.7600 c1        1 54M     -0.072000
      8 C5         -1.6410    0.6860   -0.7500 c1        1 54M     -0.094000
      9 C7         -0.9970    0.6740    0.6320 c3        1 54M      0.099000
     10 C19        -2.1410    0.6720    1.8060 c3        1 54M     -0.184000
     11 C17        -0.5790    2.2810    2.1600 c1        1 54M      0.069000
     12 N16        -0.3710    1.7060    0.8250 n2        1 54M     -0.241000
     13 N20         0.0230    3.4840    2.5040 n2        1 54M     -0.322000
     14 C8         -0.0530   -0.5690    0.7830 c2        1 54M     -0.055000
     15 C13         1.3190   -0.3890    0.8710 c2        1 54M     -0.089000
     16 C9         -0.5970   -1.8470    0.8900 c1        1 54M     -0.122000
     17 C10         0.2360   -2.9430    1.0840 c1        1 54M     -0.124500
     18 C11         1.6040   -2.7650    1.1710 c1        1 54M     -0.124500
     19 C12         2.1500   -1.4820    1.0640 c1        1 54M     -0.043000
     20 C21         3.6540   -1.2860    1.1410 c2        1 54M     -0.127000
     21 C14        -1.7580    1.9190    2.7340 c3        1 54M     -0.169000
     22 C26         4.4030   -1.2480   -0.0080 c2        1 54M     -0.032000
     23 N21         5.7420   -1.0390    0.0620 n1        1 54M     -0.165000
     24 C24         6.3420   -0.8670    1.2710 c1        1 54M     -0.040000
     25 N23         5.5860   -0.9050    2.4310 n1        1 54M     -0.166000
     26 C22         4.2600   -1.1120    2.3620 c1        1 54M     -0.036000
     27 H151       -3.1840   -1.2160   -4.9280 h1        1 54M      0.083000
     28 H152       -2.0570   -0.3040   -5.6320 h1        1 54M      0.083000
     29 H153       -3.5860   -0.3400   -6.1960 h1        1 54M      0.083000
     30 H3         -4.0570   -0.6850   -2.4570 ha        1 54M      0.135000
     31 H1         -1.2660    1.9330   -3.7350 ha        1 54M      0.149000
     32 H4         -3.1560   -0.6630   -0.2850 ha        1 54M      0.127000
     33 H6         -0.3020    2.0100   -1.5790 ha        1 54M      0.154000
     34 H191       -3.0400    0.7990    1.4110 hc        1 54M      0.100000
     35 H192       -2.1070   -0.1350    2.3040 hc        1 54M      0.100000
     36 H141       -1.7230    1.7670    3.7420 hc        1 54M      0.106000
     37 H142       -2.4760    2.6700    2.6570 hc        1 54M      0.106000
     38 H201       -0.1640    3.8640    3.2790 hn        1 54M      0.200500
     39 H202        0.6600    3.8660    1.9380 hn        1 54M      0.200500
     40 H13         1.7090    0.5280    0.7930 ha        1 54M      0.156000
     41 H9         -1.5240   -1.9680    0.8280 ha        1 54M      0.130000
     42 H10        -0.1410   -3.8250    1.1580 ha        1 54M      0.133500
     43 H11         2.1940   -3.5420    1.3080 ha        1 54M      0.133500
     44 H26         3.9700   -1.3690   -0.8770 h4        1 54M      0.173000
     45 H22         3.7000   -1.1400    3.2200 ha        1 54M      0.167000
     46 H24         7.3280   -0.7130    1.3220 ha        1 54M      0.191000
@<TRIPOS>BOND
     1    1    2 1   
     2    1   27 1   
     3    1   28 1   
     4    1   29 1   
     5    2    3 1   
     6    3    4 1   
     7    3    6 1   
     8    4    5 1   
     9    4   30 1   
    10    5   32 1   
    11    6   31 1   
    12    7    8 1   
    13    7   33 1   
    14    8    9 1   
    15    9   10 1   
    16    9   12 1   
    17    9   14 1   
    18   10   21 1   
    19   10   34 1   
    20   10   35 1   
    21   11   12 1   
    22   11   21 1   
    23   13   38 1   
    24   13   39 1   
    25   14   15 1   
    26   14   16 1   
    27   15   19 1   
    28   15   40 1   
    29   16   41 1   
    30   17   18 1   
    31   17   42 1   
    32   18   43 1   
    33   19   20 1   
    34   20   22 1   
    35   20   26 1   
    36   21   36 1   
    37   21   37 1   
    38   22   23 1   
    39   22   44 1   
    40   24   25 1   
    41   24   46 1   
    42   26   45 1   
@<TRIPOS>SUBSTRUCTURE
     1 54M         1 TEMP              0 ****  ****    0 ROOT
