@<TRIPOS>MOLECULE
54T
   16    17     1     0     0
SMALL
bcc


@<TRIPOS>ATOM
      1 N1         -0.0850   -0.0850   -0.1120 nc        1 54T     -0.595100
      2 C4         -0.1850    0.0950    3.5670 ca        1 54T     -0.077000
      3 C5         -1.5540    0.0280    3.8050 ca        1 54T      0.011400
      4 C6          1.2480   -0.0150   -0.0040 cd        1 54T      0.571100
      5 CL         -2.1290    0.0850    5.4050 cl        1 54T     -0.091400
      6 C          -2.4770   -0.0870    2.7480 ca        1 54T     -0.118000
      7 C3          0.2680    0.0460    2.2500 ca        1 54T     -0.094100
      8 S           1.8510    0.0980    1.6580 ss        1 54T     -0.065100
      9 N           2.1590   -0.1260   -1.0440 nh        1 54T     -0.861800
     10 C2         -0.6610   -0.0660    1.1620 ca        1 54T      0.118400
     11 C1         -2.0420   -0.1340    1.4350 ca        1 54T     -0.082000
     12 H1          0.5290    0.1820    4.4000 ha        1 54T      0.153000
     13 H2         -3.5540   -0.1400    2.9710 ha        1 54T      0.150000
     14 H3          1.7660   -0.1340   -1.9620 hn        1 54T      0.411300
     15 H4          2.9490    0.4760   -0.9530 hn        1 54T      0.411300
     16 H5         -2.7610   -0.2250    0.6070 ha        1 54T      0.156000
@<TRIPOS>BOND
     1    1    4 2   
     2    1   10 1   
     3    2    3 ar  
     4    2    7 ar  
     5    2   12 1   
     6    3    5 1   
     7    3    6 ar  
     8    4    8 1   
     9    4    9 1   
    10    6   11 ar  
    11    6   13 1   
    12    7    8 1   
    13    7   10 ar  
    14    9   14 1   
    15    9   15 1   
    16   10   11 ar  
    17   11   16 1   
@<TRIPOS>SUBSTRUCTURE
     1 54T         1 TEMP              0 ****  ****    0 ROOT
