@<TRIPOS>MOLECULE
54T
   16    17     1     0     0
SMALL
bcc


@<TRIPOS>ATOM
      1 N1         -0.0840   -0.0630   -0.1130 nc        1 54T     -0.595100
      2 C4         -0.1870    0.0580    3.5680 ca        1 54T     -0.077000
      3 C5         -1.5590    0.0330    3.8030 ca        1 54T      0.011400
      4 C6          1.2510   -0.0400   -0.0010 cd        1 54T      0.571100
      5 Cl         -2.1360    0.0810    5.4020 cl        1 54T     -0.091400
      6 C          -2.4820   -0.0340    2.7420 ca        1 54T     -0.118000
      7 C3          0.2670    0.0160    2.2520 ca        1 54T     -0.094100
      8 S           1.8530    0.0250    1.6640 ss        1 54T     -0.065100
      9 N           2.1610   -0.1630   -1.0410 nv        1 54T     -0.861800
     10 C2         -0.6620   -0.0460    1.1600 ca        1 54T      0.118400
     11 C1         -2.0450   -0.0730    1.4290 ca        1 54T     -0.082000
     12 H1          0.5270    0.1070    4.4040 ha        1 54T      0.153000
     13 H2         -3.5610   -0.0540    2.9610 ha        1 54T      0.150000
     14 H3          1.7690   -0.1430   -1.9600 hn        1 54T      0.411300
     15 H4          2.9700    0.4100   -0.9380 hn        1 54T      0.411300
     16 H5         -2.7650   -0.1260    0.5980 ha        1 54T      0.156000
@<TRIPOS>BOND
     1    1    4 2   
     2    1   10 1   
     3    2    3 ar  
     4    2    7 ar  
     5    2   12 1   
     6    3    5 1   
     7    3    6 ar  
     8    4    8 1   
     9    4    9 1   
    10    6   11 ar  
    11    6   13 1   
    12    7    8 1   
    13    7   10 ar  
    14    9   14 1   
    15    9   15 1   
    16   10   11 ar  
    17   11   16 1   
@<TRIPOS>SUBSTRUCTURE
     1 54T         1 TEMP              0 ****  ****    0 ROOT
