@<TRIPOS>MOLECULE
54U
   32    47     1     0     0
SMALL
bcc


@<TRIPOS>ATOM
      1 C10         0.0000    0.0000    0.0000 c2        1 54U     -0.219000
      2 C13         1.3900    0.0120    2.3980 c3        1 54U     -0.356000
      3 C01         4.1370    2.6690   -4.8860 c3        1 54U     -0.399000
      4 N03         3.7850    0.8430   -3.2560 n3        1 54U      0.612000
      5 C04         4.2650   -0.1840   -2.3200 DU        1 54U     -0.252000
      6 C05         3.5400   -0.0010   -0.9820 DU        1 54U     -0.093000
      7 N06         2.0890   -0.0010   -1.2120 nx        1 54U     -0.001000
      8 C07         1.6840    1.1330   -2.0540 DU        1 54U     -0.340000
      9 C08         2.3330    1.0000   -3.4310 c3        1 54U     -0.672000
     10 C09         1.3880    0.0000    0.0000 DU        1 54U     -0.201000
     11 C11        -0.6900    0.0070    1.1960 c2        1 54U     -0.233000
     12 C12         0.0040    0.0130    2.3970 DU        1 54U      0.205000
     13 C14         2.0830    0.0000    1.2020 c3        1 54U      0.148000
     14 O15        -0.6760    0.0190    3.5750 oh        1 54U     -0.328000
     15 O16         5.8460    1.4830   -3.7710 o         1 54U     -0.295000
     16 H1          0.8070    0.2770   -0.6670 DU        1 54U      0.401000
     17 H2          0.8470    0.0070    1.4600 DU        1 54U      0.164000
     18 H3          3.8700    2.3460   -3.8870 DU        1 54U      0.262000
     19 H4          3.5830    3.4010   -4.3120 hc        1 54U      0.130500
     20 H5          4.9210    3.1660   -5.4440 hc        1 54U      0.130500
     21 H6          4.0530    0.4370   -3.1820 ha        1 54U     -0.015000
     22 H7          3.7950   -0.5900   -1.8550 DU        1 54U     -0.110000
     23 H8          2.5100    0.9700   -1.3730 DU        1 54U      0.355000
     24 H9          0.6060    1.1330   -2.1640 hx        1 54U      0.170000
     25 H10         2.1690    1.5360   -2.5040 DU        1 54U      0.220000
     26 H11         2.1330    1.8910   -4.0140 h1        1 54U      0.149000
     27 H12        -0.3030    0.0850    0.1870 ha        1 54U      0.162000
     28 H13         0.9990    0.0020    1.2000 DU        1 54U     -0.122000
     29 H14         0.1260    0.0150    3.0800 DU        1 54U      0.322000
     30 H15         3.5780   -0.2770   -1.4880 DU        1 54U     -0.110000
     31 H16         4.4430   -0.0360   -1.5790 DU        1 54U      0.174000
     32 C02         4.6520    1.6220   -3.9320 c3        1 54U      0.140000
@<TRIPOS>BOND
     1    1   10 1   
     2    1   11 1   
     3    1   16 1   
     4    2   12 1   
     5    2   13 1   
     6    2   17 1   
     7    2   28 1   
     8    3   18 1   
     9    3   19 1   
    10    3   20 1   
    11    3   32 1   
    12    4    5 1   
    13    4    9 1   
    14    4   32 1   
    15    5    6 1   
    16    5   21 1   
    17    5   22 1   
    18    5   30 1   
    19    5   31 1   
    20    6    7 1   
    21    6   22 1   
    22    6   30 1   
    23    6   31 1   
    24    7    8 1   
    25    7   10 1   
    26    7   23 1   
    27    8    9 1   
    28    8   23 1   
    29    8   24 1   
    30    8   25 1   
    31    9   25 1   
    32    9   26 1   
    33   10   13 1   
    34   10   16 1   
    35   10   28 1   
    36   11   12 1   
    37   11   27 1   
    38   12   14 1   
    39   12   17 1   
    40   12   29 1   
    41   13   17 1   
    42   13   28 1   
    43   14   29 1   
    44   15   32 1   
    45   17   28 1   
    46   18   32 1   
    47   22   30 1   
@<TRIPOS>SUBSTRUCTURE
     1 54U         1 TEMP              0 ****  ****    0 ROOT
