@<TRIPOS>MOLECULE
54U
   32    33     1     0     0
SMALL
bcc


@<TRIPOS>ATOM
      1 C10        -0.0350   -0.0010    0.0480 ca        1 54U     -0.126000
      2 C13         1.2900    0.2560    2.4960 ca        1 54U     -0.164500
      3 C01         4.2500    2.7220   -4.8720 c3        1 54U     -0.170100
      4 N03         3.7840    0.7140   -3.4440 n         1 54U     -0.465800
      5 C04         4.1840   -0.2610   -2.4520 c3        1 54U      0.082500
      6 C05         3.5230   -0.0440   -1.0710 c3        1 54U      0.158300
      7 N06         2.0810    0.1140   -1.1710 nh        1 54U     -0.629000
      8 C07         1.6920    1.1330   -2.1360 c3        1 54U      0.158300
      9 C08         2.3580    0.9180   -3.5160 c3        1 54U      0.082500
     10 C09         1.3720    0.1660    0.0610 ca        1 54U      0.091600
     11 C11        -0.7630   -0.0320    1.2270 ca        1 54U     -0.164500
     12 C12        -0.0980    0.0960    2.4570 ca        1 54U      0.103100
     13 C14         2.0160    0.2970    1.3090 ca        1 54U     -0.126000
     14 O15        -0.8810    0.0550    3.5890 oh        1 54U     -0.498100
     15 O16         5.9120    1.5390   -3.6190 o         1 54U     -0.606100
     16 H1         -0.5690   -0.1210   -0.9080 ha        1 54U      0.137500
     17 H2          1.8110    0.3530    3.4590 ha        1 54U      0.142500
     18 H3          3.6900    2.2880   -5.7350 hc        1 54U      0.066033
     19 H4          3.6000    3.4570   -4.3390 hc        1 54U      0.066033
     20 H5          5.1530    3.2560   -5.2590 hc        1 54U      0.066033
     21 H6          3.8970   -1.2800   -2.8400 h1        1 54U      0.065950
     22 H7          3.7320   -0.9550   -0.4430 h1        1 54U      0.044950
     23 H8          0.5780    1.0810   -2.2830 h1        1 54U      0.044950
     24 H9          1.9450    2.1700   -1.7670 h1        1 54U      0.044950
     25 H10         2.1070    1.8060   -4.1570 h1        1 54U      0.065950
     26 H11         1.9070    0.0010   -3.9950 h1        1 54U      0.065950
     27 H12        -1.8550   -0.1610    1.2130 ha        1 54U      0.142500
     28 H13         3.1070    0.4290    1.3710 ha        1 54U      0.137500
     29 H14        -0.2970    0.1470    4.3560 ho        1 54U      0.418000
     30 H15         5.3020   -0.2300   -2.3120 h1        1 54U      0.065950
     31 H16         4.0110    0.8460   -0.5770 h1        1 54U      0.044950
     32 C02         4.7060    1.6420   -3.9230 c         1 54U      0.654100
@<TRIPOS>BOND
     1    1   10 ar  
     2    1   11 ar  
     3    1   16 1   
     4    2   12 ar  
     5    2   13 ar  
     6    2   17 1   
     7    3   18 1   
     8    3   19 1   
     9    3   20 1   
    10    3   32 1   
    11    4    5 1   
    12    4    9 1   
    13    4   32 1   
    14    5    6 1   
    15    5   21 1   
    16    5   30 1   
    17    6    7 1   
    18    6   22 1   
    19    6   31 1   
    20    7    8 1   
    21    7   10 1   
    22    8    9 1   
    23    8   23 1   
    24    8   24 1   
    25    9   25 1   
    26    9   26 1   
    27   10   13 ar  
    28   11   12 ar  
    29   11   27 1   
    30   12   14 1   
    31   13   28 1   
    32   14   29 1   
    33   15   32 2   
@<TRIPOS>SUBSTRUCTURE
     1 54U         1 TEMP              0 ****  ****    0 ROOT
