@<TRIPOS>MOLECULE
54V
   38    39     1     0     0
SMALL
bcc


@<TRIPOS>ATOM
      1 N1         -0.0360    0.1500    0.0540 n3        1 54V     -0.729600
      2 C4          0.2520    0.8790    2.4250 c3        1 54V      0.168300
      3 C5         -0.7390    0.3350   -1.2090 c3        1 54V      0.208100
      4 C6         -2.1990   -0.0130   -1.1530 ca        1 54V     -0.050300
      5 C7         -3.1360    0.8540   -1.7280 ca        1 54V     -0.138000
      6 C8         -4.4890    0.5230   -1.7350 ca        1 54V     -0.074000
      7 C10        -3.9800   -1.5500   -0.5830 ca        1 54V     -0.074000
      8 C13        -8.5620   -0.4830   -1.7470 c3        1 54V      0.127700
      9 O          -6.8400   -2.0880   -0.6780 o         1 54V     -0.544000
     10 O1         -7.1720   -0.1530   -1.7360 os        1 54V     -0.440900
     11 C9         -4.9150   -0.6810   -1.1620 ca        1 54V     -0.136600
     12 C11        -2.6280   -1.2160   -0.5820 ca        1 54V     -0.138000
     13 C2          1.4090    0.2360   -0.1190 c3        1 54V      0.165800
     14 C1          2.1780    0.0760    1.2060 c3        1 54V      0.168300
     15 C3         -0.5170    1.0410    1.1000 c3        1 54V      0.165800
     16 N           1.6960    0.9630    2.2550 n3        1 54V     -0.733600
     17 C           2.4100    0.7860    3.4980 c3        1 54V      0.157100
     18 H2         -0.0620    1.7170    3.1090 h1        1 54V      0.037700
     19 H3         -0.0560   -0.0950    2.9060 h1        1 54V      0.037700
     20 H4         -0.6280    1.3950   -1.5920 h1        1 54V      0.043700
     21 H5         -0.2590   -0.3490   -1.9690 h1        1 54V      0.043700
     22 H6         -2.8070    1.8030   -2.1780 ha        1 54V      0.146500
     23 H7         -5.2280    1.2030   -2.1880 ha        1 54V      0.155500
     24 H8         -4.3260   -2.4950   -0.1340 ha        1 54V      0.155500
     25 H9         -8.9360   -0.5900   -0.7010 h1        1 54V      0.050700
     26 H10        -9.0350    0.3860   -2.2660 h1        1 54V      0.050700
     27 H11        -8.7230   -1.4340   -2.3100 h1        1 54V      0.050700
     28 H12        -1.8940   -1.8990   -0.1270 ha        1 54V      0.146500
     29 H13         1.7140    1.2120   -0.5990 h1        1 54V      0.039450
     30 H14         1.7260   -0.6000   -0.8030 h1        1 54V      0.039450
     31 H15         2.1310   -1.0080    1.5210 h1        1 54V      0.037700
     32 H16         3.2560    0.3320    1.0090 h1        1 54V      0.037700
     33 H17        -1.5970    0.7880    1.2910 h1        1 54V      0.039450
     34 H18        -0.4630    2.1230    0.7820 h1        1 54V      0.039450
     35 H20         2.2720   -0.2340    3.9530 h1        1 54V      0.032700
     36 H21         3.5030    0.9490    3.3130 h1        1 54V      0.032700
     37 H22         2.0500    1.5540    4.2320 h1        1 54V      0.032700
     38 C12        -6.3330   -1.0650   -1.1480 c         1 54V      0.645700
@<TRIPOS>BOND
     1    1    3 1   
     2    1   13 1   
     3    1   15 1   
     4    2   15 1   
     5    2   16 1   
     6    2   18 1   
     7    2   19 1   
     8    3    4 1   
     9    3   20 1   
    10    3   21 1   
    11    4    5 ar  
    12    4   12 ar  
    13    5    6 ar  
    14    5   22 1   
    15    6   11 ar  
    16    6   23 1   
    17    7   11 ar  
    18    7   12 ar  
    19    7   24 1   
    20    8   10 1   
    21    8   25 1   
    22    8   26 1   
    23    8   27 1   
    24    9   38 2   
    25   10   38 1   
    26   11   38 1   
    27   12   28 1   
    28   13   14 1   
    29   13   29 1   
    30   13   30 1   
    31   14   16 1   
    32   14   31 1   
    33   14   32 1   
    34   15   33 1   
    35   15   34 1   
    36   16   17 1   
    37   17   35 1   
    38   17   36 1   
    39   17   37 1   
@<TRIPOS>SUBSTRUCTURE
     1 54V         1 TEMP              0 ****  ****    0 ROOT
