@<TRIPOS>MOLECULE
54V
   38    36     1     0     0
SMALL
bcc


@<TRIPOS>ATOM
      1 N1          0.6340   -0.4420   -0.2600 n7        1 54V     -0.307000
      2 C4         -2.4100    2.6790    3.2610 c2        1 54V     -0.220000
      3 C5         -0.1850   -0.2750   -1.4440 c3        1 54V     -0.050000
      4 C6         -1.6270   -0.6580   -1.2240 c2        1 54V      0.002000
      5 C7         -2.5920    0.2800   -1.2830 c2        1 54V     -0.149000
      6 C8         -4.0150    0.0740   -1.1300 c2        1 54V     -0.042000
      7 C10        -1.0990   -3.0910   -1.2170 c1        1 54V      0.215000
      8 C13        -8.1930   -0.2320   -0.6540 c3        1 54V     -0.062000
      9 O          -6.8290   -2.1080   -1.8090 o         1 54V     -0.349000
     10 O1         -6.7810   -0.1040   -0.8270 os        1 54V     -0.283000
     11 C9         -4.6980   -0.9750   -1.6150 c2        1 54V     -0.201000
     12 C11        -1.8730   -2.0590   -0.9500 c2        1 54V     -0.462000
     13 C2          2.0520   -0.3390   -0.5330 c3        1 54V     -0.086000
     14 C1          2.9140   -0.4540    0.7410 c3        1 54V     -0.101000
     15 C3         -1.2420    2.9740    2.7060 c2        1 54V     -0.220000
     16 N           2.7780    0.6200    1.6870 n2        1 54V     -0.187000
     17 C           1.7440    0.7580    2.4210 c2        1 54V     -0.103000
     18 H2         -0.4930    2.2090    2.4530 ha        1 54V      0.110000
     19 H3         -2.7080    1.6510    3.5060 ha        1 54V      0.110000
     20 H4         -0.1170    0.8100   -1.7430 h1        1 54V      0.085000
     21 H5          0.1950   -0.8880   -2.3190 h1        1 54V      0.085000
     22 H6         -2.3050    1.3370   -1.4410 ha        1 54V      0.147000
     23 H7         -4.5470    0.8800   -0.5870 ha        1 54V      0.153000
     24 H8         -4.2220   -1.7840   -2.1950 ha        1 54V      0.160000
     25 H9         -8.6910   -0.3280   -1.6490 h1        1 54V      0.090667
     26 H10        -8.4190   -1.1270   -0.0250 h1        1 54V      0.090667
     27 H11        -8.4820    0.7160   -0.1390 h1        1 54V      0.090667
     28 H12        -2.8460   -2.2850   -0.4490 ha        1 54V      0.208000
     29 H13         0.4230   -1.3090    0.2010 hn        1 54V      0.157000
     30 H14         2.2400    0.6590   -1.0200 h1        1 54V      0.080500
     31 H15         2.4120   -1.1360   -1.2490 h1        1 54V      0.080500
     32 H16         3.9910   -0.4340    0.4070 h1        1 54V      0.091000
     33 H17         2.7250   -1.4560    1.2230 h1        1 54V      0.091000
     34 H18        -0.9440    4.0030    2.4610 ha        1 54V      0.110000
     35 H20        -3.1570    3.4440    3.5140 ha        1 54V      0.110000
     36 H21         1.7360    1.6080    3.1300 h4        1 54V      0.112000
     37 H22         0.8390    0.1230    2.4330 h4        1 54V      0.112000
     38 C12        -6.1430   -1.1450   -1.4520 c2        1 54V      0.331000
@<TRIPOS>BOND
     1    1    3 1   
     2    1   13 1   
     3    1   29 1   
     4    2   15 1   
     5    2   19 1   
     6    2   35 1   
     7    3    4 1   
     8    3   20 1   
     9    3   21 1   
    10    4    5 1   
    11    4   12 1   
    12    5    6 1   
    13    5   22 1   
    14    6   11 1   
    15    6   23 1   
    16    7   12 1   
    17    8   10 1   
    18    8   25 1   
    19    8   26 1   
    20    8   27 1   
    21    9   38 1   
    22   10   38 1   
    23   11   24 1   
    24   11   38 1   
    25   12   28 1   
    26   13   14 1   
    27   13   30 1   
    28   13   31 1   
    29   14   16 1   
    30   14   32 1   
    31   14   33 1   
    32   15   18 1   
    33   15   34 1   
    34   16   17 1   
    35   17   36 1   
    36   17   37 1   
@<TRIPOS>SUBSTRUCTURE
     1 54V         1 TEMP              0 ****  ****    0 ROOT
