@<TRIPOS>MOLECULE
54W
   26    26     1     0     0
SMALL
bcc


@<TRIPOS>ATOM
      1 C4          0.0020   -0.0360   -0.0030 ca        1 54W     -0.134300
      2 C5          1.4010   -0.0050   -0.0000 ca        1 54W     -0.116000
      3 C6          2.0960    0.0600    1.2060 ca        1 54W     -0.116500
      4 C7          1.3980    0.0950    2.4150 ca        1 54W     -0.097000
      5 C8          0.0030    0.0600    2.4150 ca        1 54W     -0.116500
      6 O          -1.6970    3.6250   -2.9240 o         1 54W     -0.392100
      7 C1         -2.0890    2.6910   -3.6000 c         1 54W      0.553100
      8 C          -2.8410    2.7270   -4.8870 c3        1 54W     -0.186100
      9 N          -1.7830    1.2940   -3.0810 ny        1 54W     -0.689800
     10 C2         -1.0350    1.2870   -1.7860 c3        1 54W      0.103800
     11 C3         -0.7410   -0.1280   -1.2890 c3        1 54W     -0.045100
     12 C9         -0.6950   -0.0050    1.2100 ca        1 54W     -0.116000
     13 H1          1.9570   -0.0440   -0.9490 ha        1 54W      0.132000
     14 H2          3.1970    0.0800    1.2050 ha        1 54W      0.152500
     15 H3          1.9480    0.1440    3.3680 ha        1 54W      0.154000
     16 H4         -0.5490    0.0810    3.3680 ha        1 54W      0.152500
     17 H5         -3.0070    3.8020   -5.1700 hc        1 54W      0.116033
     18 H6         -3.8390    2.2290   -4.7830 hc        1 54W      0.116033
     19 H7         -2.2610    2.2290   -5.7050 hc        1 54W      0.116033
     20 H8         -1.2330    0.7960   -3.7890 hn        1 54W      0.458300
     21 H9         -0.0710    1.8550   -1.9400 hx        1 54W      0.111200
     22 H10        -1.6530    1.8470   -1.0260 hx        1 54W      0.111200
     23 H11        -0.1270   -0.6870   -2.0450 hc        1 54W      0.070700
     24 H12        -1.6990   -0.6940   -1.1360 hc        1 54W      0.070700
     25 H13        -1.7950   -0.0440    1.2180 ha        1 54W      0.132000
     26 HN3        -2.6680    0.7900   -2.9600 hn        1 54W      0.458300
@<TRIPOS>BOND
     1    1    2 ar  
     2    1   11 1   
     3    1   12 ar  
     4    2    3 ar  
     5    2   13 1   
     6    3    4 ar  
     7    3   14 1   
     8    4    5 ar  
     9    4   15 1   
    10    5   12 ar  
    11    5   16 1   
    12    6    7 2   
    13    7    8 1   
    14    7    9 1   
    15    8   17 1   
    16    8   18 1   
    17    8   19 1   
    18    9   10 1   
    19    9   20 1   
    20    9   26 1   
    21   10   11 1   
    22   10   21 1   
    23   10   22 1   
    24   11   23 1   
    25   11   24 1   
    26   12   25 1   
@<TRIPOS>SUBSTRUCTURE
     1 54W         1 TEMP              0 ****  ****    0 ROOT
