@<TRIPOS>MOLECULE
54W
   26    26     1     0     0
SMALL
bcc


@<TRIPOS>ATOM
      1 C4         -0.0010   -0.0350   -0.0010 ca        1 54W     -0.131300
      2 C5          1.3990   -0.0040   -0.0000 ca        1 54W     -0.115000
      3 C6          2.0950    0.0640    1.2060 ca        1 54W     -0.117000
      4 C7          1.3980    0.1010    2.4140 ca        1 54W     -0.097000
      5 C8          0.0030    0.0660    2.4170 ca        1 54W     -0.117000
      6 O          -1.7000    3.6210   -2.9290 o         1 54W     -0.384100
      7 C1         -2.0890    2.6860   -3.6050 c         1 54W      0.547100
      8 C          -2.8330    2.7200   -4.8960 c3        1 54W     -0.192100
      9 N          -1.7850    1.2900   -3.0820 n4        1 54W     -0.685800
     10 C2         -1.0360    1.2860   -1.7880 c3        1 54W      0.100800
     11 C3         -0.7450   -0.1290   -1.2860 c3        1 54W     -0.045100
     12 C9         -0.6960   -0.0010    1.2130 ca        1 54W     -0.115000
     13 H1          1.9540   -0.0440   -0.9500 ha        1 54W      0.131000
     14 H2          3.1960    0.0840    1.2030 ha        1 54W      0.151000
     15 H3          1.9500    0.1510    3.3660 ha        1 54W      0.154000
     16 H4         -0.5470    0.0880    3.3700 ha        1 54W      0.151000
     17 H5         -3.8310    2.2210   -4.7970 hc        1 54W      0.116367
     18 H6         -2.2490    2.2210   -5.7100 hc        1 54W      0.116367
     19 H7         -2.9980    3.7950   -5.1810 hc        1 54W      0.116367
     20 H8         -1.2370    0.7890   -3.7890 hn        1 54W      0.455800
     21 H9         -1.6520    1.8490   -1.0290 hx        1 54W      0.118700
     22 H10        -0.0710    1.8500   -1.9440 hx        1 54W      0.118700
     23 H11        -0.1330   -0.6920   -2.0420 hc        1 54W      0.066700
     24 H12        -1.7040   -0.6920   -1.1310 hc        1 54W      0.066700
     25 H13        -1.7960   -0.0400    1.2210 ha        1 54W      0.131000
     26 HN3        -2.6710    0.7880   -2.9590 hn        1 54W      0.455800
@<TRIPOS>BOND
     1    1    2 ar  
     2    1   11 1   
     3    1   12 ar  
     4    2    3 ar  
     5    2   13 1   
     6    3    4 ar  
     7    3   14 1   
     8    4    5 ar  
     9    4   15 1   
    10    5   12 ar  
    11    5   16 1   
    12    6    7 2   
    13    7    8 1   
    14    7    9 1   
    15    8   17 1   
    16    8   18 1   
    17    8   19 1   
    18    9   10 1   
    19    9   20 1   
    20    9   26 1   
    21   10   11 1   
    22   10   21 1   
    23   10   22 1   
    24   11   23 1   
    25   11   24 1   
    26   12   25 1   
@<TRIPOS>SUBSTRUCTURE
     1 54W         1 TEMP              0 ****  ****    0 ROOT
