@<TRIPOS>MOLECULE
54Y
   20    20     1     0     0
SMALL
bcc


@<TRIPOS>ATOM
      1 N1          0.0580   -0.0020   -0.0270 nc        1 54Y     -0.436800
      2 C4          2.2260   -0.0000   -1.2160 c3        1 54Y      0.013600
      3 C5          1.9090    0.0020    1.2830 cc        1 54Y      0.098100
      4 O           1.7480    0.0040    4.3550 o         1 54Y     -0.430100
      5 C1          0.8040    0.0020    3.5770 c         1 54Y      0.612700
      6 N          -0.5840    0.0010    4.2280 ny        1 54Y     -0.672800
      7 C          -0.5340   -0.0000    5.7050 c3        1 54Y      0.084100
      8 C2          0.7710    0.0010    2.1550 cd        1 54Y     -0.415900
      9 Cl          3.5210    0.0040    1.6780 cl        1 54Y      0.081600
     10 N2          1.4080   -0.0000   -0.0150 na        1 54Y      0.135400
     11 C3         -0.3660   -0.0010    1.2520 cd        1 54Y      0.343200
     12 H1          1.5710   -0.0030   -2.1290 h1        1 54Y      0.093033
     13 H2          2.8690    0.9210   -1.2150 h1        1 54Y      0.093033
     14 H3          2.8720   -0.9190   -1.2130 h1        1 54Y      0.093033
     15 H4         -1.0870   -0.8290    3.8970 hn        1 54Y      0.456800
     16 H5         -1.5810   -0.0010    6.1100 hx        1 54Y      0.113033
     17 H6          0.0170   -0.9140    6.0590 hx        1 54Y      0.113033
     18 H7          0.0170    0.9120    6.0610 hx        1 54Y      0.113033
     19 H8         -1.4330   -0.0030    1.4900 h4        1 54Y      0.055100
     20 HN3        -1.0870    0.8320    3.8980 hn        1 54Y      0.456800
@<TRIPOS>BOND
     1    1   10 1   
     2    1   11 2   
     3    2   10 1   
     4    2   12 1   
     5    2   13 1   
     6    2   14 1   
     7    3    8 2   
     8    3    9 1   
     9    3   10 1   
    10    4    5 2   
    11    5    6 1   
    12    5    8 1   
    13    6    7 1   
    14    6   15 1   
    15    6   20 1   
    16    7   16 1   
    17    7   17 1   
    18    7   18 1   
    19    8   11 1   
    20   11   19 1   
@<TRIPOS>SUBSTRUCTURE
     1 54Y         1 TEMP              0 ****  ****    0 ROOT
