@<TRIPOS>MOLECULE
550
   56    59     1     0     0
SMALL
bcc


@<TRIPOS>ATOM
      1 O1          1.0830   -2.3800    0.0440 o         1 550     -0.333100
      2 O2         -0.2680   -0.2620    0.9100 oh        1 550     -0.349300
      3 O3          2.8520    0.8950   -4.3560 os        1 550     -0.402900
      4 O4          2.3080    2.1740   -2.5890 o         1 550     -0.543000
      5 O5         -2.8540    0.1660   -7.4760 os        1 550     -0.317900
      6 C1          2.1130   -0.8780   -1.6170 cx        1 550     -0.270700
      7 C2          1.4040   -0.0650   -2.6950 cx        1 550     -0.126000
      8 C3          1.8230   -1.4790   -2.9720 cx        1 550     -0.021400
      9 C4          2.2000    1.0990   -3.1870 c         1 550      0.653100
     10 C5         -0.0670    0.2550   -2.5610 c3        1 550     -0.001100
     11 C6          1.3860   -1.3040   -0.4140 c         1 550      0.621100
     12 N1          0.9870   -0.0500    0.4600 n4        1 550     -0.486300
     13 C7          3.5880    2.0080   -4.8880 c3        1 550      0.121700
     14 C8         -0.7760    0.2620   -3.8680 ca        1 550     -0.162300
     15 C9         -1.3050   -0.9280   -4.3890 ca        1 550     -0.077000
     16 C10        -1.9920   -0.9300   -5.5930 ca        1 550     -0.176000
     17 C11        -2.1620    0.2830   -6.2950 ca        1 550      0.163100
     18 C12        -1.6430    1.4790   -5.7790 ca        1 550     -0.176000
     19 C13        -0.9550    1.4580   -4.5680 ca        1 550     -0.077000
     20 C14        -3.0640    1.3890   -8.2060 c3        1 550      0.169700
     21 C15        -3.8340    1.0660   -9.4430 ca        1 550     -0.057300
     22 C16        -4.2370   -0.2090   -9.7520 ca        1 550     -0.218300
     23 C17        -4.9760   -0.4430  -10.9640 ca        1 550      0.430600
     24 N2         -5.2940    0.5250  -11.8140 nb        1 550     -0.650000
     25 C18        -4.1590    2.1380  -10.3360 ca        1 550     -0.143300
     26 C19        -4.8960    1.8140  -11.5170 ca        1 550      0.403600
     27 C20        -5.2320    2.8710  -12.4250 ca        1 550     -0.156300
     28 C21        -4.8520    4.1620  -12.1590 ca        1 550     -0.123000
     29 C22        -4.1230    4.4740  -10.9890 ca        1 550     -0.116000
     30 C23        -3.7850    3.4850  -10.0980 ca        1 550     -0.128000
     31 C24        -5.3840   -1.8570  -11.2360 c3        1 550     -0.154400
     32 HO2        -0.5070    0.4420    1.5560 ho        1 550      0.470000
     33 H1          3.1760   -0.6380   -1.3770 hc        1 550      0.151700
     34 H3          1.0350   -2.2500   -3.0730 hc        1 550      0.125200
     35 H3A         2.6880   -1.6690   -3.6400 hc        1 550      0.125200
     36 H5         -0.5480   -0.5070   -1.8860 hc        1 550      0.053700
     37 H5A        -0.1700    1.2650   -2.0730 hc        1 550      0.053700
     38 HN1         1.0230    0.7980   -0.1390 hn        1 550      0.465300
     39 H7          4.0020    1.6020   -5.8440 h1        1 550      0.069033
     40 H7A         2.8980    2.8660   -5.0660 h1        1 550      0.069033
     41 H7B         4.3960    2.2990   -4.1750 h1        1 550      0.069033
     42 H9         -1.1830   -1.8730   -3.8380 ha        1 550      0.131500
     43 H10        -2.4120   -1.8570   -6.0110 ha        1 550      0.157500
     44 H12        -1.7730    2.4320   -6.3120 ha        1 550      0.157500
     45 H13        -0.5520    2.4000   -4.1630 ha        1 550      0.131500
     46 H14        -3.6430    2.1040   -7.5610 h1        1 550      0.059200
     47 H14A       -2.0650    1.8300   -8.4730 h1        1 550      0.059200
     48 H16        -4.0100   -1.0610   -9.0950 ha        1 550      0.155000
     49 H20        -5.8000    2.6270  -13.3380 ha        1 550      0.158000
     50 H21        -5.1120    4.9720  -12.8580 ha        1 550      0.143000
     51 H22        -3.8330    5.5190  -10.8020 ha        1 550      0.137000
     52 H23        -3.2190    3.7330   -9.1880 ha        1 550      0.121000
     53 H24        -5.9490   -1.9600  -12.1950 hc        1 550      0.058367
     54 H24A       -4.4700   -2.4980  -11.2900 hc        1 550      0.058367
     55 H24B       -6.0310   -2.2200  -10.4000 hc        1 550      0.058367
     56 H121        1.6560    0.0420    1.2410 hn        1 550      0.465300
@<TRIPOS>BOND
     1    1   11 2   
     2    2   12 1   
     3    2   32 1   
     4    3    9 1   
     5    3   13 1   
     6    4    9 2   
     7    5   17 1   
     8    5   20 1   
     9    6    7 1   
    10    6    8 1   
    11    6   11 1   
    12    6   33 1   
    13    7    8 1   
    14    7    9 1   
    15    7   10 1   
    16    8   34 1   
    17    8   35 1   
    18   10   14 1   
    19   10   36 1   
    20   10   37 1   
    21   11   12 1   
    22   12   38 1   
    23   12   56 1   
    24   13   39 1   
    25   13   40 1   
    26   13   41 1   
    27   14   15 ar  
    28   14   19 ar  
    29   15   16 ar  
    30   15   42 1   
    31   16   17 ar  
    32   16   43 1   
    33   17   18 ar  
    34   18   19 ar  
    35   18   44 1   
    36   19   45 1   
    37   20   21 1   
    38   20   46 1   
    39   20   47 1   
    40   21   22 ar  
    41   21   25 ar  
    42   22   23 ar  
    43   22   48 1   
    44   23   24 ar  
    45   23   31 1   
    46   24   26 ar  
    47   25   26 ar  
    48   25   30 ar  
    49   26   27 ar  
    50   27   28 ar  
    51   27   49 1   
    52   28   29 ar  
    53   28   50 1   
    54   29   30 ar  
    55   29   51 1   
    56   30   52 1   
    57   31   53 1   
    58   31   54 1   
    59   31   55 1   
@<TRIPOS>SUBSTRUCTURE
     1 550         1 TEMP              0 ****  ****    0 ROOT
