@<TRIPOS>MOLECULE
550
   56    59     1     0     0
SMALL
bcc


@<TRIPOS>ATOM
      1 O1          1.0920   -2.3750    0.0320 o         1 550     -0.333100
      2 O2         -0.2900   -0.2790    0.9030 oh        1 550     -0.349300
      3 O3          2.8370    0.9460   -4.3420 os        1 550     -0.402900
      4 O4          2.2700    2.2090   -2.5700 o         1 550     -0.543000
      5 O5         -2.8450    0.1640   -7.4910 os        1 550     -0.317900
      6 C1          2.1100   -0.8510   -1.6160 cx        1 550     -0.270700
      7 C2          1.3950   -0.0410   -2.6930 cx        1 550     -0.126000
      8 C3          1.8330   -1.4480   -2.9760 cx        1 550     -0.021400
      9 C4          2.1780    1.1360   -3.1750 c         1 550      0.653100
     10 C5         -0.0810    0.2590   -2.5630 c3        1 550     -0.001100
     11 C6          1.3830   -1.2930   -0.4180 c         1 550      0.621100
     12 N1          0.9640   -0.0490    0.4600 ny        1 550     -0.486300
     13 C7          3.5620    2.0720   -4.8650 c3        1 550      0.121700
     14 C8         -0.7840    0.2650   -3.8730 ca        1 550     -0.162300
     15 C9         -1.2960   -0.9290   -4.4040 ca        1 550     -0.077000
     16 C10        -1.9780   -0.9320   -5.6110 ca        1 550     -0.176000
     17 C11        -2.1590    0.2820   -6.3070 ca        1 550      0.163100
     18 C12        -1.6580    1.4820   -5.7820 ca        1 550     -0.176000
     19 C13        -0.9750    1.4620   -4.5680 ca        1 550     -0.077000
     20 C14        -3.0660    1.3870   -8.2160 c3        1 550      0.169700
     21 C15        -3.8260    1.0620   -9.4580 ca        1 550     -0.057300
     22 C16        -4.2120   -0.2160   -9.7760 ca        1 550     -0.218300
     23 C17        -4.9430   -0.4530  -10.9930 ca        1 550      0.430600
     24 N2         -5.2680    0.5160  -11.8390 nb        1 550     -0.650000
     25 C18        -4.1600    2.1350  -10.3460 ca        1 550     -0.143300
     26 C19        -4.8870    1.8090  -11.5330 ca        1 550      0.403600
     27 C20        -5.2320    2.8660  -12.4370 ca        1 550     -0.156300
     28 C21        -4.8700    4.1610  -12.1620 ca        1 550     -0.123000
     29 C22        -4.1510    4.4750  -10.9860 ca        1 550     -0.116000
     30 C23        -3.8050    3.4850  -10.0990 ca        1 550     -0.128000
     31 C24        -5.3310   -1.8700  -11.2750 c3        1 550     -0.154400
     32 HO2        -0.5410    0.4180    1.5520 ho        1 550      0.470000
     33 H1          3.1680   -0.5990   -1.3700 hc        1 550      0.151700
     34 H3          1.0550   -2.2290   -3.0850 hc        1 550      0.125200
     35 H3A         2.7030   -1.6230   -3.6420 hc        1 550      0.125200
     36 H5         -0.5540   -0.5130   -1.8950 hc        1 550      0.053700
     37 H5A        -0.1990    1.2650   -2.0700 hc        1 550      0.053700
     38 HN1         1.6290    0.0470    1.2440 hn        1 550      0.465300
     39 H7          3.9850    1.6760   -5.8220 h1        1 550      0.069033
     40 H7A         2.8610    2.9220   -5.0420 h1        1 550      0.069033
     41 H7B         4.3630    2.3690   -4.1470 h1        1 550      0.069033
     42 H9         -1.1640   -1.8750   -3.8570 ha        1 550      0.131500
     43 H10        -2.3840   -1.8620   -6.0360 ha        1 550      0.157500
     44 H12        -1.7970    2.4360   -6.3090 ha        1 550      0.157500
     45 H13        -0.5860    2.4070   -4.1560 ha        1 550      0.131500
     46 H14        -3.6580    2.0920   -7.5690 h1        1 550      0.059200
     47 H14A       -2.0710    1.8420   -8.4750 h1        1 550      0.059200
     48 H16        -3.9780   -1.0690   -9.1230 ha        1 550      0.155000
     49 H20        -5.7930    2.6200  -13.3530 ha        1 550      0.158000
     50 H21        -5.1360    4.9710  -12.8580 ha        1 550      0.143000
     51 H22        -3.8740    5.5230  -10.7920 ha        1 550      0.137000
     52 H23        -3.2460    3.7350   -9.1850 ha        1 550      0.121000
     53 H24        -5.9770   -2.2450  -10.4440 hc        1 550      0.058367
     54 H24A       -4.4090   -2.4990  -11.3280 hc        1 550      0.058367
     55 H24B       -5.8910   -1.9740  -12.2370 hc        1 550      0.058367
     56 H121        0.9920    0.8030   -0.1340 hn        1 550      0.465300
@<TRIPOS>BOND
     1    1   11 2   
     2    2   12 1   
     3    2   32 1   
     4    3    9 1   
     5    3   13 1   
     6    4    9 2   
     7    5   17 1   
     8    5   20 1   
     9    6    7 1   
    10    6    8 1   
    11    6   11 1   
    12    6   33 1   
    13    7    8 1   
    14    7    9 1   
    15    7   10 1   
    16    8   34 1   
    17    8   35 1   
    18   10   14 1   
    19   10   36 1   
    20   10   37 1   
    21   11   12 1   
    22   12   38 1   
    23   12   56 1   
    24   13   39 1   
    25   13   40 1   
    26   13   41 1   
    27   14   15 ar  
    28   14   19 ar  
    29   15   16 ar  
    30   15   42 1   
    31   16   17 ar  
    32   16   43 1   
    33   17   18 ar  
    34   18   19 ar  
    35   18   44 1   
    36   19   45 1   
    37   20   21 1   
    38   20   46 1   
    39   20   47 1   
    40   21   22 ar  
    41   21   25 ar  
    42   22   23 ar  
    43   22   48 1   
    44   23   24 ar  
    45   23   31 1   
    46   24   26 ar  
    47   25   26 ar  
    48   25   30 ar  
    49   26   27 ar  
    50   27   28 ar  
    51   27   49 1   
    52   28   29 ar  
    53   28   50 1   
    54   29   30 ar  
    55   29   51 1   
    56   30   52 1   
    57   31   53 1   
    58   31   54 1   
    59   31   55 1   
@<TRIPOS>SUBSTRUCTURE
     1 550         1 TEMP              0 ****  ****    0 ROOT
