@<TRIPOS>MOLECULE
550
   56    59     1     0     0
SMALL
bcc


@<TRIPOS>ATOM
      1 O1          1.1130   -2.3640    0.0300 o         1 550     -0.333100
      2 O2         -0.2850   -0.2820    0.9050 oh        1 550     -0.349300
      3 O3          2.8370    0.9740   -4.3390 os        1 550     -0.402900
      4 O4          2.2550    2.2320   -2.5680 o         1 550     -0.543000
      5 O5         -2.8360    0.1510   -7.4940 os        1 550     -0.317900
      6 C1          2.1210   -0.8300   -1.6150 cx        1 550     -0.270700
      7 C2          1.4000   -0.0250   -2.6920 cx        1 550     -0.126000
      8 C3          1.8510   -1.4280   -2.9760 cx        1 550     -0.021400
      9 C4          2.1740    1.1580   -3.1730 c         1 550      0.653100
     10 C5         -0.0780    0.2620   -2.5640 c3        1 550     -0.001100
     11 C6          1.3960   -1.2800   -0.4190 c         1 550      0.621100
     12 N1          0.9670   -0.0390    0.4600 n4        1 550     -0.486300
     13 C7          3.5530    2.1060   -4.8600 c3        1 550      0.121700
     14 C8         -0.7800    0.2640   -3.8750 ca        1 550     -0.162300
     15 C9         -1.2800   -0.9330   -4.4090 ca        1 550     -0.077000
     16 C10        -1.9610   -0.9410   -5.6160 ca        1 550     -0.176000
     17 C11        -2.1530    0.2740   -6.3090 ca        1 550      0.163100
     18 C12        -1.6640    1.4760   -5.7820 ca        1 550     -0.176000
     19 C13        -0.9820    1.4610   -4.5670 ca        1 550     -0.077000
     20 C14        -3.0720    1.3740   -8.2150 c3        1 550      0.169700
     21 C15        -3.8290    1.0440   -9.4590 ca        1 550     -0.057300
     22 C16        -4.1990   -0.2370   -9.7800 ca        1 550     -0.218300
     23 C17        -4.9270   -0.4790  -10.9980 ca        1 550      0.430600
     24 N2         -5.2660    0.4900  -11.8400 nb        1 550     -0.650000
     25 C18        -4.1770    2.1160  -10.3420 ca        1 550     -0.143300
     26 C19        -4.9010    1.7850  -11.5300 ca        1 550      0.403600
     27 C20        -5.2600    2.8420  -12.4290 ca        1 550     -0.156300
     28 C21        -4.9130    4.1390  -12.1500 ca        1 550     -0.123000
     29 C22        -4.1970    4.4590  -10.9730 ca        1 550     -0.116000
     30 C23        -3.8380    3.4690  -10.0910 ca        1 550     -0.128000
     31 C24        -5.2990   -1.8990  -11.2850 c3        1 550     -0.154400
     32 HO2        -0.5420    0.4130    1.5530 ho        1 550      0.470000
     33 H1          3.1770   -0.5700   -1.3680 hc        1 550      0.151700
     34 H3          1.0800   -2.2160   -3.0860 hc        1 550      0.125200
     35 H3A         2.7230   -1.5960   -3.6410 hc        1 550      0.125200
     36 H5         -0.5460   -0.5150   -1.8980 hc        1 550      0.053700
     37 H5A        -0.2050    1.2660   -2.0700 hc        1 550      0.053700
     38 HN1         0.9860    0.8120   -0.1330 hn        1 550      0.465300
     39 H7          3.9810    1.7140   -5.8160 h1        1 550      0.069033
     40 H7A         4.3500    2.4100   -4.1410 h1        1 550      0.069033
     41 H7B         2.8450    2.9500   -5.0390 h1        1 550      0.069033
     42 H9         -1.1390   -1.8800   -3.8640 ha        1 550      0.131500
     43 H10        -2.3570   -1.8740   -6.0430 ha        1 550      0.157500
     44 H12        -1.8120    2.4300   -6.3070 ha        1 550      0.157500
     45 H13        -0.6020    2.4080   -4.1530 ha        1 550      0.131500
     46 H14        -3.6700    2.0700   -7.5670 h1        1 550      0.059200
     47 H14A       -2.0820    1.8410   -8.4740 h1        1 550      0.059200
     48 H16        -3.9530   -1.0900   -9.1310 ha        1 550      0.155000
     49 H20        -5.8180    2.5920  -13.3460 ha        1 550      0.158000
     50 H21        -5.1900    4.9500  -12.8420 ha        1 550      0.143000
     51 H22        -3.9330    5.5090  -10.7750 ha        1 550      0.137000
     52 H23        -3.2810    3.7230   -9.1760 ha        1 550      0.121000
     53 H24        -5.8590   -2.0070  -12.2460 hc        1 550      0.058367
     54 H24A       -5.9380   -2.2860  -10.4540 hc        1 550      0.058367
     55 H24B       -4.3690   -2.5170  -11.3430 hc        1 550      0.058367
     56 H121        1.6310    0.0630    1.2440 hn        1 550      0.465300
@<TRIPOS>BOND
     1    1   11 2   
     2    2   12 1   
     3    2   32 1   
     4    3    9 1   
     5    3   13 1   
     6    4    9 2   
     7    5   17 1   
     8    5   20 1   
     9    6    7 1   
    10    6    8 1   
    11    6   11 1   
    12    6   33 1   
    13    7    8 1   
    14    7    9 1   
    15    7   10 1   
    16    8   34 1   
    17    8   35 1   
    18   10   14 1   
    19   10   36 1   
    20   10   37 1   
    21   11   12 1   
    22   12   38 1   
    23   12   56 1   
    24   13   39 1   
    25   13   40 1   
    26   13   41 1   
    27   14   15 ar  
    28   14   19 ar  
    29   15   16 ar  
    30   15   42 1   
    31   16   17 ar  
    32   16   43 1   
    33   17   18 ar  
    34   18   19 ar  
    35   18   44 1   
    36   19   45 1   
    37   20   21 1   
    38   20   46 1   
    39   20   47 1   
    40   21   22 ar  
    41   21   25 ar  
    42   22   23 ar  
    43   22   48 1   
    44   23   24 ar  
    45   23   31 1   
    46   24   26 ar  
    47   25   26 ar  
    48   25   30 ar  
    49   26   27 ar  
    50   27   28 ar  
    51   27   49 1   
    52   28   29 ar  
    53   28   50 1   
    54   29   30 ar  
    55   29   51 1   
    56   30   52 1   
    57   31   53 1   
    58   31   54 1   
    59   31   55 1   
@<TRIPOS>SUBSTRUCTURE
     1 550         1 TEMP              0 ****  ****    0 ROOT
