@<TRIPOS>MOLECULE
550
   55    58     1     0     0
SMALL
bcc


@<TRIPOS>ATOM
      1 O1          5.6350    2.3390   -0.2060 o         1 550     -0.558100
      2 O2          7.8400    1.4540   -1.3930 oh        1 550     -0.435100
      3 O3          4.4210   -1.9410    2.5300 os        1 550     -0.443900
      4 O4          3.5650   -2.7580    0.6410 o         1 550     -0.535000
      5 O5         -2.0090    0.9760   -0.4830 os        1 550     -0.330900
      6 C1          5.4300    0.3410    1.1250 cx        1 550     -0.199700
      7 C2          4.1410   -0.3760    0.7350 cx        1 550     -0.145000
      8 C3          4.1220    0.7610    1.7290 cx        1 550     -0.060400
      9 C4          3.9970   -1.7690    1.2380 c         1 550      0.660100
     10 C5          3.5310   -0.1720   -0.6290 c3        1 550     -0.007100
     11 C6          6.1040    1.2430    0.1430 c         1 550      0.619100
     12 N1          7.4180    0.8600   -0.2750 n         1 550     -0.346400
     13 C7          4.2930   -3.2560    3.0750 c3        1 550      0.126700
     14 C8          2.0670    0.0980   -0.5690 ca        1 550     -0.122300
     15 C9          1.5920    1.4160   -0.5900 ca        1 550     -0.087500
     16 C10         0.2280    1.6790   -0.5620 ca        1 550     -0.181500
     17 C11        -0.6780    0.6020   -0.5110 ca        1 550      0.129100
     18 C12        -0.2170   -0.7190   -0.4900 ca        1 550     -0.181500
     19 C13         1.1560   -0.9600   -0.5190 ca        1 550     -0.087500
     20 C14        -2.9530   -0.1030   -0.4650 c3        1 550      0.168700
     21 C15        -4.3290    0.4760   -0.4600 ca        1 550     -0.045300
     22 C16        -4.5590    1.8290   -0.4750 ca        1 550     -0.221300
     23 C17        -5.9110    2.3180   -0.4680 ca        1 550      0.429600
     24 N2         -6.9700    1.5180   -0.4470 nb        1 550     -0.662000
     25 C18        -5.4470   -0.4200   -0.4370 ca        1 550     -0.144300
     26 C19        -6.7560    0.1530   -0.4310 ca        1 550      0.401600
     27 C20        -7.8870   -0.7270   -0.4090 ca        1 550     -0.162300
     28 C21        -7.7090   -2.0870   -0.3930 ca        1 550     -0.126000
     29 C22        -6.4110   -2.6460   -0.3990 ca        1 550     -0.124000
     30 C23        -5.3060   -1.8310   -0.4210 ca        1 550     -0.119000
     31 C24        -6.0840    3.8040   -0.4870 c3        1 550     -0.153400
     32 HO2         8.0420    2.3790   -1.1440 ho        1 550      0.437000
     33 H1          6.1380   -0.2190    1.7740 hc        1 550      0.118700
     34 H3          3.9400    0.5370    2.7960 hc        1 550      0.102700
     35 H3A         3.6700    1.7170    1.4000 hc        1 550      0.102700
     36 H5          4.0450    0.6920   -1.1340 hc        1 550      0.072700
     37 H5A         3.7160   -1.0920   -1.2500 hc        1 550      0.072700
     38 HN1         7.5090   -0.1420   -0.4060 hn        1 550      0.301500
     39 H7          3.2200   -3.5650    3.0740 h1        1 550      0.053700
     40 H7A         4.9000   -3.9770    2.4770 h1        1 550      0.053700
     41 H7B         4.6880   -3.1480    4.1150 h1        1 550      0.053700
     42 H9          2.3060    2.2540   -0.6340 ha        1 550      0.148500
     43 H10        -0.1540    2.7080   -0.5800 ha        1 550      0.143000
     44 H12        -0.9130   -1.5670   -0.4510 ha        1 550      0.143000
     45 H13         1.5300   -1.9980   -0.4970 ha        1 550      0.148500
     46 H14        -2.8040   -0.7400   -1.3800 h1        1 550      0.057200
     47 H14A       -2.7890   -0.7200    0.4610 h1        1 550      0.057200
     48 H16        -3.7290    2.5520   -0.4930 ha        1 550      0.161000
     49 H20        -8.8990   -0.2910   -0.4040 ha        1 550      0.151000
     50 H21        -8.5800   -2.7610   -0.3760 ha        1 550      0.136000
     51 H22        -6.2980   -3.7410   -0.3870 ha        1 550      0.134000
     52 H23        -4.2960   -2.2690   -0.4260 ha        1 550      0.129000
     53 H24        -5.6020    4.2170   -1.4070 hc        1 550      0.056033
     54 H24A       -7.1590    4.1090   -0.4780 hc        1 550      0.056033
     55 H24B       -5.5800    4.2430    0.4100 hc        1 550      0.056033
@<TRIPOS>BOND
     1    1   11 2   
     2    2   12 1   
     3    2   32 1   
     4    3    9 1   
     5    3   13 1   
     6    4    9 2   
     7    5   17 1   
     8    5   20 1   
     9    6    7 1   
    10    6    8 1   
    11    6   11 1   
    12    6   33 1   
    13    7    8 1   
    14    7    9 1   
    15    7   10 1   
    16    8   34 1   
    17    8   35 1   
    18   10   14 1   
    19   10   36 1   
    20   10   37 1   
    21   11   12 1   
    22   12   38 1   
    23   13   39 1   
    24   13   40 1   
    25   13   41 1   
    26   14   15 ar  
    27   14   19 ar  
    28   15   16 ar  
    29   15   42 1   
    30   16   17 ar  
    31   16   43 1   
    32   17   18 ar  
    33   18   19 ar  
    34   18   44 1   
    35   19   45 1   
    36   20   21 1   
    37   20   46 1   
    38   20   47 1   
    39   21   22 ar  
    40   21   25 ar  
    41   22   23 ar  
    42   22   48 1   
    43   23   24 ar  
    44   23   31 1   
    45   24   26 ar  
    46   25   26 ar  
    47   25   30 ar  
    48   26   27 ar  
    49   27   28 ar  
    50   27   49 1   
    51   28   29 ar  
    52   28   50 1   
    53   29   30 ar  
    54   29   51 1   
    55   30   52 1   
    56   31   53 1   
    57   31   54 1   
    58   31   55 1   
@<TRIPOS>SUBSTRUCTURE
     1 550         1 TEMP              0 ****  ****    0 ROOT
