@<TRIPOS>MOLECULE
552
   44    47     1     0     0
SMALL
bcc


@<TRIPOS>ATOM
      1 CL11       -0.3840    0.7890    0.0850 cl        1 552     -0.038400
      2 C10         1.2900    0.5380   -0.0840 cc        1 552      0.160000
      3 N09         2.0460    0.4370    1.0810 nc        1 552     -0.586300
      4 C12         1.8560    0.4390   -1.3370 cd        1 552      0.019600
      5 N23         3.2480    0.2110   -1.4740 n         1 552     -0.351000
      6 C15         3.5990    0.1570   -2.9000 c3        1 552      0.062900
      7 C16         4.5690    1.2810   -3.3280 c         1 552      0.652100
      8 N18         5.7950    0.9190   -3.8540 n         1 552     -0.446800
      9 C22         6.4600   -0.3350   -3.5350 c3        1 552      0.073500
     10 C21         7.9740   -0.1200   -3.6970 c3        1 552     -0.089400
     11 C20         8.1670    1.3410   -4.0870 c3        1 552     -0.089400
     12 C19         6.7630    1.9520   -4.2040 c3        1 552      0.073500
     13 O17         4.2040    2.4700   -3.2940 o         1 552     -0.578100
     14 C14         2.2560    0.3510   -3.6050 c2        1 552     -0.147200
     15 C13         1.2710    0.5140   -2.6890 cf        1 552     -0.105000
     16 C24         4.0760    0.0580   -0.3690 c         1 552      0.605200
     17 O25         5.2830   -0.2040   -0.4710 o         1 552     -0.598500
     18 C08         3.3360    0.2170    0.9420 cd        1 552      0.574600
     19 O07         4.2100    0.1020    1.9920 os        1 552     -0.381400
     20 C06         3.6560    0.2460    3.3180 c3        1 552      0.182700
     21 C05         4.7790    0.1040    4.2910 ca        1 552     -0.114300
     22 C04         6.0270   -0.4060    3.9210 ca        1 552     -0.089500
     23 C03         7.0420   -0.5400    4.8640 ca        1 552     -0.166000
     24 C26         4.5480    0.4840    5.6200 ca        1 552     -0.089500
     25 C27         5.5490    0.3520    6.5760 ca        1 552     -0.166000
     26 C02         6.8030   -0.1620    6.1980 ca        1 552      0.127900
     27 F01         7.7840   -0.2930    7.1230 f         1 552     -0.140900
     28 H15         4.0210   -0.8640   -3.1280 h1        1 552      0.098700
     29 H22         6.2220   -0.6630   -2.4840 h1        1 552      0.059700
     30 H22A        6.0970   -1.1260   -4.2490 h1        1 552      0.059700
     31 H21         8.3780   -0.8020   -4.4840 hc        1 552      0.054950
     32 H21A        8.4980   -0.3520   -2.7380 hc        1 552      0.054950
     33 H20         8.7610    1.8850   -3.3130 hc        1 552      0.054950
     34 H20A        8.7090    1.4290   -5.0600 hc        1 552      0.054950
     35 H19         6.5560    2.2850   -5.2570 h1        1 552      0.059700
     36 H19A        6.6470    2.8450   -3.5300 h1        1 552      0.059700
     37 H14         2.1970    0.3650   -4.6920 ha        1 552      0.173000
     38 H13         0.2050    0.6810   -2.8480 ha        1 552      0.176000
     39 H06         2.8890   -0.5580    3.4820 h1        1 552      0.068200
     40 H06A        3.1750    1.2560    3.4080 h1        1 552      0.068200
     41 H04         6.2110   -0.6960    2.8730 ha        1 552      0.150500
     42 H03         8.0250   -0.9380    4.5770 ha        1 552      0.150500
     43 H26         3.5680    0.8900    5.9110 ha        1 552      0.150500
     44 H27         5.3730    0.6470    7.6200 ha        1 552      0.150500
@<TRIPOS>BOND
     1    1    2 1   
     2    2    3 1   
     3    2    4 2   
     4    3   18 2   
     5    4    5 1   
     6    4   15 1   
     7    5    6 1   
     8    5   16 1   
     9    6    7 1   
    10    6   14 1   
    11    6   28 1   
    12    7    8 1   
    13    7   13 2   
    14    8    9 1   
    15    8   12 1   
    16    9   10 1   
    17    9   29 1   
    18    9   30 1   
    19   10   11 1   
    20   10   31 1   
    21   10   32 1   
    22   11   12 1   
    23   11   33 1   
    24   11   34 1   
    25   12   35 1   
    26   12   36 1   
    27   14   15 2   
    28   14   37 1   
    29   15   38 1   
    30   16   17 2   
    31   16   18 1   
    32   18   19 1   
    33   19   20 1   
    34   20   21 1   
    35   20   39 1   
    36   20   40 1   
    37   21   22 ar  
    38   21   24 ar  
    39   22   23 ar  
    40   22   41 1   
    41   23   26 ar  
    42   23   42 1   
    43   24   25 ar  
    44   24   43 1   
    45   25   26 ar  
    46   25   44 1   
    47   26   27 1   
@<TRIPOS>SUBSTRUCTURE
     1 552         1 TEMP              0 ****  ****    0 ROOT
