@<TRIPOS>MOLECULE
552
   44    44     1     0     0
SMALL
bcc


@<TRIPOS>ATOM
      1 CL11       -4.9900   -1.2120   -0.2120 cl        1 552      0.046000
      2 C10        -3.2490   -1.1260   -0.2230 c2        1 552     -0.065000
      3 N09        -2.5220   -1.1110    1.0190 n2        1 552     -0.158000
      4 C12        -2.5000   -1.1570   -1.5340 c1        1 552      0.017000
      5 N23        -1.0060   -1.0510   -1.5390 n2        1 552     -0.244000
      6 C15        -0.6640   -0.0630   -2.7700 c3        1 552      0.032000
      7 C16         0.0750    1.0880   -2.2870 c2        1 552      0.296000
      8 N18         1.1410    1.6190   -3.0560 n         1 552     -0.305000
      9 C22         1.9080    2.6150   -2.7360 c3        1 552     -0.042500
     10 C21         2.3830    3.2230   -4.1070 c3        1 552     -0.168000
     11 C20         1.9790    2.1980   -5.1700 c3        1 552     -0.168000
     12 C19         1.6350    1.1100   -4.4860 c3        1 552     -0.042500
     13 O17        -0.1960    1.5740   -1.2070 o         1 552     -0.339000
     14 C14        -1.9410    0.2240   -3.2400 c2        1 552     -0.143000
     15 C13        -2.9090   -0.3530   -2.5860 c2        1 552     -0.105000
     16 C24        -0.2960   -1.0840   -0.3190 c2        1 552      0.332000
     17 O25         0.9190   -1.0560   -0.3220 o         1 552     -0.323000
     18 C08        -1.0600   -1.1600    1.0110 c2        1 552      0.084000
     19 O07        -0.3580   -1.3430    2.2140 os        1 552     -0.176000
     20 C06        -1.1880   -1.5120    3.3380 c3        1 552      0.025000
     21 C05        -0.3420   -1.5250    4.5920 c2        1 552     -0.107000
     22 C04        -0.3990   -2.6090    5.4550 c2        1 552     -0.101000
     23 C03         0.3230   -2.5920    6.6380 c1        1 552     -0.166000
     24 C26         0.4370   -0.4240    4.9130 c1        1 552     -0.078000
     25 C27         1.1590   -0.4070    6.0960 c1        1 552     -0.166000
     26 C02         1.1020   -1.4910    6.9580 c1        1 552      0.093000
     27 F01         1.8100   -1.4800    8.0950 f         1 552     -0.106000
     28 H15        -0.0790   -0.3890   -3.4840 h1        1 552      0.138000
     29 H22         2.6790    2.2990   -2.2190 h1        1 552      0.099000
     30 H22A        1.4050    3.2820   -2.2240 h1        1 552      0.099000
     31 H21         3.3530    3.3440   -4.1050 hc        1 552      0.094250
     32 H21A        1.9350    4.0760   -4.2720 hc        1 552      0.094250
     33 H20         2.7350    2.0040   -5.7610 hc        1 552      0.094250
     34 H20A        1.2160    2.5290   -5.6900 hc        1 552      0.094250
     35 H19         2.4080    0.5180   -4.3840 h1        1 552      0.099000
     36 H19A        0.9080    0.6390   -4.9450 h1        1 552      0.099000
     37 H14        -2.0700    0.4910   -4.1710 ha        1 552      0.173000
     38 H13        -3.7620   -0.5240   -3.0290 ha        1 552      0.176000
     39 H06        -1.6710   -2.3610    3.2620 h1        1 552      0.107500
     40 H06A       -1.8300   -0.7730    3.3850 h1        1 552      0.107500
     41 H04        -0.9470   -3.3840    5.2290 ha        1 552      0.139000
     42 H03         0.2830   -3.3550    7.2450 ha        1 552      0.150000
     43 H26         0.4770    0.3390    4.3060 ha        1 552      0.163000
     44 H27         1.7080    0.3680    6.3220 ha        1 552      0.151000
@<TRIPOS>BOND
     1    1    2 1   
     2    2    3 1   
     3    2    4 1   
     4    3   18 1   
     5    4   15 1   
     6    5    6 1   
     7    5   16 1   
     8    6    7 1   
     9    6   14 1   
    10    6   28 1   
    11    7    8 1   
    12    7   13 1   
    13    8    9 1   
    14    8   12 1   
    15    9   10 1   
    16    9   29 1   
    17    9   30 1   
    18   10   11 1   
    19   10   31 1   
    20   10   32 1   
    21   11   12 1   
    22   11   33 1   
    23   11   34 1   
    24   12   35 1   
    25   12   36 1   
    26   14   15 1   
    27   14   37 1   
    28   15   38 1   
    29   16   17 1   
    30   16   18 1   
    31   18   19 1   
    32   19   20 1   
    33   20   21 1   
    34   20   39 1   
    35   20   40 1   
    36   21   22 1   
    37   21   24 1   
    38   22   23 1   
    39   22   41 1   
    40   23   42 1   
    41   24   43 1   
    42   25   26 1   
    43   25   44 1   
    44   26   27 1   
@<TRIPOS>SUBSTRUCTURE
     1 552         1 TEMP              0 ****  ****    0 ROOT
