@<TRIPOS>MOLECULE
552
   44    47     1     0     0
SMALL
bcc


@<TRIPOS>ATOM
      1 CL11       -0.4070   -4.6850    1.0860 cl        1 552     -0.038400
      2 C10        -0.5560   -3.0670    0.5870 cc        1 552      0.160000
      3 N09         0.6120   -2.3140    0.4870 nc        1 552     -0.586300
      4 C12        -1.7960   -2.5380    0.2970 cd        1 552      0.019600
      5 N23        -1.9150   -1.1950   -0.1360 n         1 552     -0.351000
      6 C15        -3.3320   -0.8760   -0.3670 c3        1 552      0.062900
      7 C16        -3.8620    0.2350    0.5650 c         1 552      0.652100
      8 N18        -4.3570    1.3890   -0.0120 n         1 552     -0.446800
      9 C22        -3.9260    1.8770   -1.3130 c3        1 552      0.073500
     10 C21        -4.1110    3.4030   -1.3290 c3        1 552     -0.089400
     11 C20        -4.6350    3.7930    0.0490 c3        1 552     -0.089400
     12 C19        -4.8030    2.4870    0.8380 c3        1 552      0.073500
     13 O17        -3.9360    0.0410    1.7920 o         1 552     -0.578100
     14 C14        -4.0470   -2.1900   -0.0500 c2        1 552     -0.147200
     15 C13        -3.1480   -3.1280    0.3320 cf        1 552     -0.105000
     16 C24        -0.8030   -0.3790   -0.3020 c         1 552      0.605200
     17 O25        -0.8840    0.7780   -0.7390 o         1 552     -0.598500
     18 C08         0.4890   -1.0690    0.0760 cd        1 552      0.574600
     19 O07         1.5440   -0.2050   -0.0660 os        1 552     -0.381400
     20 C06         2.8520   -0.7120    0.2740 c3        1 552      0.182700
     21 C05         3.8330    0.3930    0.0620 ca        1 552     -0.114300
     22 C04         3.4980    1.5690   -0.6160 ca        1 552     -0.089500
     23 C03         4.4490    2.5680   -0.8060 ca        1 552     -0.166000
     24 C26         5.1320    0.2200    0.5560 ca        1 552     -0.089500
     25 C27         6.0950    1.2050    0.3720 ca        1 552     -0.166000
     26 C02         5.7530    2.3880   -0.3120 ca        1 552      0.127900
     27 F01         6.6850    3.3530   -0.4950 f         1 552     -0.140900
     28 H15        -3.4660   -0.6050   -1.4540 h1        1 552      0.098700
     29 H22        -2.8480    1.6120   -1.5080 h1        1 552      0.059700
     30 H22A       -4.5630    1.3960   -2.1070 h1        1 552      0.059700
     31 H21        -3.1360    3.9050   -1.5450 hc        1 552      0.054950
     32 H21A       -4.8340    3.6960   -2.1300 hc        1 552      0.054950
     33 H20        -3.9150    4.4700    0.5720 hc        1 552      0.054950
     34 H20A       -5.6130    4.3270   -0.0290 hc        1 552      0.054950
     35 H19        -5.8820    2.3110    1.1010 h1        1 552      0.059700
     36 H19A       -4.2130    2.5080    1.7960 h1        1 552      0.059700
     37 H14        -5.1310   -2.2630   -0.1270 ha        1 552      0.173000
     38 H13        -3.3180   -4.1620    0.6320 ha        1 552      0.176000
     39 H06         2.8510   -1.0440    1.3460 h1        1 552      0.068200
     40 H06A        3.0910   -1.5820   -0.3950 h1        1 552      0.068200
     41 H04         2.4730    1.7100   -0.9970 ha        1 552      0.151000
     42 H03         4.1890    3.4960   -1.3360 ha        1 552      0.150500
     43 H26         5.3960   -0.7040    1.0940 ha        1 552      0.151000
     44 H27         7.1170    1.0740    0.7560 ha        1 552      0.150500
@<TRIPOS>BOND
     1    1    2 1   
     2    2    3 1   
     3    2    4 2   
     4    3   18 2   
     5    4    5 1   
     6    4   15 1   
     7    5    6 1   
     8    5   16 1   
     9    6    7 1   
    10    6   14 1   
    11    6   28 1   
    12    7    8 1   
    13    7   13 2   
    14    8    9 1   
    15    8   12 1   
    16    9   10 1   
    17    9   29 1   
    18    9   30 1   
    19   10   11 1   
    20   10   31 1   
    21   10   32 1   
    22   11   12 1   
    23   11   33 1   
    24   11   34 1   
    25   12   35 1   
    26   12   36 1   
    27   14   15 2   
    28   14   37 1   
    29   15   38 1   
    30   16   17 2   
    31   16   18 1   
    32   18   19 1   
    33   19   20 1   
    34   20   21 1   
    35   20   39 1   
    36   20   40 1   
    37   21   22 ar  
    38   21   24 ar  
    39   22   23 ar  
    40   22   41 1   
    41   23   26 ar  
    42   23   42 1   
    43   24   25 ar  
    44   24   43 1   
    45   25   26 ar  
    46   25   44 1   
    47   26   27 1   
@<TRIPOS>SUBSTRUCTURE
     1 552         1 TEMP              0 ****  ****    0 ROOT
