@<TRIPOS>MOLECULE
552
   44    47     1     0     0
SMALL
bcc


@<TRIPOS>ATOM
      1 Cl11       -0.3880    0.7450    0.0570 cl        1 552     -0.038400
      2 C10         1.2880    0.5070   -0.1020 cc        1 552      0.160000
      3 N09         2.0400    0.4230    1.0680 nc        1 552     -0.586300
      4 C12         1.8620    0.4020   -1.3520 cd        1 552      0.019600
      5 N23         3.2560    0.1850   -1.4800 n         1 552     -0.351000
      6 C15         3.6140    0.1210   -2.9040 c3        1 552      0.062900
      7 C16         4.5770    1.2490   -3.3380 c         1 552      0.652100
      8 N18         5.8070    0.8920   -3.8560 n         1 552     -0.446800
      9 C22         6.4810   -0.3530   -3.5220 c3        1 552      0.073500
     10 C21         7.9950   -0.1260   -3.6790 c3        1 552     -0.089400
     11 C20         8.1770    1.3330   -4.0830 c3        1 552     -0.089400
     12 C19         6.7680    1.9300   -4.2110 c3        1 552      0.073500
     13 O17         4.2010    2.4350   -3.3160 o         1 552     -0.578100
     14 C14         2.2720    0.2970   -3.6160 c2        1 552     -0.147200
     15 C13         1.2820    0.4600   -2.7070 cf        1 552     -0.105000
     16 C24         4.0800    0.0500   -0.3700 c         1 552      0.605200
     17 O25         5.2900   -0.2020   -0.4640 o         1 552     -0.598500
     18 C08         3.3330    0.2140    0.9360 cd        1 552      0.574600
     19 O07         4.2030    0.1160    1.9910 os        1 552     -0.381400
     20 C06         3.6420    0.2660    3.3130 c3        1 552      0.182700
     21 C05         4.7610    0.1420    4.2930 ca        1 552     -0.114300
     22 C04         6.0210   -0.3410    3.9300 ca        1 552     -0.089500
     23 C03         7.0320   -0.4580    4.8790 ca        1 552     -0.166000
     24 C26         4.5140    0.5130    5.6210 ca        1 552     -0.089500
     25 C27         5.5100    0.4000    6.5830 ca        1 552     -0.166000
     26 C02         6.7780   -0.0880    6.2120 ca        1 552      0.127900
     27 F01         7.7550   -0.2010    7.1440 f         1 552     -0.140900
     28 H15         4.0460   -0.8980   -3.1210 h1        1 552      0.098700
     29 H22         6.1290   -1.1530   -4.2300 h1        1 552      0.059700
     30 H22A        6.2420   -0.6730   -2.4690 h1        1 552      0.059700
     31 H21         8.5170   -0.3440   -2.7160 hc        1 552      0.054950
     32 H21A        8.4080   -0.8120   -4.4580 hc        1 552      0.054950
     33 H20         8.7640    1.8900   -3.3110 hc        1 552      0.054950
     34 H20A        8.7220    1.4160   -5.0540 hc        1 552      0.054950
     35 H19         6.6420    2.8290   -3.5450 h1        1 552      0.059700
     36 H19A        6.5620    2.2520   -5.2680 h1        1 552      0.059700
     37 H14         2.2190    0.3000   -4.7040 ha        1 552      0.173000
     38 H13         0.2160    0.6160   -2.8720 ha        1 552      0.176000
     39 H06         3.1510    1.2730    3.3920 h1        1 552      0.068200
     40 H06A        2.8810   -0.5440    3.4810 h1        1 552      0.068200
     41 H04         6.2190   -0.6250    2.8830 ha        1 552      0.150500
     42 H03         8.0260   -0.8350    4.5980 ha        1 552      0.150500
     43 H26         3.5230    0.8980    5.9070 ha        1 552      0.150500
     44 H27         5.3210    0.6880    7.6270 ha        1 552      0.150500
@<TRIPOS>BOND
     1    1    2 1   
     2    2    3 1   
     3    2    4 2   
     4    3   18 2   
     5    4    5 1   
     6    4   15 1   
     7    5    6 1   
     8    5   16 1   
     9    6    7 1   
    10    6   14 1   
    11    6   28 1   
    12    7    8 1   
    13    7   13 2   
    14    8    9 1   
    15    8   12 1   
    16    9   10 1   
    17    9   29 1   
    18    9   30 1   
    19   10   11 1   
    20   10   31 1   
    21   10   32 1   
    22   11   12 1   
    23   11   33 1   
    24   11   34 1   
    25   12   35 1   
    26   12   36 1   
    27   14   15 2   
    28   14   37 1   
    29   15   38 1   
    30   16   17 2   
    31   16   18 1   
    32   18   19 1   
    33   19   20 1   
    34   20   21 1   
    35   20   39 1   
    36   20   40 1   
    37   21   22 ar  
    38   21   24 ar  
    39   22   23 ar  
    40   22   41 1   
    41   23   26 ar  
    42   23   42 1   
    43   24   25 ar  
    44   24   43 1   
    45   25   26 ar  
    46   25   44 1   
    47   26   27 1   
@<TRIPOS>SUBSTRUCTURE
     1 552         1 TEMP              0 ****  ****    0 ROOT
