@<TRIPOS>MOLECULE
552
   44    47     1     0     0
SMALL
bcc


@<TRIPOS>ATOM
      1 CL11       -0.3860    0.7350    0.0560 cl        1 552     -0.038400
      2 C10         1.2910    0.5010   -0.1040 cc        1 552      0.160000
      3 N09         2.0430    0.4160    1.0650 nc        1 552     -0.586300
      4 C12         1.8650    0.4000   -1.3540 cd        1 552      0.019600
      5 N23         3.2590    0.1870   -1.4840 n         1 552     -0.351000
      6 C15         3.6180    0.1280   -2.9080 c3        1 552      0.062900
      7 C16         4.5770    1.2580   -3.3380 c         1 552      0.652100
      8 N18         5.8090    0.9060   -3.8570 n         1 552     -0.446800
      9 C22         6.4860   -0.3380   -3.5270 c3        1 552      0.073500
     10 C21         7.9980   -0.1070   -3.6840 c3        1 552     -0.089400
     11 C20         8.1780    1.3530   -4.0830 c3        1 552     -0.089400
     12 C19         6.7670    1.9480   -4.2100 c3        1 552      0.073500
     13 O17         4.1990    2.4440   -3.3130 o         1 552     -0.578100
     14 C14         2.2750    0.3020   -3.6190 c2        1 552     -0.147200
     15 C13         1.2850    0.4600   -2.7090 cf        1 552     -0.105000
     16 C24         4.0840    0.0510   -0.3740 c         1 552      0.605200
     17 O25         5.2950   -0.1970   -0.4690 o         1 552     -0.598500
     18 C08         3.3360    0.2100    0.9320 cd        1 552      0.574600
     19 O07         4.2060    0.1100    1.9870 os        1 552     -0.381400
     20 C06         3.6450    0.2570    3.3100 c3        1 552      0.182700
     21 C05         4.7640    0.1320    4.2900 ca        1 552     -0.114300
     22 C04         6.0330   -0.3230    3.9220 ca        1 552     -0.089500
     23 C03         7.0440   -0.4400    4.8720 ca        1 552     -0.166000
     24 C26         4.5080    0.4750    5.6240 ca        1 552     -0.089500
     25 C27         5.5030    0.3610    6.5870 ca        1 552     -0.166000
     26 C02         6.7800   -0.0990    6.2100 ca        1 552      0.127900
     27 F01         7.7560   -0.2120    7.1420 f         1 552     -0.140900
     28 H15         4.0510   -0.8900   -3.1270 h1        1 552      0.098700
     29 H22         6.2480   -0.6620   -2.4740 h1        1 552      0.059700
     30 H22A        6.1350   -1.1380   -4.2360 h1        1 552      0.059700
     31 H21         8.4130   -0.7900   -4.4650 hc        1 552      0.054950
     32 H21A        8.5210   -0.3270   -2.7210 hc        1 552      0.054950
     33 H20         8.7630    1.9090   -3.3100 hc        1 552      0.054950
     34 H20A        8.7220    1.4400   -5.0550 hc        1 552      0.054950
     35 H19         6.5600    2.2720   -5.2660 h1        1 552      0.059700
     36 H19A        6.6390    2.8440   -3.5420 h1        1 552      0.059700
     37 H14         2.2220    0.3080   -4.7070 ha        1 552      0.173000
     38 H13         0.2180    0.6140   -2.8740 ha        1 552      0.176000
     39 H06         3.1540    1.2630    3.3910 h1        1 552      0.068200
     40 H06A        2.8850   -0.5530    3.4750 h1        1 552      0.068200
     41 H04         6.2380   -0.5850    2.8700 ha        1 552      0.151000
     42 H03         8.0440   -0.7950    4.5860 ha        1 552      0.150500
     43 H26         3.5100    0.8380    5.9150 ha        1 552      0.151000
     44 H27         5.3070    0.6270    7.6350 ha        1 552      0.150500
@<TRIPOS>BOND
     1    1    2 1   
     2    2    3 1   
     3    2    4 2   
     4    3   18 2   
     5    4    5 1   
     6    4   15 1   
     7    5    6 1   
     8    5   16 1   
     9    6    7 1   
    10    6   14 1   
    11    6   28 1   
    12    7    8 1   
    13    7   13 2   
    14    8    9 1   
    15    8   12 1   
    16    9   10 1   
    17    9   29 1   
    18    9   30 1   
    19   10   11 1   
    20   10   31 1   
    21   10   32 1   
    22   11   12 1   
    23   11   33 1   
    24   11   34 1   
    25   12   35 1   
    26   12   36 1   
    27   14   15 2   
    28   14   37 1   
    29   15   38 1   
    30   16   17 2   
    31   16   18 1   
    32   18   19 1   
    33   19   20 1   
    34   20   21 1   
    35   20   39 1   
    36   20   40 1   
    37   21   22 ar  
    38   21   24 ar  
    39   22   23 ar  
    40   22   41 1   
    41   23   26 ar  
    42   23   42 1   
    43   24   25 ar  
    44   24   43 1   
    45   25   26 ar  
    46   25   44 1   
    47   26   27 1   
@<TRIPOS>SUBSTRUCTURE
     1 552         1 TEMP              0 ****  ****    0 ROOT
