@<TRIPOS>MOLECULE
553
   34    36     1     0     0
SMALL
bcc


@<TRIPOS>ATOM
      1 O19        -0.0590    0.1100    0.0720 o         1 553     -0.631500
      2 C15         1.1810    0.0050    0.0080 c         1 553      0.741100
      3 N14         1.9180   -0.1850    1.1780 n         1 553     -0.578900
      4 C13         3.3410   -0.0030    1.2220 c3        1 553      0.108000
      5 C12         4.1160   -0.5500   -0.0010 c3        1 553     -0.008400
      6 C16         5.5270    0.0100   -0.0270 c3        1 553     -0.119400
      7 C17         6.3110   -0.3920    1.2220 c3        1 553      0.159900
      8 F18         7.6460   -0.0610    1.1020 f         1 553     -0.241300
      9 C11         3.3520   -0.2300   -1.2330 cc        1 553     -0.058600
     10 N8          3.8040   -0.1670   -2.5340 na        1 553     -0.143100
     11 C10         1.9550    0.0150   -1.2300 cd        1 553     -0.226600
     12 C9          1.5510    0.2340   -2.5790 cd        1 553     -0.045000
     13 C7          2.7120    0.1210   -3.3750 cc        1 553     -0.220800
     14 C5          2.8240    0.2670   -4.8230 ca        1 553      0.573800
     15 C6          4.0720    0.1450   -5.4770 ca        1 553     -0.443600
     16 C1          4.0810    0.3210   -6.8720 ca        1 553      0.475200
     17 N4          1.6800    0.5310   -5.5030 nb        1 553     -0.753000
     18 C3          1.7900    0.6610   -6.8810 ca        1 553      0.883900
     19 N2          2.9880    0.5820   -7.5970 nb        1 553     -0.754000
     20 N20         0.6130    0.8300   -7.6070 nh        1 553     -0.933500
     21 HN14        1.4320   -0.1030    2.0420 hn        1 553      0.319500
     22 H13         3.5910    1.0950    1.3280 h1        1 553      0.040200
     23 H13A        3.7280   -0.5330    2.1390 h1        1 553      0.040200
     24 H12         4.1720   -1.6750    0.0870 hc        1 553      0.077700
     25 H16         6.0730   -0.3770   -0.9260 hc        1 553      0.061200
     26 H16A        5.5010    1.1280   -0.1050 hc        1 553      0.061200
     27 H17         6.2310   -1.5030    1.3850 h1        1 553      0.045700
     28 H17A        5.8930    0.1350    2.1250 h1        1 553      0.045700
     29 H9          0.5420    0.4450   -2.9300 ha        1 553      0.187000
     30 H6          5.0040   -0.0700   -4.9480 ha        1 553      0.141000
     31 H1          5.0250    0.2520   -7.4440 h4        1 553      0.025100
     32 HN20        0.6960    1.1460   -8.5430 hn        1 553      0.435300
     33 HN2A       -0.2010    1.0950   -7.1050 hn        1 553      0.435300
     34 HN8         4.7360   -0.2950   -2.8320 hn        1 553      0.302700
@<TRIPOS>BOND
     1    1    2 2   
     2    2    3 1   
     3    2   11 1   
     4    3    4 1   
     5    3   21 1   
     6    4    5 1   
     7    4   22 1   
     8    4   23 1   
     9    5    6 1   
    10    5    9 1   
    11    5   24 1   
    12    6    7 1   
    13    6   25 1   
    14    6   26 1   
    15    7    8 1   
    16    7   27 1   
    17    7   28 1   
    18    9   10 1   
    19    9   11 2   
    20   10   13 1   
    21   10   34 1   
    22   11   12 1   
    23   12   13 2   
    24   12   29 1   
    25   13   14 1   
    26   14   15 ar  
    27   14   17 ar  
    28   15   16 ar  
    29   15   30 1   
    30   16   19 ar  
    31   16   31 1   
    32   17   18 ar  
    33   18   19 ar  
    34   18   20 1   
    35   20   32 1   
    36   20   33 1   
@<TRIPOS>SUBSTRUCTURE
     1 553         1 TEMP              0 ****  ****    0 ROOT
