@<TRIPOS>MOLECULE
553
   35    37     1     0     0
SMALL
bcc


@<TRIPOS>ATOM
      1 O19        -0.0540    0.1800    0.0100 o         1 553     -0.614500
      2 C15         1.1850    0.0710   -0.0120 c         1 553      0.737100
      3 N14         1.9090   -0.1050    1.1610 n         1 553     -0.571900
      4 C13         3.3350    0.0530    1.2150 c3        1 553      0.104000
      5 C12         4.1140   -0.5350    0.0120 c3        1 553     -0.025400
      6 C16         5.5390   -0.0150   -0.0040 c3        1 553     -0.123400
      7 C17         6.3040   -0.4360    1.2530 c3        1 553      0.162900
      8 F18         7.6490   -0.1530    1.1280 f         1 553     -0.231300
      9 C11         3.3740   -0.2150   -1.2380 cc        1 553      0.009400
     10 N8          3.8390   -0.1740   -2.5290 na        1 553     -0.138100
     11 C10         1.9760    0.0590   -1.2470 cd        1 553     -0.228600
     12 C9          1.5850    0.2730   -2.5890 cd        1 553      0.006000
     13 C7          2.7550    0.1280   -3.3870 cc        1 553     -0.291800
     14 C5          2.8580    0.2540   -4.8160 ca        1 553      0.603800
     15 C6          4.0920    0.0960   -5.5110 ca        1 553     -0.341600
     16 C1          4.0940    0.2350   -6.9050 ca        1 553      0.474200
     17 N4          1.7060    0.5370   -5.5070 nb        1 553     -0.696000
     18 C3          1.8440    0.6470   -6.8600 ca        1 553      0.712900
     19 N2          2.9770    0.5130   -7.6170 nb        1 553     -0.689000
     20 N20         0.5860    0.9530   -7.6110 n4        1 553     -0.817300
     21 HN14        1.4140   -0.0500    2.0230 hn        1 553      0.336500
     22 H13         3.6000    1.1490    1.2980 h1        1 553      0.055700
     23 H13A        3.7060   -0.4640    2.1470 h1        1 553      0.055700
     24 H12         4.1330   -1.6610    0.1140 hc        1 553      0.093700
     25 H16         5.5470    1.1040   -0.0820 hc        1 553      0.061200
     26 H16A        6.0830   -0.4200   -0.8960 hc        1 553      0.061200
     27 H17         6.1820   -1.5420    1.4240 h1        1 553      0.051700
     28 H17A        5.9020    0.1150    2.1490 h1        1 553      0.051700
     29 H9          0.5810    0.5030   -2.9430 ha        1 553      0.188000
     30 H6          5.0280   -0.1300   -4.9840 ha        1 553      0.178000
     31 H1          5.0190    0.1240   -7.5060 h4        1 553      0.071100
     32 HN20        0.2060    1.8480   -7.2780 hn        1 553      0.480800
     33 HN2A       -0.0980    0.2060   -7.4390 hn        1 553      0.480800
     34 HN8         4.7730   -0.3200   -2.8160 hn        1 553      0.310700
     35 H203        0.7870    1.0150   -8.6180 hn        1 553      0.480800
@<TRIPOS>BOND
     1    1    2 2   
     2    2    3 1   
     3    2   11 1   
     4    3    4 1   
     5    3   21 1   
     6    4    5 1   
     7    4   22 1   
     8    4   23 1   
     9    5    6 1   
    10    5    9 1   
    11    5   24 1   
    12    6    7 1   
    13    6   25 1   
    14    6   26 1   
    15    7    8 1   
    16    7   27 1   
    17    7   28 1   
    18    9   10 1   
    19    9   11 2   
    20   10   13 1   
    21   10   34 1   
    22   11   12 1   
    23   12   13 2   
    24   12   29 1   
    25   13   14 1   
    26   14   15 ar  
    27   14   17 ar  
    28   15   16 ar  
    29   15   30 1   
    30   16   19 ar  
    31   16   31 1   
    32   17   18 ar  
    33   18   19 ar  
    34   18   20 1   
    35   20   32 1   
    36   20   33 1   
    37   20   35 1   
@<TRIPOS>SUBSTRUCTURE
     1 553         1 TEMP              0 ****  ****    0 ROOT
