@<TRIPOS>MOLECULE
553
   34    30     1     0     0
SMALL
bcc


@<TRIPOS>ATOM
      1 O19        -2.9640    2.1650    1.8030 o         1 553     -0.360000
      2 C15        -1.7900    1.8560    1.8350 c1        1 553      0.378000
      3 N14        -1.1220    1.8120    3.0420 n2        1 553     -0.387000
      4 C13         0.2750    1.8380    3.0130 c3        1 553     -0.009000
      5 C12         0.9150    0.8640    2.1680 c3        1 553     -0.054000
      6 C16         2.3380    1.3980    1.8090 c3        1 553     -0.198000
      7 C17         3.3420    0.8980    2.8370 c3        1 553      0.010000
      8 F18         4.5890    1.0710    2.3660 f         1 553     -0.170000
      9 C11         0.1640    0.5090    0.8060 c2        1 553     -0.030000
     10 N8          0.4280   -0.3220   -0.2480 n2        1 553     -0.120000
     11 C10        -1.1390    1.0680    0.6110 c2        1 553     -0.203000
     12 C9         -1.6400    0.5670   -0.5530 c1        1 553     -0.077000
     13 C7         -0.6770   -0.3020   -1.1030 c2        1 553     -0.081000
     14 C5         -0.8210   -1.0500   -2.2800 c1        1 553      0.130000
     15 C6         -0.4560   -0.5100   -3.4830 c1        1 553     -0.137500
     16 C1         -0.6440   -1.2210   -4.6360 c1        1 553     -0.137500
     17 N4         -1.3640   -2.2790   -2.2340 n1        1 553     -0.260000
     18 C3         -1.5510   -2.9880   -3.3870 c1        1 553      0.158000
     19 N2         -1.1870   -2.4490   -4.5870 n1        1 553     -0.224000
     20 N20        -2.1470   -4.2830   -3.3380 n3        1 553     -0.325000
     21 HN14       -1.5670    1.9990    3.8170 hn        1 553      0.233000
     22 H13         0.5810    1.6660    3.9290 h1        1 553      0.080000
     23 H13A        0.5350    2.7230    2.6760 h1        1 553      0.080000
     24 H12         1.0190    0.0390    2.6800 hc        1 553      0.117000
     25 H16         2.3290    2.3800    1.8110 hc        1 553      0.102500
     26 H16A        2.5930    1.0760    0.9200 hc        1 553      0.102500
     27 H17         3.1870   -0.0540    3.0080 h1        1 553      0.084000
     28 H17A        3.2340    1.4020    3.6710 h1        1 553      0.084000
     29 H9         -2.5130    0.7740   -0.9380 DU        1 553      0.221000
     30 H6         -0.0610    0.3820   -3.5170 ha        1 553      0.163000
     31 H1         -0.3830   -0.8360   -5.4950 ha        1 553      0.163000
     32 HN20       -2.7680   -4.5240   -3.9640 hn        1 553      0.222500
     33 HN2A       -1.9220   -4.8660   -2.6680 hn        1 553      0.222500
     34 HN8         1.1890   -0.8040   -0.3710 DU        1 553      0.221000
@<TRIPOS>BOND
     1    1    2 1   
     2    2   11 1   
     3    3    4 1   
     4    3   21 1   
     5    4    5 1   
     6    4   22 1   
     7    4   23 1   
     8    5    6 1   
     9    5    9 1   
    10    5   24 1   
    11    6    7 1   
    12    6   25 1   
    13    6   26 1   
    14    7    8 1   
    15    7   27 1   
    16    7   28 1   
    17    9   10 1   
    18    9   11 1   
    19   10   13 1   
    20   11   12 1   
    21   12   13 1   
    22   13   14 1   
    23   14   17 1   
    24   15   16 1   
    25   15   30 1   
    26   16   31 1   
    27   18   19 1   
    28   18   20 1   
    29   20   32 1   
    30   20   33 1   
@<TRIPOS>SUBSTRUCTURE
     1 553         1 TEMP              0 ****  ****    0 ROOT
