@<TRIPOS>MOLECULE
553
   34    36     1     0     0
SMALL
bcc


@<TRIPOS>ATOM
      1 O19        -0.0420    0.3260    0.0880 o         1 553     -0.631500
      2 C15         1.1890    0.1520    0.0180 c         1 553      0.741100
      3 N14         1.9190   -0.0850    1.1850 ns        1 553     -0.578900
      4 C13         3.3500    0.0130    1.2230 c3        1 553      0.108000
      5 C12         4.0870   -0.5740   -0.0050 c3        1 553     -0.008400
      6 C16         5.5280   -0.0980   -0.0350 c3        1 553     -0.119400
      7 C17         6.2920   -0.5510    1.2100 c3        1 553      0.159900
      8 F18         7.6450   -0.3010    1.0850 f         1 553     -0.241300
      9 C11         3.3390   -0.2040   -1.2330 cc        1 553     -0.058600
     10 N8          3.7880   -0.1590   -2.5350 na        1 553     -0.143100
     11 C10         1.9580    0.1220   -1.2220 cd        1 553     -0.226600
     12 C9          1.5620    0.3700   -2.5690 cd        1 553     -0.045000
     13 C7          2.7110    0.1960   -3.3700 cc        1 553     -0.220800
     14 C5          2.8290    0.3420   -4.8170 ca        1 553      0.574800
     15 C6          4.0970    0.3930   -5.4420 ca        1 553     -0.443600
     16 C1          4.1110    0.5190   -6.8430 ca        1 553      0.475200
     17 N4          1.6750    0.4270   -5.5240 nb        1 553     -0.753000
     18 C3          1.7970    0.5810   -6.8990 ca        1 553      0.882900
     19 N2          3.0080    0.6060   -7.5940 nb        1 553     -0.754000
     20 N20         0.6270    0.7770   -7.6290 nv        1 553     -0.932500
     21 HN14        1.4420    0.0210    2.0510 hn        1 553      0.319500
     22 H13         3.6640    1.0940    1.3320 h1        1 553      0.040200
     23 H13A        3.7100   -0.5420    2.1370 h1        1 553      0.040200
     24 H12         4.0760   -1.7010    0.0780 hc        1 553      0.077700
     25 H16         6.0470   -0.5130   -0.9380 hc        1 553      0.061200
     26 H16A        5.5680    1.0200   -0.1080 hc        1 553      0.061200
     27 H17         6.1450   -1.6560    1.3690 h1        1 553      0.045700
     28 H17A        5.9100   -0.0030    2.1150 h1        1 553      0.045700
     29 H9          0.5660    0.6410   -2.9160 ha        1 553      0.187000
     30 H6          5.0360    0.3490   -4.8850 ha        1 553      0.141000
     31 H1          5.0670    0.5500   -7.3980 h4        1 553      0.025100
     32 HN20       -0.2330    0.5510   -7.1870 hn        1 553      0.434300
     33 HN2A        0.6780    0.6580   -8.6130 hn        1 553      0.434300
     34 HN8         4.7070   -0.3490   -2.8400 hn        1 553      0.302700
@<TRIPOS>BOND
     1    1    2 2   
     2    2    3 1   
     3    2   11 1   
     4    3    4 1   
     5    3   21 1   
     6    4    5 1   
     7    4   22 1   
     8    4   23 1   
     9    5    6 1   
    10    5    9 1   
    11    5   24 1   
    12    6    7 1   
    13    6   25 1   
    14    6   26 1   
    15    7    8 1   
    16    7   27 1   
    17    7   28 1   
    18    9   10 1   
    19    9   11 2   
    20   10   13 1   
    21   10   34 1   
    22   11   12 1   
    23   12   13 2   
    24   12   29 1   
    25   13   14 1   
    26   14   15 ar  
    27   14   17 ar  
    28   15   16 ar  
    29   15   30 1   
    30   16   19 ar  
    31   16   31 1   
    32   17   18 ar  
    33   18   19 ar  
    34   18   20 1   
    35   20   32 1   
    36   20   33 1   
@<TRIPOS>SUBSTRUCTURE
     1 553         1 TEMP              0 ****  ****    0 ROOT
