@<TRIPOS>MOLECULE
553
   34    36     1     0     0
SMALL
bcc


@<TRIPOS>ATOM
      1 O19        -1.4290   -3.8240    0.1460 o         1 553     -0.632500
      2 C15        -1.7480   -2.6200    0.1290 c         1 553      0.741100
      3 N14        -3.0990   -2.2640    0.1420 n         1 553     -0.578900
      4 C13        -3.5410   -0.9390   -0.1840 c3        1 553      0.107000
      5 C12        -2.6740    0.2090    0.3890 c3        1 553     -0.008400
      6 C16        -3.0050    1.5180   -0.3040 c3        1 553     -0.119400
      7 C17        -4.4680    1.9080   -0.0950 c3        1 553      0.159900
      8 F18        -4.7120    3.1920   -0.5400 f         1 553     -0.241300
      9 C11        -1.2430   -0.1620    0.2550 cc        1 553     -0.058600
     10 N8         -0.1360    0.6590    0.2660 na        1 553     -0.143100
     11 C10        -0.8040   -1.5060    0.1470 cd        1 553     -0.226600
     12 C9          0.6200   -1.4930    0.0780 cd        1 553     -0.046000
     13 C7          1.0170   -0.1410    0.1520 cc        1 553     -0.219800
     14 C5          2.3720    0.4020    0.1230 ca        1 553      0.573800
     15 C6          2.6280    1.7360    0.5180 ca        1 553     -0.443600
     16 C1          3.9660    2.1650    0.4780 ca        1 553      0.475200
     17 N4          3.3620   -0.4310   -0.2830 nb        1 553     -0.753000
     18 C3          4.6470    0.0950   -0.3070 ca        1 553      0.882900
     19 N2          4.9850    1.3920    0.0860 nb        1 553     -0.754000
     20 N20         5.6620   -0.7130   -0.8140 nh        1 553     -0.932500
     21 HN14       -3.7640   -2.9950    0.0340 hn        1 553      0.319500
     22 H13        -3.5900   -0.8090   -1.3070 h1        1 553      0.040200
     23 H13A       -4.5870   -0.8140    0.2210 h1        1 553      0.040200
     24 H12        -2.9020    0.3110    1.4910 hc        1 553      0.077700
     25 H16        -2.3580    2.3380    0.1050 hc        1 553      0.061200
     26 H16A       -2.7940    1.4420   -1.4030 hc        1 553      0.061200
     27 H17        -5.1380    1.2010   -0.6580 h1        1 553      0.045700
     28 H17A       -4.7260    1.8530    1.0000 h1        1 553      0.045700
     29 H9          1.2760   -2.3570   -0.0140 ha        1 553      0.186000
     30 H6          1.8430    2.4120    0.8650 ha        1 553      0.141000
     31 H1          4.2410    3.1920    0.7850 h4        1 553      0.026100
     32 HN20        5.4780   -1.6850   -0.8910 hn        1 553      0.434300
     33 HN2A        6.5980   -0.4410   -0.6270 hn        1 553      0.434300
     34 HN8        -0.1430    1.6450    0.3020 hn        1 553      0.302700
@<TRIPOS>BOND
     1    1    2 2   
     2    2    3 1   
     3    2   11 1   
     4    3    4 1   
     5    3   21 1   
     6    4    5 1   
     7    4   22 1   
     8    4   23 1   
     9    5    6 1   
    10    5    9 1   
    11    5   24 1   
    12    6    7 1   
    13    6   25 1   
    14    6   26 1   
    15    7    8 1   
    16    7   27 1   
    17    7   28 1   
    18    9   10 1   
    19    9   11 2   
    20   10   13 1   
    21   10   34 1   
    22   11   12 1   
    23   12   13 2   
    24   12   29 1   
    25   13   14 1   
    26   14   15 ar  
    27   14   17 ar  
    28   15   16 ar  
    29   15   30 1   
    30   16   19 ar  
    31   16   31 1   
    32   17   18 ar  
    33   18   19 ar  
    34   18   20 1   
    35   20   32 1   
    36   20   33 1   
@<TRIPOS>SUBSTRUCTURE
     1 553         1 TEMP              0 ****  ****    0 ROOT
