@<TRIPOS>MOLECULE
555
   33    35     1     0     0
SMALL
bcc


@<TRIPOS>ATOM
      1 C1         -0.0130   -0.0970   -0.0660 ca        1 555     -0.121000
      2 C2          1.3990   -0.1610   -0.0380 ca        1 555     -0.132000
      3 C3          2.0690   -0.0500    1.1550 ca        1 555     -0.115000
      4 C4          1.3650    0.1330    2.3780 ca        1 555     -0.031000
      5 C5         -0.0530    0.2340    2.3460 ca        1 555     -0.013000
      6 C6         -0.7190    0.0950    1.0960 ca        1 555     -0.127000
      7 C7         -0.7660    0.4600    3.5640 ca        1 555     -0.152900
      8 C8         -0.0760    0.5470    4.7570 ca        1 555     -0.090000
      9 C9          1.3290    0.4360    4.7880 ca        1 555     -0.128000
     10 C10         2.0500    0.2280    3.6290 cp        1 555     -0.008000
     11 C11         3.5070    0.1040    3.7080 cp        1 555     -0.083000
     12 C12         4.1520   -1.0670    3.2890 ca        1 555     -0.080500
     13 C13         5.5340   -1.1920    3.3960 ca        1 555     -0.187500
     14 C14         6.2810   -0.1310    3.9280 ca        1 555      0.128100
     15 C15         5.6490    1.0490    4.3550 ca        1 555     -0.187500
     16 C16         4.2680    1.1540    4.2450 ca        1 555     -0.080500
     17 O1          7.6490   -0.1790    4.0630 oh        1 555     -0.496100
     18 C17        -2.2200    0.6350    3.5370 ce        1 555      0.409800
     19 N1         -3.1370    0.3150    4.4000 n2        1 555     -0.444200
     20 O2         -2.7780   -0.2820    5.5130 oh        1 555     -0.356500
     21 H1         -0.5360   -0.2030   -1.0280 ha        1 555      0.133000
     22 H2          1.9500   -0.3000   -0.9800 ha        1 555      0.134000
     23 H3          3.1690   -0.0980    1.1830 ha        1 555      0.142000
     24 H6         -1.8180    0.1310    1.0660 ha        1 555      0.134000
     25 H8         -0.6180    0.7020    5.7040 ha        1 555      0.150000
     26 H9          1.8470    0.5110    5.7560 ha        1 555      0.140000
     27 H12         3.5590   -1.8970    2.8750 ha        1 555      0.142000
     28 H13         6.0350   -2.1140    3.0700 ha        1 555      0.144500
     29 H15         6.2530    1.8690    4.7690 ha        1 555      0.144500
     30 H16         3.7630    2.0730    4.5800 ha        1 555      0.142000
     31 HO1         7.9500   -1.0410    3.7410 ho        1 555      0.420000
     32 H17        -2.6320    1.1490    2.6430 h4        1 555      0.031800
     33 HO2        -3.6200   -0.4760    5.9720 ho        1 555      0.438000
@<TRIPOS>BOND
     1    1    2 ar  
     2    1    6 ar  
     3    1   21 1   
     4    2    3 ar  
     5    2   22 1   
     6    3    4 ar  
     7    3   23 1   
     8    4    5 ar  
     9    4   10 ar  
    10    5    6 ar  
    11    5    7 ar  
    12    6   24 1   
    13    7    8 ar  
    14    7   18 1   
    15    8    9 ar  
    16    8   25 1   
    17    9   10 ar  
    18    9   26 1   
    19   10   11 1   
    20   11   12 ar  
    21   11   16 ar  
    22   12   13 ar  
    23   12   27 1   
    24   13   14 ar  
    25   13   28 1   
    26   14   15 ar  
    27   14   17 1   
    28   15   16 ar  
    29   15   29 1   
    30   16   30 1   
    31   17   31 1   
    32   18   19 2   
    33   18   32 1   
    34   19   20 1   
    35   20   33 1   
@<TRIPOS>SUBSTRUCTURE
     1 555         1 TEMP              0 ****  ****    0 ROOT
