@<TRIPOS>MOLECULE
555
   33    35     1     0     0
SMALL
bcc


@<TRIPOS>ATOM
      1 C1          0.2880   -1.0960   -0.2900 ca        1 555     -0.121000
      2 C2         -0.5640   -2.1140    0.1970 ca        1 555     -0.130000
      3 C3         -0.0830   -3.3870    0.3770 ca        1 555     -0.116000
      4 C4          1.2720   -3.7080    0.0820 ca        1 555     -0.028000
      5 C5          2.1350   -2.6770   -0.3780 ca        1 555     -0.018000
      6 C6          1.6030   -1.3710   -0.5700 ca        1 555     -0.125000
      7 C7          3.5060   -2.9800   -0.6420 ca        1 555     -0.121900
      8 C8          3.9740   -4.2660   -0.4700 ca        1 555     -0.094000
      9 C9          3.1140   -5.2900   -0.0230 ca        1 555     -0.127000
     10 C10         1.7840   -5.0330    0.2470 cp        1 555     -0.010000
     11 C11         0.9220   -6.1280    0.6960 cp        1 555     -0.082000
     12 C12         1.2410   -6.8340    1.8630 ca        1 555     -0.080500
     13 C13         0.4470   -7.8940    2.2920 ca        1 555     -0.187500
     14 C14        -0.6770   -8.2570    1.5370 ca        1 555      0.128100
     15 C15        -1.0070   -7.5650    0.3590 ca        1 555     -0.187500
     16 C16        -0.2060   -6.5060   -0.0500 ca        1 555     -0.080500
     17 O1         -1.5090   -9.2930    1.8930 oh        1 555     -0.496100
     18 C17         4.4130   -1.9020   -1.0540 ce        1 555      0.399800
     19 N1          5.2840   -2.0650   -2.0120 n2        1 555     -0.435200
     20 O2          6.0460   -1.0200   -2.2590 oh        1 555     -0.359500
     21 H1         -0.1170   -0.0840   -0.4410 ha        1 555      0.134000
     22 H2         -1.6120   -1.8730    0.4280 ha        1 555      0.134000
     23 H3         -0.7420   -4.1840    0.7580 ha        1 555      0.143000
     24 H6          2.2610   -0.5780   -0.9570 ha        1 555      0.136000
     25 H8          5.0270   -4.5120   -0.6800 ha        1 555      0.145000
     26 H9          3.5160   -6.3070    0.1030 ha        1 555      0.139000
     27 H12         2.1280   -6.5450    2.4490 ha        1 555      0.141500
     28 H13         0.6990   -8.4410    3.2110 ha        1 555      0.144500
     29 H15        -1.8890   -7.8700   -0.2210 ha        1 555      0.144500
     30 H16        -0.4540   -5.9590   -0.9730 ha        1 555      0.141500
     31 HO1        -1.1680   -9.6820    2.7120 ho        1 555      0.420000
     32 H17         4.3130   -0.9520   -0.4870 h4        1 555      0.008800
     33 HO2         6.6150   -1.3020   -3.0030 ho        1 555      0.440000
@<TRIPOS>BOND
     1    1    2 ar  
     2    1    6 ar  
     3    1   21 1   
     4    2    3 ar  
     5    2   22 1   
     6    3    4 ar  
     7    3   23 1   
     8    4    5 ar  
     9    4   10 ar  
    10    5    6 ar  
    11    5    7 ar  
    12    6   24 1   
    13    7    8 ar  
    14    7   18 1   
    15    8    9 ar  
    16    8   25 1   
    17    9   10 ar  
    18    9   26 1   
    19   10   11 1   
    20   11   12 ar  
    21   11   16 ar  
    22   12   13 ar  
    23   12   27 1   
    24   13   14 ar  
    25   13   28 1   
    26   14   15 ar  
    27   14   17 1   
    28   15   16 ar  
    29   15   29 1   
    30   16   30 1   
    31   17   31 1   
    32   18   19 2   
    33   18   32 1   
    34   19   20 1   
    35   20   33 1   
@<TRIPOS>SUBSTRUCTURE
     1 555         1 TEMP              0 ****  ****    0 ROOT
