@<TRIPOS>MOLECULE
555
   33    26     1     0     0
SMALL
bcc


@<TRIPOS>ATOM
      1 C1         -1.9480    0.0360   -3.2180 c1        1 555     -0.123167
      2 C2         -0.5630   -0.1010   -3.2560 c1        1 555     -0.123167
      3 C3          0.1590   -0.1870   -2.0730 c1        1 555     -0.123167
      4 C4         -0.5090   -0.1370   -0.8340 c1        1 555     -0.031000
      5 C5         -1.8770   -0.0020   -0.7970 c1        1 555     -0.013000
      6 C6         -2.6080    0.0860   -1.9970 c1        1 555     -0.123167
      7 C7         -2.5460    0.0330    0.4410 c2        1 555     -0.069000
      8 C8         -1.8250   -0.0680    1.6230 c1        1 555     -0.090000
      9 C9         -0.4410   -0.2040    1.5850 c1        1 555     -0.128000
     10 C10         0.2200   -0.2390    0.3650 c1        1 555     -0.008000
     11 C11         1.5880   -0.2530    0.5960 c1        1 555     -0.083000
     12 C12         2.2710   -1.4580    0.6380 c1        1 555     -0.123167
     13 C13         3.6490   -1.4700    0.7900 c1        1 555     -0.123167
     14 C14         4.3440   -0.2750    0.9000 c1        1 555      0.083000
     15 C15         3.6620    0.9300    0.8580 c1        1 555     -0.216000
     16 C16         2.2840    0.9420    0.7050 c1        1 555     -0.077000
     17 O1          5.7500   -0.2840    0.9770 oh        1 555     -0.250000
     18 C17        -3.4440    1.2390    0.6150 c2        1 555     -0.091000
     19 N1         -4.6500    1.0900    1.0940 n1        1 555     -0.058000
     20 O2         -5.1010   -0.1540    1.4370 o         1 555     -0.254000
     21 H1         -2.4550    0.0970   -4.0490 ha        1 555      0.140167
     22 H2         -0.1000   -0.1360   -4.1140 ha        1 555      0.140167
     23 H3          1.1300   -0.2830   -2.1000 ha        1 555      0.140167
     24 H6         -3.5780    0.1810   -1.9710 ha        1 555      0.140167
     25 H8         -2.2900   -0.0430    2.4820 ha        1 555      0.150000
     26 H9          0.0660   -0.2760    2.4180 ha        1 555      0.139000
     27 H12         1.7820   -2.2990    0.5610 ha        1 555      0.140167
     28 H13         4.1300   -2.3190    0.8200 ha        1 555      0.140167
     29 H15         4.1510    1.7710    0.9350 ha        1 555      0.135000
     30 H16         1.8030    1.7900    0.6760 ha        1 555      0.139000
     31 HO1         6.0040   -0.0410    1.7940 ho        1 555      0.219000
     32 H17        -3.1210    2.1280    0.3700 h4        1 555      0.161000
     33 HO2        -5.9390   -0.0950    1.7280 ho        1 555      0.237000
@<TRIPOS>BOND
     1    1    6 1   
     2    1   21 1   
     3    2    3 1   
     4    2   22 1   
     5    3   23 1   
     6    4    5 1   
     7    4   10 1   
     8    5    7 1   
     9    6   24 1   
    10    7    8 1   
    11    7   18 1   
    12    8   25 1   
    13    9   10 1   
    14    9   26 1   
    15   11   16 1   
    16   12   13 1   
    17   12   27 1   
    18   13   28 1   
    19   14   15 1   
    20   14   17 1   
    21   15   29 1   
    22   16   30 1   
    23   17   31 1   
    24   18   19 1   
    25   18   32 1   
    26   20   33 1   
@<TRIPOS>SUBSTRUCTURE
     1 555         1 TEMP              0 ****  ****    0 ROOT
