@<TRIPOS>MOLECULE
555
   33    35     1     0     0
SMALL
bcc


@<TRIPOS>ATOM
      1 C1         -0.0060    0.0090   -0.0740 ca        1 555     -0.121000
      2 C2          1.4070   -0.0520   -0.0450 ca        1 555     -0.132000
      3 C3          2.0730    0.0180    1.1520 ca        1 555     -0.115000
      4 C4          1.3660    0.1580    2.3800 ca        1 555     -0.031000
      5 C5         -0.0510    0.2570    2.3480 ca        1 555     -0.013000
      6 C6         -0.7140    0.1590    1.0920 ca        1 555     -0.127000
      7 C7         -0.7680    0.4390    3.5710 ca        1 555     -0.152900
      8 C8         -0.0810    0.4870    4.7680 ca        1 555     -0.090000
      9 C9          1.3240    0.3780    4.7980 ca        1 555     -0.128000
     10 C10         2.0480    0.2110    3.6350 cp        1 555     -0.008000
     11 C11         3.5060    0.0880    3.7120 cp        1 555     -0.083000
     12 C12         4.1540   -1.0670    3.2550 ca        1 555     -0.080500
     13 C13         5.5360   -1.1930    3.3610 ca        1 555     -0.187500
     14 C14         6.2790   -0.1490    3.9300 ca        1 555      0.128100
     15 C15         5.6450    1.0150    4.3960 ca        1 555     -0.187500
     16 C16         4.2630    1.1210    4.2870 ca        1 555     -0.080500
     17 O1          7.6470   -0.1990    4.0660 oh        1 555     -0.496100
     18 C17        -2.2220    0.6130    3.5470 ce        1 555      0.409800
     19 N1         -3.1400    0.2620    4.3970 n2        1 555     -0.444200
     20 O2         -2.7820   -0.3720    5.4890 oh        1 555     -0.356500
     21 H1         -0.5260   -0.0650   -1.0400 ha        1 555      0.133000
     22 H2          1.9600   -0.1580   -0.9900 ha        1 555      0.134000
     23 H3          3.1740   -0.0280    1.1810 ha        1 555      0.142000
     24 H6         -1.8140    0.1940    1.0610 ha        1 555      0.134000
     25 H8         -0.6250    0.6090    5.7180 ha        1 555      0.150000
     26 H9          1.8410    0.4200    5.7700 ha        1 555      0.140000
     27 H12         3.5630   -1.8830    2.8110 ha        1 555      0.142000
     28 H13         6.0400   -2.1020    3.0040 ha        1 555      0.144500
     29 H15         6.2460    1.8210    4.8390 ha        1 555      0.144500
     30 H16         3.7550    2.0270    4.6520 ha        1 555      0.142000
     31 HO1         7.9520   -1.0480    3.7160 ho        1 555      0.420000
     32 H17        -2.6340    1.1560    2.6700 h4        1 555      0.031800
     33 HO2        -3.6250   -0.5840    5.9390 ho        1 555      0.438000
@<TRIPOS>BOND
     1    1    2 ar  
     2    1    6 ar  
     3    1   21 1   
     4    2    3 ar  
     5    2   22 1   
     6    3    4 ar  
     7    3   23 1   
     8    4    5 ar  
     9    4   10 ar  
    10    5    6 ar  
    11    5    7 ar  
    12    6   24 1   
    13    7    8 ar  
    14    7   18 1   
    15    8    9 ar  
    16    8   25 1   
    17    9   10 ar  
    18    9   26 1   
    19   10   11 1   
    20   11   12 ar  
    21   11   16 ar  
    22   12   13 ar  
    23   12   27 1   
    24   13   14 ar  
    25   13   28 1   
    26   14   15 ar  
    27   14   17 1   
    28   15   16 ar  
    29   15   29 1   
    30   16   30 1   
    31   17   31 1   
    32   18   19 2   
    33   18   32 1   
    34   19   20 1   
    35   20   33 1   
@<TRIPOS>SUBSTRUCTURE
     1 555         1 TEMP              0 ****  ****    0 ROOT
