@<TRIPOS>MOLECULE
556
   23    25     1     0     0
SMALL
bcc


@<TRIPOS>ATOM
      1 CAF        -0.0180    0.1100   -0.0340 c3        1 556     -0.102700
      2 CAE         1.4900   -0.1930    0.0900 c3        1 556     -0.095400
      3 CAG         1.9310    0.1940    1.5300 c3        1 556      0.041300
      4 NAM         0.7370    0.6830    2.1670 na        1 556     -0.219900
      5 CAK        -0.3910    0.6510    1.3080 cc        1 556      0.387800
      6 NAH        -1.4990    1.1140    1.9230 nd        1 556     -0.643000
      7 CAD        -1.0810    1.4530    3.2080 cd        1 556      0.308200
      8 CAL         0.3090    1.1960    3.3900 cc        1 556     -0.106600
      9 CAJ         1.1100    1.4070    4.5520 cc        1 556     -0.020100
     10 SAI         2.7650    1.0710    4.6520 ss        1 556     -0.008800
     11 CAB         2.8870    1.5760    6.2390 cc        1 556     -0.164100
     12 CAA         1.6780    2.0110    6.7320 cd        1 556     -0.148000
     13 CAC         0.6410    1.9150    5.7540 cd        1 556     -0.147000
     14 H1         -0.2180    0.8660   -0.8340 hc        1 556      0.074700
     15 H2         -0.6030   -0.8140   -0.2640 hc        1 556      0.074700
     16 H3          1.6880   -1.2770   -0.0870 hc        1 556      0.059700
     17 H4          2.0720    0.3990   -0.6550 hc        1 556      0.059700
     18 H5          2.7220    0.9920    1.5100 h1        1 556      0.060700
     19 H6          2.3340   -0.6980    2.0830 h1        1 556      0.060700
     20 H7         -1.7730    1.8610    3.9430 h4        1 556      0.043100
     21 H8          3.8260    1.5510    6.7890 h4        1 556      0.172000
     22 H9          1.5080    2.3880    7.7430 ha        1 556      0.156000
     23 H10        -0.3930    2.2090    5.9430 ha        1 556      0.159000
@<TRIPOS>BOND
     1    1    2 1   
     2    1    5 1   
     3    1   14 1   
     4    1   15 1   
     5    2    3 1   
     6    2   16 1   
     7    2   17 1   
     8    3    4 1   
     9    3   18 1   
    10    3   19 1   
    11    4    5 1   
    12    4    8 1   
    13    5    6 2   
    14    6    7 1   
    15    7    8 2   
    16    7   20 1   
    17    8    9 1   
    18    9   10 1   
    19    9   13 2   
    20   10   11 1   
    21   11   12 2   
    22   11   21 1   
    23   12   13 1   
    24   12   22 1   
    25   13   23 1   
@<TRIPOS>SUBSTRUCTURE
     1 556         1 TEMP              0 ****  ****    0 ROOT
