@<TRIPOS>MOLECULE
556
   23    20     1     0     0
SMALL
bcc


@<TRIPOS>ATOM
      1 CAF        -1.0680    0.1650   -3.0180 c3        1 556     -0.083700
      2 CAE         0.3670    0.1760   -3.0640 c3        1 556     -0.095400
      3 CAG         0.8560    0.1200   -1.6840 c3        1 556      0.218800
      4 NAM        -0.3420    0.0530   -0.7760 nh        1 556     -0.541200
      5 CAK        -1.4940    0.1260   -1.5660 c2        1 556      0.457200
      6 NAH        -2.5650    0.1330   -0.7430 ne        1 556     -0.456700
      7 CAD        -2.1130    0.0680    0.5390 cg        1 556     -0.105000
      8 CAL        -0.7200    0.0180    0.5030 c1        1 556      0.038800
      9 CAJ         0.2070   -0.1900    1.7110 c1        1 556     -0.136900
     10 SAI         0.9610   -1.5020    2.0680 ss        1 556      0.080800
     11 CAB         1.6530   -1.2870    3.4460 c1        1 556     -0.136900
     12 CAA         1.3450    0.0520    3.8930 cg        1 556     -0.147500
     13 CAC         0.4230    0.7520    2.7870 cg        1 556     -0.147500
     14 H1         -1.3970   -0.6060   -3.4710 hc        1 556      0.074700
     15 H2         -1.4220    0.9830   -3.4490 hc        1 556      0.074700
     16 H3          0.6720   -0.6290   -3.5350 hc        1 556      0.059700
     17 H4          0.6440    0.9780   -3.4430 hc        1 556      0.059700
     18 H5          1.3720    0.9860   -1.4870 h1        1 556      0.060700
     19 H6          1.3610   -0.6780   -1.5750 h1        1 556      0.060700
     20 H7         -2.6650    0.0790    1.3400 DU        1 556      0.166750
     21 H8          2.1890   -1.9290    3.9160 DU        1 556      0.166750
     22 H9          1.6660    0.4860    4.7790 DU        1 556      0.166750
     23 H10         0.0710    1.6460    2.8310 DU        1 556      0.166750
@<TRIPOS>BOND
     1    1    2 1   
     2    1    5 1   
     3    1   14 1   
     4    1   15 1   
     5    2    3 1   
     6    2   16 1   
     7    2   17 1   
     8    3    4 1   
     9    3   18 1   
    10    3   19 1   
    11    4    5 1   
    12    4    8 1   
    13    5    6 2   
    14    6    7 1   
    15    7    8 3   
    16    9   10 1   
    17    9   13 3   
    18   10   11 1   
    19   11   12 3   
    20   12   13 1   
@<TRIPOS>SUBSTRUCTURE
     1 556         1 TEMP              0 ****  ****    0 ROOT
