@<TRIPOS>MOLECULE
556
   23    25     1     0     0
SMALL
bcc


@<TRIPOS>ATOM
      1 CAF         3.5930   -0.2230    0.0140 c3        1 556     -0.102700
      2 CAE         3.0260   -1.6570    0.0330 c3        1 556     -0.095400
      3 CAG         1.4750   -1.5500    0.0220 c3        1 556      0.041300
      4 NAM         1.1980   -0.1380   -0.0020 na        1 556     -0.219900
      5 CAK         2.3790    0.6470   -0.0070 cc        1 556      0.387800
      6 NAH         2.0990    1.9680   -0.0290 nd        1 556     -0.643000
      7 CAD         0.7080    2.0390   -0.0380 cd        1 556      0.308200
      8 CAL         0.1170    0.7420   -0.0210 cc        1 556     -0.106600
      9 CAJ        -1.2660    0.3910   -0.0240 cc        1 556     -0.020100
     10 SAI        -1.8540   -1.1950   -0.0030 ss        1 556     -0.008800
     11 CAB        -3.4550   -0.7210   -0.0200 cc        1 556     -0.164100
     12 CAA        -3.5830    0.6500   -0.0420 cd        1 556     -0.148000
     13 CAC        -2.3120    1.3010   -0.0440 cd        1 556     -0.147000
     14 H1          4.2120   -0.0160    0.9220 hc        1 556      0.074700
     15 H2          4.2230   -0.0440   -0.8930 hc        1 556      0.074700
     16 H3          3.3710   -2.2270   -0.8630 hc        1 556      0.059700
     17 H4          3.3610   -2.2000    0.9490 hc        1 556      0.059700
     18 H5          1.0410   -2.0510   -0.8860 h1        1 556      0.060700
     19 H6          1.0300   -2.0230    0.9400 h1        1 556      0.060700
     20 H7          0.1860    2.9950   -0.0560 h4        1 556      0.043100
     21 H8         -4.2770   -1.4350   -0.0130 h4        1 556      0.172000
     22 H9         -4.5290    1.1950   -0.0560 ha        1 556      0.156000
     23 H10        -2.1920    2.3860   -0.0600 ha        1 556      0.159000
@<TRIPOS>BOND
     1    1    2 1   
     2    1    5 1   
     3    1   14 1   
     4    1   15 1   
     5    2    3 1   
     6    2   16 1   
     7    2   17 1   
     8    3    4 1   
     9    3   18 1   
    10    3   19 1   
    11    4    5 1   
    12    4    8 1   
    13    5    6 2   
    14    6    7 1   
    15    7    8 2   
    16    7   20 1   
    17    8    9 1   
    18    9   10 1   
    19    9   13 2   
    20   10   11 1   
    21   11   12 2   
    22   11   21 1   
    23   12   13 1   
    24   12   22 1   
    25   13   23 1   
@<TRIPOS>SUBSTRUCTURE
     1 556         1 TEMP              0 ****  ****    0 ROOT
