@<TRIPOS>MOLECULE
556
   23    25     1     0     0
SMALL
bcc


@<TRIPOS>ATOM
      1 CAF        -0.0040    0.1200   -0.0410 c3        1 556     -0.102700
      2 CAE         1.5020   -0.1860    0.0890 c3        1 556     -0.095400
      3 CAG         1.9370    0.1960    1.5320 c3        1 556      0.041300
      4 NAM         0.7410    0.6860    2.1650 na        1 556     -0.219900
      5 CAK        -0.3830    0.6570    1.3000 cc        1 556      0.387800
      6 NAH        -1.4940    1.1200    1.9120 nd        1 556     -0.643000
      7 CAD        -1.0810    1.4550    3.2000 cd        1 556      0.308200
      8 CAL         0.3070    1.1960    3.3880 cc        1 556     -0.106600
      9 CAJ         1.1030    1.4010    4.5550 cc        1 556     -0.020100
     10 SAI         2.7550    1.0550    4.6630 ss        1 556     -0.008800
     11 CAB         2.8720    1.5590    6.2510 cc        1 556     -0.164100
     12 CAA         1.6620    2.0010    6.7380 cd        1 556     -0.148000
     13 CAC         0.6300    1.9110    5.7540 cd        1 556     -0.147000
     14 H1         -0.1990    0.8790   -0.8400 hc        1 556      0.074700
     15 H2         -0.5900   -0.8030   -0.2770 hc        1 556      0.074700
     16 H3          2.0890    0.4070   -0.6510 hc        1 556      0.059700
     17 H4          1.6990   -1.2700   -0.0900 hc        1 556      0.059700
     18 H5          2.3360   -0.6980    2.0850 h1        1 556      0.060700
     19 H6          2.7290    0.9930    1.5190 h1        1 556      0.060700
     20 H7         -1.7760    1.8620    3.9330 h4        1 556      0.043100
     21 H8          3.8070    1.5280    6.8070 h4        1 556      0.172000
     22 H9          1.4890    2.3790    7.7480 ha        1 556      0.156000
     23 H10        -0.4030    2.2120    5.9370 ha        1 556      0.159000
@<TRIPOS>BOND
     1    1    2 1   
     2    1    5 1   
     3    1   14 1   
     4    1   15 1   
     5    2    3 1   
     6    2   16 1   
     7    2   17 1   
     8    3    4 1   
     9    3   18 1   
    10    3   19 1   
    11    4    5 1   
    12    4    8 1   
    13    5    6 2   
    14    6    7 1   
    15    7    8 2   
    16    7   20 1   
    17    8    9 1   
    18    9   10 1   
    19    9   13 2   
    20   10   11 1   
    21   11   12 2   
    22   11   21 1   
    23   12   13 1   
    24   12   22 1   
    25   13   23 1   
@<TRIPOS>SUBSTRUCTURE
     1 556         1 TEMP              0 ****  ****    0 ROOT
