@<TRIPOS>MOLECULE
557
   50    51     1     0     0
SMALL
bcc


@<TRIPOS>ATOM
      1 C1         -0.4730   -0.0520   -0.3040 ca        1 557     -0.126500
      2 C2          0.0140    0.3180    2.0540 ca        1 557     -0.126500
      3 C3          1.3720    0.3540    1.7560 ca        1 557     -0.100000
      4 C4          1.8230    0.1930    0.4410 ca        1 557     -0.135300
      5 C5          0.8890   -0.0060   -0.5810 ca        1 557     -0.100000
      6 C6          3.2880    0.2420    0.1480 c3        1 557     -0.018400
      7 C7          3.6110    1.2250   -0.9580 c3        1 557     -0.116100
      8 C9          3.7390   -1.1830   -0.2150 c3        1 557      0.088800
      9 N10         5.1980   -1.3140   -0.4580 ny        1 557     -0.710900
     10 S11         5.6200   -3.0810   -0.9170 s6        1 557      1.358900
     11 C12        -0.9280    0.1120    1.0230 ca        1 557      0.058800
     12 N13        -2.3190    0.0670    1.3050 na        1 557      0.147300
     13 N14        -2.8160   -0.2460    2.5160 nc        1 557     -0.447800
     14 C15        -4.1700   -0.1920    2.4030 cd        1 557      0.236600
     15 C16        -4.5540    0.1780    1.0530 cd        1 557     -0.193600
     16 C17        -3.3440    0.3370    0.3720 cc        1 557     -0.098300
     17 C18        -5.0840   -0.4940    3.5770 c3        1 557      0.631600
     18 F19        -4.9500   -1.7660    4.0720 f         1 557     -0.224300
     19 F20        -4.8890    0.3260    4.6590 f         1 557     -0.224300
     20 F21        -6.4200   -0.3730    3.2870 f         1 557     -0.224300
     21 O22        -5.8260    0.6780   -0.8540 oh        1 557     -0.607800
     22 C23        -5.9200    0.3470    0.5260 c3        1 557      0.200700
     23 O24         4.8900   -3.2650   -2.0750 o         1 557     -0.548800
     24 C25         7.2690   -2.8660   -1.2070 c3        1 557     -0.322900
     25 C26         8.0520   -2.4010    0.0040 c3        1 557     -0.100600
     26 C27         7.8190   -4.2060   -1.6870 c3        1 557     -0.100600
     27 O28         5.3330   -3.7650    0.2470 o         1 557     -0.548800
     28 H1         -1.1840   -0.2230   -1.1290 ha        1 557      0.169000
     29 H2         -0.3120    0.4490    3.1000 ha        1 557      0.169000
     30 H3          2.0910    0.5220    2.5730 ha        1 557      0.139500
     31 H5          1.2250   -0.1240   -1.6230 ha        1 557      0.139500
     32 H6          3.8330    0.5650    1.0830 hc        1 557      0.070700
     33 H7          3.0910    2.1960   -0.7610 hc        1 557      0.055367
     34 H7A         4.7080    1.4310   -1.0060 hc        1 557      0.055367
     35 H7B         3.2690    0.8460   -1.9510 hc        1 557      0.055367
     36 H9          3.2030   -1.5110   -1.1550 hx        1 557      0.118700
     37 H9A         3.4670   -1.8820    0.6310 hx        1 557      0.118700
     38 HN10        5.6920   -1.0220    0.3860 hn        1 557      0.452800
     39 H17        -3.1570    0.6270   -0.6620 h4        1 557      0.203000
     40 HO22       -6.7310    0.8060   -1.1620 ho        1 557      0.417000
     41 H23        -6.5030   -0.6080    0.6540 h1        1 557      0.053700
     42 H23A       -6.4480    1.1690    1.0870 h1        1 557      0.053700
     43 H25         7.4700   -2.1340   -2.0450 h1        1 557      0.149700
     44 H26         7.9220   -1.3060    0.1760 hc        1 557      0.080033
     45 H26A        9.1460   -2.5840   -0.1540 hc        1 557      0.080033
     46 H26B        7.7450   -2.9690    0.9190 hc        1 557      0.080033
     47 H27         8.8910   -4.0900   -1.9840 hc        1 557      0.080033
     48 H27A        7.2530   -4.5680   -2.5820 hc        1 557      0.080033
     49 H27B        7.7720   -4.9680   -0.8690 hc        1 557      0.080033
     50 H102        5.4550   -0.6550   -1.1950 hn        1 557      0.452800
@<TRIPOS>BOND
     1    1    5 ar  
     2    1   11 ar  
     3    1   28 1   
     4    2    3 ar  
     5    2   11 ar  
     6    2   29 1   
     7    3    4 ar  
     8    3   30 1   
     9    4    5 ar  
    10    4    6 1   
    11    5   31 1   
    12    6    7 1   
    13    6    8 1   
    14    6   32 1   
    15    7   33 1   
    16    7   34 1   
    17    7   35 1   
    18    8    9 1   
    19    8   36 1   
    20    8   37 1   
    21    9   10 1   
    22    9   38 1   
    23    9   50 1   
    24   10   23 2   
    25   10   24 1   
    26   10   27 2   
    27   11   12 1   
    28   12   13 1   
    29   12   16 1   
    30   13   14 2   
    31   14   15 1   
    32   14   17 1   
    33   15   16 2   
    34   15   22 1   
    35   16   39 1   
    36   17   18 1   
    37   17   19 1   
    38   17   20 1   
    39   21   22 1   
    40   21   40 1   
    41   22   41 1   
    42   22   42 1   
    43   24   25 1   
    44   24   26 1   
    45   24   43 1   
    46   25   44 1   
    47   25   45 1   
    48   25   46 1   
    49   26   47 1   
    50   26   48 1   
    51   26   49 1   
@<TRIPOS>SUBSTRUCTURE
     1 557         1 TEMP              0 ****  ****    0 ROOT
