@<TRIPOS>MOLECULE
557
   50    51     1     0     0
SMALL
bcc


@<TRIPOS>ATOM
      1 C1         -0.4060    0.2130   -0.1820 ca        1 557     -0.128000
      2 C2         -0.0350    0.0250    2.2170 ca        1 557     -0.128000
      3 C3          1.3380    0.0450    1.9940 ca        1 557     -0.099000
      4 C4          1.8540    0.1410    0.6980 ca        1 557     -0.136300
      5 C5          0.9700    0.2260   -0.3830 ca        1 557     -0.099000
      6 C6          3.3340    0.1740    0.4880 c3        1 557     -0.018400
      7 C7          3.7590    1.3690   -0.3410 c3        1 557     -0.116100
      8 C9          3.7430   -1.1490   -0.1790 c3        1 557      0.088800
      9 N10         5.2070   -1.2950   -0.3890 n4        1 557     -0.711900
     10 S11         5.5800   -2.9280   -1.2260 s6        1 557      1.357900
     11 C12        -0.9270    0.1050    1.1260 ca        1 557      0.060800
     12 N13        -2.3320    0.0830    1.3300 na        1 557      0.148300
     13 N14        -2.9100    0.3680    2.5120 nc        1 557     -0.446800
     14 C15        -4.2520    0.2510    2.3250 cd        1 557      0.236600
     15 C16        -4.5440   -0.1300    0.9540 cd        1 557     -0.192600
     16 C17        -3.2910   -0.2310    0.3420 cc        1 557     -0.100300
     17 C18        -5.2420    0.5020    3.4470 c3        1 557      0.631600
     18 F19        -5.0760   -0.3240    4.5300 f         1 557     -0.224300
     19 F20        -5.1880    1.7720    3.9630 f         1 557     -0.224300
     20 F21        -6.5530    0.3320    3.0800 f         1 557     -0.224300
     21 O22        -5.6810   -0.7180   -1.0110 oh        1 557     -0.608800
     22 C23        -5.8690   -0.3590    0.3530 c3        1 557      0.200700
     23 O24         4.8920   -2.8100   -2.4190 o         1 557     -0.549800
     24 C25         7.2460   -2.7290   -1.4070 c3        1 557     -0.322900
     25 C26         7.9950   -2.5870   -0.0980 c3        1 557     -0.100600
     26 C27         7.7650   -3.9490   -2.1620 c3        1 557     -0.100600
     27 O28         5.2190   -3.8450   -0.2600 o         1 557     -0.549800
     28 H1         -1.0740    0.3010   -1.0540 ha        1 557      0.169000
     29 H2         -0.4100   -0.0480    3.2530 ha        1 557      0.169000
     30 H3          2.0170   -0.0090    2.8600 ha        1 557      0.139500
     31 H5          1.3580    0.3200   -1.4090 ha        1 557      0.139500
     32 H6          3.8400    0.2410    1.4950 hc        1 557      0.070700
     33 H7          3.2710    2.2940    0.0560 hc        1 557      0.055700
     34 H7A         3.4550    1.2500   -1.4090 hc        1 557      0.055700
     35 H7B         4.8650    1.5200   -0.2920 hc        1 557      0.055700
     36 H9          3.2430   -1.2230   -1.1910 hx        1 557      0.118200
     37 H9A         3.4010   -2.0100    0.4680 hx        1 557      0.118200
     38 HN10        5.6680   -1.2300    0.5200 hn        1 557      0.452800
     39 H17        -3.0370   -0.5060   -0.6820 h4        1 557      0.202000
     40 HO22       -6.5640   -0.8510   -1.3770 ho        1 557      0.417000
     41 H23        -6.4010   -1.1880    0.9000 h1        1 557      0.053700
     42 H23A       -6.4900    0.5770    0.4240 h1        1 557      0.053700
     43 H25         7.5090   -1.8360   -2.0490 h1        1 557      0.149700
     44 H26         7.8990   -1.5540    0.3160 hc        1 557      0.080200
     45 H26A        7.6310   -3.3330    0.6530 hc        1 557      0.080200
     46 H26B        9.0880   -2.7780   -0.2590 hc        1 557      0.080200
     47 H27         7.6560   -4.8740   -1.5420 hc        1 557      0.080200
     48 H27A        7.2240   -4.0730   -3.1340 hc        1 557      0.080200
     49 H27B        8.8530   -3.8180   -2.3910 hc        1 557      0.080200
     50 H102        5.5260   -0.4980   -0.9420 hn        1 557      0.452800
@<TRIPOS>BOND
     1    1    5 ar  
     2    1   11 ar  
     3    1   28 1   
     4    2    3 ar  
     5    2   11 ar  
     6    2   29 1   
     7    3    4 ar  
     8    3   30 1   
     9    4    5 ar  
    10    4    6 1   
    11    5   31 1   
    12    6    7 1   
    13    6    8 1   
    14    6   32 1   
    15    7   33 1   
    16    7   34 1   
    17    7   35 1   
    18    8    9 1   
    19    8   36 1   
    20    8   37 1   
    21    9   10 1   
    22    9   38 1   
    23    9   50 1   
    24   10   23 2   
    25   10   24 1   
    26   10   27 2   
    27   11   12 1   
    28   12   13 1   
    29   12   16 1   
    30   13   14 2   
    31   14   15 1   
    32   14   17 1   
    33   15   16 2   
    34   15   22 1   
    35   16   39 1   
    36   17   18 1   
    37   17   19 1   
    38   17   20 1   
    39   21   22 1   
    40   21   40 1   
    41   22   41 1   
    42   22   42 1   
    43   24   25 1   
    44   24   26 1   
    45   24   43 1   
    46   25   44 1   
    47   25   45 1   
    48   25   46 1   
    49   26   47 1   
    50   26   48 1   
    51   26   49 1   
@<TRIPOS>SUBSTRUCTURE
     1 557         1 TEMP              0 ****  ****    0 ROOT
