@<TRIPOS>MOLECULE
557
   49    42     1     0     0
SMALL
bcc


@<TRIPOS>ATOM
      1 C1         -1.4800   -1.2200   -1.0460 c1        1 557     -0.109000
      2 C2         -1.4920   -1.2520    1.3640 c1        1 557     -0.137000
      3 C3         -0.1010   -1.3070    1.3730 c1        1 557     -0.114000
      4 C4          0.6050   -1.3180    0.1690 c1        1 557     -0.070000
      5 C5         -0.0810   -1.2750   -1.0380 c2        1 557     -0.110000
      6 C6          2.1400   -1.2460    0.1790 c2        1 557     -0.087000
      7 C7          2.6930   -2.3960    0.9920 c3        1 557     -0.211000
      8 C9          2.5790    0.0630    0.7910 c3        1 557     -0.008000
      9 N10         3.7800    0.5280    0.1250 n3        1 557     -0.895000
     10 S11         3.9120    2.1200   -0.3370 s4        1 557      2.012800
     11 C12        -2.1810   -1.2090    0.1510 c1        1 557      0.056000
     12 N13        -3.5620   -1.2050    0.1410 n2        1 557     -0.039500
     13 N14        -4.3750   -2.3160    0.1030 n2        1 557     -0.039500
     14 C15        -5.6650   -1.8940    0.1250 c1        1 557     -0.143000
     15 C16        -5.6620   -0.5230    0.1780 c1        1 557     -0.135000
     16 C17        -4.3570   -0.1040    0.1880 c1        1 557     -0.143000
     17 C18        -6.9010   -2.7850    0.0520 c2        1 557      0.513000
     18 F19        -7.5160   -2.6020   -1.1260 f         1 557     -0.160000
     19 F20        -6.5350   -4.0640    0.1690 f         1 557     -0.160000
     20 F21        -7.7420   -2.4660    1.0500 f         1 557     -0.160000
     21 O22        -7.4570    0.4910    1.3870 oh        1 557     -0.332000
     22 C23        -6.8820    0.3720    0.1040 c2        1 557      0.048000
     23 O24         3.3350    2.9970    0.6460 o         1 557     -0.536400
     24 C25         5.6270    2.5360   -0.6540 c2        1 557     -0.771000
     25 C26         5.9070    2.4430   -2.1720 c3        1 557     -0.195000
     26 C27         5.9000    3.9470   -0.1760 c3        1 557     -0.195000
     27 O28         3.0910    2.4000   -1.4740 o         1 557     -0.536400
     28 H1         -1.9640   -1.1900   -1.8970 ha        1 557      0.164000
     29 H2         -1.9870   -1.2440    2.2080 ha        1 557      0.146000
     30 H3          0.3820   -1.3370    2.2230 ha        1 557      0.140000
     31 H5          0.4140   -1.2830   -1.8840 ha        1 557      0.148000
     32 H6          2.4740   -1.3050   -0.7360 ha        1 557      0.109000
     33 H7          2.6660   -2.1660    1.9470 hc        1 557      0.080667
     34 H7A         3.6240   -2.5710    0.7220 hc        1 557      0.080667
     35 H7B         2.1510   -3.1980    0.8330 hc        1 557      0.080667
     36 H9          1.8700    0.7260    0.6840 h1        1 557      0.096000
     37 H9A         2.7640   -0.0680    1.7460 h1        1 557      0.096000
     38 HN10        4.4600   -0.0610   -0.0590 hn        1 557      0.246000
     39 H17        -4.0540    0.8180    0.2220 DU        1 557      0.200000
     40 HO22       -8.1980    0.9900    1.3360 ho        1 557      0.208000
     41 H23        -7.5390   -0.0210   -0.5160 h4        1 557      0.085000
     42 H23A       -6.6190    1.2550   -0.2180 h4        1 557      0.085000
     43 H25         6.2070    1.9130   -0.1780 ha        1 557      0.144000
     44 H26         5.3440    3.0930   -2.6490 hc        1 557      0.091000
     45 H26A        6.8560    2.6430   -2.3440 hc        1 557      0.091000
     46 H26B        5.7000    1.5350   -2.4890 hc        1 557      0.091000
     47 H27         5.7720    3.9940    0.7980 hc        1 557      0.091000
     48 H27A        6.8180    4.1930   -0.3950 hc        1 557      0.091000
     49 H27B        5.2800    4.5680   -0.6170 hc        1 557      0.091000
@<TRIPOS>BOND
     1    1    5 1   
     2    1   28 1   
     3    2   11 1   
     4    2   29 1   
     5    3    4 1   
     6    3   30 1   
     7    4    5 1   
     8    5   31 1   
     9    6    7 1   
    10    6    8 1   
    11    6   32 1   
    12    7   33 1   
    13    7   34 1   
    14    7   35 1   
    15    8    9 1   
    16    8   36 1   
    17    8   37 1   
    18    9   10 1   
    19    9   38 1   
    20   10   23 1   
    21   10   27 1   
    22   12   13 1   
    23   12   16 1   
    24   13   14 1   
    25   14   15 1   
    26   15   16 1   
    27   17   18 1   
    28   17   19 1   
    29   17   20 1   
    30   21   22 1   
    31   21   40 1   
    32   22   41 1   
    33   22   42 1   
    34   24   25 1   
    35   24   26 1   
    36   24   43 1   
    37   25   44 1   
    38   25   45 1   
    39   25   46 1   
    40   26   47 1   
    41   26   48 1   
    42   26   49 1   
@<TRIPOS>SUBSTRUCTURE
     1 557         1 TEMP              0 ****  ****    0 ROOT
