@<TRIPOS>MOLECULE
557
   50    51     1     0     0
SMALL
bcc


@<TRIPOS>ATOM
      1 C1         -0.4040    0.2250   -0.1700 ca        1 557     -0.128000
      2 C2         -0.0270    0.0120    2.2270 ca        1 557     -0.128000
      3 C3          1.3450    0.0320    2.0010 ca        1 557     -0.099000
      4 C4          1.8580    0.1400    0.7040 ca        1 557     -0.136300
      5 C5          0.9710    0.2370   -0.3730 ca        1 557     -0.099000
      6 C6          3.3380    0.1710    0.4900 c3        1 557     -0.018400
      7 C7          3.7640    1.3710   -0.3290 c3        1 557     -0.116100
      8 C9          3.7410   -1.1470   -0.1900 c3        1 557      0.088800
      9 N10         5.2040   -1.2960   -0.4040 n4        1 557     -0.711900
     10 S11         5.5710   -2.9220   -1.2580 s6        1 557      1.357900
     11 C12        -0.9220    0.1050    1.1390 ca        1 557      0.060800
     12 N13        -2.3260    0.0830    1.3470 na        1 557      0.148300
     13 N14        -2.9010    0.3570    2.5330 nc        1 557     -0.446800
     14 C15        -4.2430    0.2440    2.3480 cd        1 557      0.236600
     15 C16        -4.5390   -0.1220    0.9740 cd        1 557     -0.192600
     16 C17        -3.2890   -0.2180    0.3580 cc        1 557     -0.100300
     17 C18        -5.2300    0.4840    3.4760 c3        1 557      0.631600
     18 F19        -5.0620   -0.3530    4.5490 f         1 557     -0.224300
     19 F20        -5.1730    1.7480    4.0050 f         1 557     -0.224300
     20 F21        -6.5430    0.3190    3.1110 f         1 557     -0.224300
     21 O22        -5.6840   -0.6870   -0.9940 oh        1 557     -0.608800
     22 C23        -5.8670   -0.3430    0.3740 c3        1 557      0.200700
     23 O24         4.8850   -2.7890   -2.4500 o         1 557     -0.549800
     24 C25         7.2380   -2.7310   -1.4340 c3        1 557     -0.322900
     25 C26         7.9860   -2.6070   -0.1220 c3        1 557     -0.100600
     26 C27         7.7510   -3.9450   -2.2010 c3        1 557     -0.100600
     27 O28         5.2030   -3.8480   -0.3020 o         1 557     -0.549800
     28 H1         -1.0740    0.3230   -1.0380 ha        1 557      0.169000
     29 H2         -0.4000   -0.0690    3.2630 ha        1 557      0.169000
     30 H3          2.0260   -0.0320    2.8640 ha        1 557      0.139500
     31 H5          1.3570    0.3400   -1.4000 ha        1 557      0.139500
     32 H6          3.8460    0.2270    1.4970 hc        1 557      0.070700
     33 H7          3.4560    1.2640   -1.3970 hc        1 557      0.055700
     34 H7A         4.8700    1.5200   -0.2810 hc        1 557      0.055700
     35 H7B         3.2790    2.2950    0.0790 hc        1 557      0.055700
     36 H9          3.2390   -1.2100   -1.2010 hx        1 557      0.118200
     37 H9A         3.3980   -2.0130    0.4500 hx        1 557      0.118200
     38 HN10        5.6680   -1.2410    0.5040 hn        1 557      0.452800
     39 H17        -3.0380   -0.4820   -0.6700 h4        1 557      0.202000
     40 HO22       -6.5670   -0.8140   -1.3590 ho        1 557      0.417000
     41 H23        -6.4860    0.5940    0.4580 h1        1 557      0.053700
     42 H23A       -6.3990   -1.1760    0.9140 h1        1 557      0.053700
     43 H25         7.5060   -1.8320   -2.0660 h1        1 557      0.149700
     44 H26         7.8940   -1.5780    0.3020 hc        1 557      0.080200
     45 H26A        9.0770   -2.8020   -0.2830 hc        1 557      0.080200
     46 H26B        7.6150   -3.3580    0.6200 hc        1 557      0.080200
     47 H27         7.6360   -4.8760   -1.5910 hc        1 557      0.080200
     48 H27A        8.8400   -3.8170   -2.4270 hc        1 557      0.080200
     49 H27B        7.2110   -4.0560   -3.1750 hc        1 557      0.080200
     50 H102        5.5250   -0.4950   -0.9500 hn        1 557      0.452800
@<TRIPOS>BOND
     1    1    5 ar  
     2    1   11 ar  
     3    1   28 1   
     4    2    3 ar  
     5    2   11 ar  
     6    2   29 1   
     7    3    4 ar  
     8    3   30 1   
     9    4    5 ar  
    10    4    6 1   
    11    5   31 1   
    12    6    7 1   
    13    6    8 1   
    14    6   32 1   
    15    7   33 1   
    16    7   34 1   
    17    7   35 1   
    18    8    9 1   
    19    8   36 1   
    20    8   37 1   
    21    9   10 1   
    22    9   38 1   
    23    9   50 1   
    24   10   23 2   
    25   10   24 1   
    26   10   27 2   
    27   11   12 1   
    28   12   13 1   
    29   12   16 1   
    30   13   14 2   
    31   14   15 1   
    32   14   17 1   
    33   15   16 2   
    34   15   22 1   
    35   16   39 1   
    36   17   18 1   
    37   17   19 1   
    38   17   20 1   
    39   21   22 1   
    40   21   40 1   
    41   22   41 1   
    42   22   42 1   
    43   24   25 1   
    44   24   26 1   
    45   24   43 1   
    46   25   44 1   
    47   25   45 1   
    48   25   46 1   
    49   26   47 1   
    50   26   48 1   
    51   26   49 1   
@<TRIPOS>SUBSTRUCTURE
     1 557         1 TEMP              0 ****  ****    0 ROOT
