@<TRIPOS>MOLECULE
557
   49    50     1     0     0
SMALL
bcc


@<TRIPOS>ATOM
      1 C1         -0.8370   -0.5570   -1.4240 ca        1 557     -0.123000
      2 C2         -0.8980    1.2750    0.1800 ca        1 557     -0.123000
      3 C3          0.4480    1.5230   -0.0710 ca        1 557     -0.112000
      4 C4          1.1670    0.7440   -0.9850 ca        1 557     -0.077300
      5 C5          0.5090   -0.2950   -1.6530 ca        1 557     -0.112000
      6 C6          2.6140    1.0280   -1.2360 c3        1 557     -0.040400
      7 C7          2.8950    1.2010   -2.7150 c3        1 557     -0.093100
      8 C9          3.4530   -0.1170   -0.6320 c3        1 557      0.228800
      9 N10         4.8700    0.0700   -0.7240 n3        1 557     -0.922100
     10 S11         5.8720    0.1700    0.5380 s6        1 557      1.440900
     11 C12        -1.5530    0.2260   -0.4950 ca        1 557      0.010800
     12 N13        -2.9300   -0.0550   -0.2490 na        1 557      0.172300
     13 N14        -3.8230    0.8720    0.1220 nc        1 557     -0.444800
     14 C15        -5.0190    0.2280    0.2530 cd        1 557      0.215600
     15 C16        -4.8700   -1.1810   -0.0510 cd        1 557     -0.207600
     16 C17        -3.5140   -1.3300   -0.3700 cc        1 557     -0.103300
     17 C18        -6.2790    0.9580    0.6630 c3        1 557      0.632600
     18 F19        -6.2000    1.5760    1.8860 f         1 557     -0.231300
     19 F20        -6.6600    1.9530   -0.2020 f         1 557     -0.231300
     20 F21        -7.3880    0.1530    0.7610 f         1 557     -0.231300
     21 O22        -5.3400   -3.4530   -0.4160 oh        1 557     -0.604800
     22 C23        -5.9180   -2.2140   -0.0240 c3        1 557      0.205700
     23 O24         5.1580    0.5050    1.7090 o         1 557     -0.648800
     24 C25         6.4400   -1.4670    0.7200 c3        1 557     -0.270900
     25 C26         7.2060   -1.9550   -0.4850 c3        1 557     -0.077100
     26 C27         7.3110   -1.5380    1.9560 c3        1 557     -0.077100
     27 O28         6.9670    0.9890    0.1920 o         1 557     -0.648800
     28 H1         -1.3310   -1.3710   -1.9770 ha        1 557      0.155000
     29 H2         -1.4390    1.9080    0.9030 ha        1 557      0.155000
     30 H3          0.9500    2.3450    0.4640 ha        1 557      0.144000
     31 H5          1.0610   -0.9120   -2.3800 ha        1 557      0.144000
     32 H6          2.8890    1.9890   -0.7120 hc        1 557      0.069700
     33 H7          2.8490    0.2200   -3.2470 hc        1 557      0.041367
     34 H7A         2.1420    1.8870   -3.1740 hc        1 557      0.041367
     35 H7B         3.9080    1.6430   -2.8710 hc        1 557      0.041367
     36 H9          3.1720   -0.2190    0.4580 h1        1 557      0.056700
     37 H9A         3.1670   -1.0740   -1.1600 h1        1 557      0.056700
     38 HN10        5.1940    0.2000   -1.6530 hn        1 557      0.450800
     39 H17        -2.9540   -2.2230   -0.6490 h4        1 557      0.200000
     40 HO22       -6.0500   -4.1050   -0.3720 ho        1 557      0.409000
     41 H23        -6.3460   -2.3010    1.0140 h1        1 557      0.045700
     42 H23A       -6.7490   -1.9380   -0.7320 h1        1 557      0.045700
     43 H25         5.5700   -2.1620    0.8830 h1        1 557      0.104700
     44 H26         7.6880   -2.9390   -0.2680 hc        1 557      0.051700
     45 H26A        6.5280   -2.0900   -1.3630 hc        1 557      0.051700
     46 H26B        8.0120   -1.2260   -0.7550 hc        1 557      0.051700
     47 H27         6.7430   -1.1840    2.8530 hc        1 557      0.051700
     48 H27A        7.6410   -2.5890    2.1390 hc        1 557      0.051700
     49 H27B        8.2230   -0.9030    1.8260 hc        1 557      0.051700
@<TRIPOS>BOND
     1    1    5 ar  
     2    1   11 ar  
     3    1   28 1   
     4    2    3 ar  
     5    2   11 ar  
     6    2   29 1   
     7    3    4 ar  
     8    3   30 1   
     9    4    5 ar  
    10    4    6 1   
    11    5   31 1   
    12    6    7 1   
    13    6    8 1   
    14    6   32 1   
    15    7   33 1   
    16    7   34 1   
    17    7   35 1   
    18    8    9 1   
    19    8   36 1   
    20    8   37 1   
    21    9   10 1   
    22    9   38 1   
    23   10   23 2   
    24   10   24 1   
    25   10   27 2   
    26   11   12 1   
    27   12   13 1   
    28   12   16 1   
    29   13   14 2   
    30   14   15 1   
    31   14   17 1   
    32   15   16 2   
    33   15   22 1   
    34   16   39 1   
    35   17   18 1   
    36   17   19 1   
    37   17   20 1   
    38   21   22 1   
    39   21   40 1   
    40   22   41 1   
    41   22   42 1   
    42   24   25 1   
    43   24   26 1   
    44   24   43 1   
    45   25   44 1   
    46   25   45 1   
    47   25   46 1   
    48   26   47 1   
    49   26   48 1   
    50   26   49 1   
@<TRIPOS>SUBSTRUCTURE
     1 557         1 TEMP              0 ****  ****    0 ROOT
