@<TRIPOS>MOLECULE
558
   51    55     1     0     0
SMALL
bcc


@<TRIPOS>ATOM
      1 CAU         0.1560    0.5770    0.1690 ca        1 558     -0.041000
      2 CAT         1.5420    0.5520    0.1420 ca        1 558     -0.308300
      3 CAS         2.2480   -0.1290    1.1830 ca        1 558      0.648200
      4 NBA         3.6410   -0.0750    1.2200 nh        1 558     -0.933500
      5 NAR         1.5750   -0.7810    2.1930 nb        1 558     -0.724000
      6 CAQ         0.2400   -0.7280    2.1860 ca        1 558      0.457200
      7 CAO        -0.5360   -0.0670    1.2070 cp        1 558     -0.222300
      8 CAM        -1.9900   -0.0610    1.2770 cp        1 558     -0.008000
      9 CAN        -2.6350    0.0410    2.5150 ca        1 558     -0.099000
     10 CAC        -4.0380    0.0440    2.6110 ca        1 558      0.125600
     11 CAL        -2.7580   -0.1600    0.1100 ca        1 558     -0.116000
     12 CAK        -4.1450   -0.1470    0.1710 ca        1 558     -0.130000
     13 CAB        -4.8060   -0.0440    1.4090 ca        1 558     -0.018200
     14 NAA        -6.2110   -0.0060    1.4700 na        1 558     -0.261800
     15 CAJ        -7.1580   -0.8030    0.7860 cc        1 558      0.376800
     16 CBC        -6.8330   -1.8430   -0.2150 c3        1 558     -0.122400
     17 NAI        -8.4020   -0.4310    1.2200 nd        1 558     -0.347000
     18 NAH        -8.2970    0.5270    2.1160 nd        1 558     -0.340000
     19 CAG        -6.9790    0.8270    2.3160 cc        1 558      0.375800
     20 CAF        -6.3990    1.8770    3.1990 c3        1 558     -0.112000
     21 CBB        -5.7840    2.9850    2.3640 c3        1 558     -0.098100
     22 CAE        -5.3900    1.3220    4.2220 c3        1 558      0.214800
     23 NAD        -4.6290    0.1340    3.9040 nh        1 558     -0.563400
     24 CAP        -4.9670   -1.0840    4.5430 ca        1 558      0.159600
     25 CAV        -5.0080   -2.3110    3.8420 ca        1 558     -0.160500
     26 CAW        -5.2640   -3.5050    4.5070 ca        1 558     -0.096500
     27 CAX        -5.4920   -3.5040    5.8850 ca        1 558     -0.010600
     28 CLB        -5.8130   -4.9630    6.6950 cl        1 558     -0.095400
     29 CAY        -5.4540   -2.3030    6.5980 ca        1 558     -0.096500
     30 CAZ        -5.1890   -1.1070    5.9410 ca        1 558     -0.160500
     31 H1         -0.4000    1.1080   -0.6190 ha        1 558      0.139000
     32 H2          2.0910    1.0600   -0.6620 ha        1 558      0.144000
     33 H3          4.0790    0.0430    0.3360 hn        1 558      0.414800
     34 H4          4.1030   -0.6960    1.8450 hn        1 558      0.414800
     35 H5         -0.2520   -1.2670    3.0200 h4        1 558      0.027100
     36 H6         -2.0300    0.1220    3.4340 ha        1 558      0.158000
     37 H7         -2.2600   -0.2520   -0.8680 ha        1 558      0.143000
     38 H8         -4.7310   -0.2200   -0.7600 ha        1 558      0.149000
     39 H9         -5.8450   -2.3180    0.0090 hc        1 558      0.062367
     40 H10        -6.7910   -1.3830   -1.2350 hc        1 558      0.062367
     41 H11        -7.6250   -2.6330   -0.2120 hc        1 558      0.062367
     42 H12        -7.2500    2.3230    3.7960 hc        1 558      0.092700
     43 H13        -5.4640    3.8250    3.0270 hc        1 558      0.046367
     44 H14        -4.8920    2.6130    1.8050 hc        1 558      0.046367
     45 H15        -6.5300    3.3760    1.6310 hc        1 558      0.046367
     46 H16        -4.6330    2.1370    4.4260 h1        1 558      0.061700
     47 H17        -5.9590    1.1320    5.1770 h1        1 558      0.061700
     48 H18        -4.8360   -2.3370    2.7550 ha        1 558      0.140000
     49 H19        -5.2930   -4.4480    3.9400 ha        1 558      0.147000
     50 H20        -5.6280   -2.2980    7.6850 ha        1 558      0.147000
     51 H21        -5.1410   -0.1810    6.5330 ha        1 558      0.140000
@<TRIPOS>BOND
     1    1    2 ar  
     2    1    7 ar  
     3    1   31 1   
     4    2    3 ar  
     5    2   32 1   
     6    3    4 1   
     7    3    5 ar  
     8    4   33 1   
     9    4   34 1   
    10    5    6 ar  
    11    6    7 ar  
    12    6   35 1   
    13    7    8 1   
    14    8    9 ar  
    15    8   11 ar  
    16    9   10 ar  
    17    9   36 1   
    18   10   13 ar  
    19   10   23 1   
    20   11   12 ar  
    21   11   37 1   
    22   12   13 ar  
    23   12   38 1   
    24   13   14 1   
    25   14   15 1   
    26   14   19 1   
    27   15   16 1   
    28   15   17 2   
    29   16   39 1   
    30   16   40 1   
    31   16   41 1   
    32   17   18 1   
    33   18   19 2   
    34   19   20 1   
    35   20   21 1   
    36   20   22 1   
    37   20   42 1   
    38   21   43 1   
    39   21   44 1   
    40   21   45 1   
    41   22   23 1   
    42   22   46 1   
    43   22   47 1   
    44   23   24 1   
    45   24   25 ar  
    46   24   30 ar  
    47   25   26 ar  
    48   25   48 1   
    49   26   27 ar  
    50   26   49 1   
    51   27   28 1   
    52   27   29 ar  
    53   29   30 ar  
    54   29   50 1   
    55   30   51 1   
@<TRIPOS>SUBSTRUCTURE
     1 558         1 TEMP              0 ****  ****    0 ROOT
