@<TRIPOS>MOLECULE
558
   51    55     1     0     0
SMALL
bcc


@<TRIPOS>ATOM
      1 CAU         0.1420   -0.6970    0.2260 ca        1 558     -0.041000
      2 CAT         1.5280   -0.6690    0.1840 ca        1 558     -0.307300
      3 CAS         2.2390    0.1230    1.1390 ca        1 558      0.647200
      4 NBA         3.6260    0.2370    1.0420 nv        1 558     -0.933500
      5 NAR         1.5740    0.8350    2.1120 nb        1 558     -0.724000
      6 CAQ         0.2380    0.7830    2.1180 ca        1 558      0.457200
      7 CAO        -0.5440    0.0380    1.2050 cp        1 558     -0.221300
      8 CAM        -1.9970    0.0400    1.2850 cp        1 558     -0.009000
      9 CAN        -2.6350    0.0440    2.5310 ca        1 558     -0.099000
     10 CAC        -4.0370    0.0460    2.6360 ca        1 558      0.125600
     11 CAL        -2.7720    0.0360    0.1180 ca        1 558     -0.115000
     12 CAK        -4.1590    0.0480    0.1890 ca        1 558     -0.130000
     13 CAB        -4.8130    0.0560    1.4360 ca        1 558     -0.018200
     14 NAA        -6.2170    0.0930    1.5080 na        1 558     -0.261800
     15 CAJ        -7.1700   -0.6440    0.7690 cc        1 558      0.376800
     16 CBC        -6.8550   -1.6010   -0.3140 c3        1 558     -0.122400
     17 NAI        -8.4110   -0.3030    1.2380 nd        1 558     -0.347000
     18 NAH        -8.2970    0.5810    2.2070 nd        1 558     -0.340000
     19 CAG        -6.9760    0.8590    2.4210 cc        1 558      0.375800
     20 CAF        -6.3880    1.8340    3.3810 c3        1 558     -0.112000
     21 CBB        -5.7710    3.0010    2.6330 c3        1 558     -0.098100
     22 CAE        -5.3760    1.1950    4.3520 c3        1 558      0.214800
     23 NAD        -4.6190    0.0360    3.9360 nh        1 558     -0.563400
     24 CAP        -4.9560   -1.2290    4.4790 ca        1 558      0.159600
     25 CAV        -5.0040   -2.3970    3.6850 ca        1 558     -0.160500
     26 CAW        -5.2580   -3.6380    4.2550 ca        1 558     -0.096500
     27 CAX        -5.4770   -3.7450    5.6300 ca        1 558     -0.010600
     28 ClB        -5.7950   -5.2630    6.3250 cl        1 558     -0.096400
     29 CAY        -5.4320   -2.6040    6.4350 ca        1 558     -0.096500
     30 CAZ        -5.1680   -1.3610    5.8720 ca        1 558     -0.160500
     31 H1         -0.4180   -1.3030   -0.5030 ha        1 558      0.139000
     32 H2          2.0720   -1.2420   -0.5790 ha        1 558      0.144000
     33 H3          4.0810   -0.5400    0.6240 hn        1 558      0.414300
     34 H4          4.1020    0.6420    1.8160 hn        1 558      0.414300
     35 H5         -0.2480    1.3820    2.9110 h4        1 558      0.025100
     36 H6         -2.0240    0.0280    3.4500 ha        1 558      0.157000
     37 H7         -2.2800    0.0380   -0.8670 ha        1 558      0.144000
     38 H8         -4.7500    0.0560   -0.7420 ha        1 558      0.149000
     39 H9         -6.8170   -1.0620   -1.2940 hc        1 558      0.062367
     40 H10        -5.8690   -2.0960   -0.1350 hc        1 558      0.062367
     41 H11        -7.6510   -2.3860   -0.3700 hc        1 558      0.062367
     42 H12        -7.2320    2.2360    4.0160 hc        1 558      0.092700
     43 H13        -6.5180    3.4530    1.9370 hc        1 558      0.046700
     44 H14        -4.8840    2.6710    2.0410 hc        1 558      0.046700
     45 H15        -5.4420    3.7850    3.3580 hc        1 558      0.046700
     46 H16        -4.6170    1.9890    4.6190 h1        1 558      0.061200
     47 H17        -5.9430    0.9300    5.2900 h1        1 558      0.061200
     48 H18        -4.8380   -2.3370    2.5980 ha        1 558      0.140000
     49 H19        -5.2930   -4.5340    3.6160 ha        1 558      0.146500
     50 H20        -5.5990   -2.6850    7.5210 ha        1 558      0.146500
     51 H21        -5.1140   -0.4840    6.5360 ha        1 558      0.140000
@<TRIPOS>BOND
     1    1    2 ar  
     2    1    7 ar  
     3    1   31 1   
     4    2    3 ar  
     5    2   32 1   
     6    3    4 1   
     7    3    5 ar  
     8    4   33 1   
     9    4   34 1   
    10    5    6 ar  
    11    6    7 ar  
    12    6   35 1   
    13    7    8 1   
    14    8    9 ar  
    15    8   11 ar  
    16    9   10 ar  
    17    9   36 1   
    18   10   13 ar  
    19   10   23 1   
    20   11   12 ar  
    21   11   37 1   
    22   12   13 ar  
    23   12   38 1   
    24   13   14 1   
    25   14   15 1   
    26   14   19 1   
    27   15   16 1   
    28   15   17 2   
    29   16   39 1   
    30   16   40 1   
    31   16   41 1   
    32   17   18 1   
    33   18   19 2   
    34   19   20 1   
    35   20   21 1   
    36   20   22 1   
    37   20   42 1   
    38   21   43 1   
    39   21   44 1   
    40   21   45 1   
    41   22   23 1   
    42   22   46 1   
    43   22   47 1   
    44   23   24 1   
    45   24   25 ar  
    46   24   30 ar  
    47   25   26 ar  
    48   25   48 1   
    49   26   27 ar  
    50   26   49 1   
    51   27   28 1   
    52   27   29 ar  
    53   29   30 ar  
    54   29   50 1   
    55   30   51 1   
@<TRIPOS>SUBSTRUCTURE
     1 558         1 TEMP              0 ****  ****    0 ROOT
