@<TRIPOS>MOLECULE
559
   51    55     1     0     0
SMALL
bcc


@<TRIPOS>ATOM
      1 CAU         0.1450   -0.5840    0.1600 ca        1 559     -0.041000
      2 CAT         1.5310   -0.5630    0.1220 ca        1 559     -0.308300
      3 CAS         2.2450    0.1520    1.1350 ca        1 559      0.648200
      4 NBA         3.6330    0.2640    1.0490 nv        1 559     -0.933500
      5 NAR         1.5830    0.7950    2.1560 nb        1 559     -0.724000
      6 CAQ         0.2470    0.7520    2.1560 ca        1 559      0.457200
      7 CAO        -0.5370    0.0830    1.1890 cp        1 559     -0.222300
      8 CAM        -1.9910    0.0880    1.2650 cp        1 559     -0.008000
      9 CAN        -2.6330    0.0020    2.5060 ca        1 559     -0.099000
     10 CAC        -4.0350    0.0100    2.6060 ca        1 559      0.125600
     11 CAL        -2.7620    0.1820    0.0990 ca        1 559     -0.115000
     12 CAK        -4.1490    0.1800    0.1650 ca        1 559     -0.130000
     13 CAB        -4.8070    0.0930    1.4060 ca        1 559     -0.018200
     14 NAA        -6.2120    0.0680    1.4720 na        1 559     -0.262800
     15 CAJ        -7.1540    0.8660    0.7840 cc        1 559      0.377800
     16 CBC        -6.8240    1.8940   -0.2270 c3        1 559     -0.122400
     17 NAI        -8.4000    0.5070    1.2240 nd        1 559     -0.347000
     18 NAH        -8.3000   -0.4450    2.1280 nd        1 559     -0.340000
     19 CAG        -6.9830   -0.7520    2.3270 cc        1 559      0.374800
     20 CAF        -6.4090   -1.7990    3.2170 c3        1 559     -0.112000
     21 CBB        -5.8040   -2.9180    2.3910 c3        1 559     -0.098100
     22 CAE        -5.3930   -1.2420    4.2330 c3        1 559      0.214800
     23 NAD        -4.6230   -0.0640    3.9020 nh        1 559     -0.563400
     24 CAP        -4.9490    1.1630    4.5310 ca        1 559      0.158600
     25 CAV        -5.1670    1.2000    5.9290 ca        1 559     -0.160500
     26 CAW        -5.4200    2.4030    6.5770 ca        1 559     -0.096500
     27 CAX        -5.4490    3.5980    5.8530 ca        1 559     -0.009600
     28 ClB        -5.7550    5.0670    6.6520 cl        1 559     -0.095400
     29 CAY        -5.2250    3.5850    4.4750 ca        1 559     -0.096500
     30 CAZ        -4.9810    2.3840    3.8200 ca        1 559     -0.160500
     31 H1         -0.4180   -1.1300   -0.6130 ha        1 559      0.139000
     32 H2          2.0730   -1.0810   -0.6800 ha        1 559      0.144000
     33 H3          4.1110    0.6090    1.8500 hn        1 559      0.414300
     34 H4          4.0850   -0.4820    0.5740 hn        1 559      0.414300
     35 H5         -0.2360    1.2960    2.9900 h4        1 559      0.027100
     36 H6         -2.0260   -0.0740    3.4240 ha        1 559      0.157000
     37 H7         -2.2660    0.2620   -0.8810 ha        1 559      0.144000
     38 H8         -4.7370    0.2490   -0.7650 ha        1 559      0.149000
     39 H9         -5.8320    2.3630   -0.0110 hc        1 559      0.062700
     40 H10        -7.6100    2.6910   -0.2290 hc        1 559      0.062700
     41 H11        -6.7890    1.4260   -1.2440 hc        1 559      0.062700
     42 H12        -7.2610   -2.2340    3.8200 hc        1 559      0.092700
     43 H13        -5.4880   -3.7550    3.0600 hc        1 559      0.046367
     44 H14        -4.9110   -2.5580    1.8260 hc        1 559      0.046367
     45 H15        -6.5540   -3.3110    1.6630 hc        1 559      0.046367
     46 H16        -4.6430   -2.0620    4.4440 h1        1 559      0.061200
     47 H17        -5.9590   -1.0390    5.1870 h1        1 559      0.061200
     48 H18        -5.1250    0.2780    6.5300 ha        1 559      0.140500
     49 H19        -5.5910    2.4090    7.6650 ha        1 559      0.147000
     50 H20        -5.2470    4.5240    3.9000 ha        1 559      0.147000
     51 H21        -4.8120    2.3990    2.7320 ha        1 559      0.140500
@<TRIPOS>BOND
     1    1    2 ar  
     2    1    7 ar  
     3    1   31 1   
     4    2    3 ar  
     5    2   32 1   
     6    3    4 1   
     7    3    5 ar  
     8    4   33 1   
     9    4   34 1   
    10    5    6 ar  
    11    6    7 ar  
    12    6   35 1   
    13    7    8 1   
    14    8    9 ar  
    15    8   11 ar  
    16    9   10 ar  
    17    9   36 1   
    18   10   13 ar  
    19   10   23 1   
    20   11   12 ar  
    21   11   37 1   
    22   12   13 ar  
    23   12   38 1   
    24   13   14 1   
    25   14   15 1   
    26   14   19 1   
    27   15   16 1   
    28   15   17 2   
    29   16   39 1   
    30   16   40 1   
    31   16   41 1   
    32   17   18 1   
    33   18   19 2   
    34   19   20 1   
    35   20   21 1   
    36   20   22 1   
    37   20   42 1   
    38   21   43 1   
    39   21   44 1   
    40   21   45 1   
    41   22   23 1   
    42   22   46 1   
    43   22   47 1   
    44   23   24 1   
    45   24   25 ar  
    46   24   30 ar  
    47   25   26 ar  
    48   25   48 1   
    49   26   27 ar  
    50   26   49 1   
    51   27   28 1   
    52   27   29 ar  
    53   29   30 ar  
    54   29   50 1   
    55   30   51 1   
@<TRIPOS>SUBSTRUCTURE
     1 559         1 TEMP              0 ****  ****    0 ROOT
