@<TRIPOS>MOLECULE
559
   51    55     1     0     0
SMALL
bcc


@<TRIPOS>ATOM
      1 CAU         0.1470   -0.5950    0.1690 ca        1 559     -0.041000
      2 CAT         1.5340   -0.5780    0.1340 ca        1 559     -0.308300
      3 CAS         2.2470    0.1380    1.1470 ca        1 559      0.648200
      4 NBA         3.6350    0.2450    1.0640 nh        1 559     -0.933500
      5 NAR         1.5840    0.7840    2.1660 nb        1 559     -0.724000
      6 CAQ         0.2480    0.7440    2.1630 ca        1 559      0.457200
      7 CAO        -0.5360    0.0740    1.1960 cp        1 559     -0.222300
      8 CAM        -1.9890    0.0830    1.2690 cp        1 559     -0.008000
      9 CAN        -2.6340   -0.0010    2.5090 ca        1 559     -0.099000
     10 CAC        -4.0370    0.0110    2.6060 ca        1 559      0.125600
     11 CAL        -2.7580    0.1760    0.1010 ca        1 559     -0.115000
     12 CAK        -4.1450    0.1770    0.1640 ca        1 559     -0.130000
     13 CAB        -4.8060    0.0940    1.4040 ca        1 559     -0.018200
     14 NAA        -6.2110    0.0720    1.4670 na        1 559     -0.262800
     15 CAJ        -7.1500    0.8710    0.7760 cc        1 559      0.377800
     16 CBC        -6.8160    1.8970   -0.2360 c3        1 559     -0.122400
     17 NAI        -8.3970    0.5150    1.2140 nd        1 559     -0.347000
     18 NAH        -8.3010   -0.4350    2.1200 nd        1 559     -0.340000
     19 CAG        -6.9860   -0.7450    2.3220 cc        1 559      0.374800
     20 CAF        -6.4160   -1.7920    3.2150 c3        1 559     -0.112000
     21 CBB        -5.8120   -2.9140    2.3920 c3        1 559     -0.098100
     22 CAE        -5.4010   -1.2360    4.2320 c3        1 559      0.214800
     23 NAD        -4.6270   -0.0600    3.9010 nh        1 559     -0.563400
     24 CAP        -4.9520    1.1690    4.5280 ca        1 559      0.158600
     25 CAV        -5.1720    1.2080    5.9250 ca        1 559     -0.160500
     26 CAW        -5.4230    2.4130    6.5710 ca        1 559     -0.096500
     27 CAX        -5.4480    3.6070    5.8450 ca        1 559     -0.009600
     28 CLB        -5.7520    5.0780    6.6410 cl        1 559     -0.095400
     29 CAY        -5.2220    3.5920    4.4670 ca        1 559     -0.096500
     30 CAZ        -4.9790    2.3890    3.8150 ca        1 559     -0.160500
     31 H1         -0.4150   -1.1420   -0.6040 ha        1 559      0.139000
     32 H2          2.0760   -1.0990   -0.6660 ha        1 559      0.144000
     33 H3          4.1120    0.5920    1.8660 hn        1 559      0.414300
     34 H4          4.0870   -0.5020    0.5910 hn        1 559      0.414300
     35 H5         -0.2360    1.2900    2.9950 h4        1 559      0.027100
     36 H6         -2.0290   -0.0760    3.4280 ha        1 559      0.157000
     37 H7         -2.2600    0.2530   -0.8780 ha        1 559      0.144000
     38 H8         -4.7310    0.2460   -0.7670 ha        1 559      0.149000
     39 H9         -7.6000    2.6960   -0.2400 hc        1 559      0.062700
     40 H10        -5.8230    2.3640   -0.0180 hc        1 559      0.062700
     41 H11        -6.7800    1.4270   -1.2520 hc        1 559      0.062700
     42 H12        -7.2700   -2.2240    3.8170 hc        1 559      0.092700
     43 H13        -6.5610   -3.3050    1.6620 hc        1 559      0.046367
     44 H14        -4.9170   -2.5560    1.8280 hc        1 559      0.046367
     45 H15        -5.4990   -3.7500    3.0630 hc        1 559      0.046367
     46 H16        -5.9680   -1.0290    5.1840 h1        1 559      0.061200
     47 H17        -4.6530   -2.0560    4.4450 h1        1 559      0.061200
     48 H18        -5.1330    0.2870    6.5270 ha        1 559      0.140500
     49 H19        -5.5960    2.4210    7.6580 ha        1 559      0.147000
     50 H20        -5.2400    4.5290    3.8910 ha        1 559      0.147000
     51 H21        -4.8080    2.4020    2.7270 ha        1 559      0.140500
@<TRIPOS>BOND
     1    1    2 ar  
     2    1    7 ar  
     3    1   31 1   
     4    2    3 ar  
     5    2   32 1   
     6    3    4 1   
     7    3    5 ar  
     8    4   33 1   
     9    4   34 1   
    10    5    6 ar  
    11    6    7 ar  
    12    6   35 1   
    13    7    8 1   
    14    8    9 ar  
    15    8   11 ar  
    16    9   10 ar  
    17    9   36 1   
    18   10   13 ar  
    19   10   23 1   
    20   11   12 ar  
    21   11   37 1   
    22   12   13 ar  
    23   12   38 1   
    24   13   14 1   
    25   14   15 1   
    26   14   19 1   
    27   15   16 1   
    28   15   17 2   
    29   16   39 1   
    30   16   40 1   
    31   16   41 1   
    32   17   18 1   
    33   18   19 2   
    34   19   20 1   
    35   20   21 1   
    36   20   22 1   
    37   20   42 1   
    38   21   43 1   
    39   21   44 1   
    40   21   45 1   
    41   22   23 1   
    42   22   46 1   
    43   22   47 1   
    44   23   24 1   
    45   24   25 ar  
    46   24   30 ar  
    47   25   26 ar  
    48   25   48 1   
    49   26   27 ar  
    50   26   49 1   
    51   27   28 1   
    52   27   29 ar  
    53   29   30 ar  
    54   29   50 1   
    55   30   51 1   
@<TRIPOS>SUBSTRUCTURE
     1 559         1 TEMP              0 ****  ****    0 ROOT
