@<TRIPOS>MOLECULE
55A
   86    85     1     0     0
SMALL
bcc


@<TRIPOS>ATOM
      1 C27         1.8950    0.4060    1.6480 c2        1 55A      0.284000
      2 O27         1.2530    1.3060    1.1250 o         1 55A     -0.211000
      3 C28         2.3900    0.3040    3.0470 c3        1 55A     -0.264000
      4 N27         2.2240   -0.7410    0.7270 n4        1 55A     -0.172000
      5 C22         1.0310    0.7530   -2.9410 c2        1 55A     -0.571000
      6 C21         1.2320   -0.6240   -2.8660 c2        1 55A      0.340000
      7 O22         1.1600   -1.3340   -1.7830 o         1 55A     -0.639000
      8 C23         0.5950    1.5400   -1.7950 c3        1 55A     -0.107000
      9 C25        -0.3210    2.6470   -2.0790 c2        1 55A      0.284000
     10 C24        -0.7090    3.5450   -0.9960 c3        1 55A     -0.300000
     11 C26        -0.8180    2.8870   -3.4230 c3        1 55A     -0.300000
     12 N11         5.2420   -4.1270   -5.8150 n3        1 55A     -0.382000
     13 C12         4.8800   -4.4980   -7.1870 c3        1 55A     -0.129000
     14 C13         4.0030   -5.7370   -7.3500 c3        1 55A     -0.183000
     15 C14         2.4410   -6.8280   -5.3190 c1        1 55A     -0.109000
     16 C15         3.9660   -6.1670   -8.8040 c3        1 55A     -0.164000
     17 C17         3.2840   -2.6720   -5.0750 c3        1 55A     -0.005000
     18 C18         3.0820   -7.3730   -8.9920 c3        1 55A     -0.221000
     19 O18         2.8630   -2.4720   -6.4070 oh        1 55A     -0.331000
     20 C19         2.0920   -2.6290   -4.0690 c3        1 55A      0.002000
     21 N20         1.4590   -1.3310   -4.0710 n         1 55A     -0.381000
     22 C32         1.0730   -3.7490   -4.3730 c3        1 55A     -0.154000
     23 C33        -0.3230   -5.0460   -2.7380 c2        1 55A      0.047500
     24 C34        -1.5830   -5.5550   -2.5480 c2        1 55A     -0.216500
     25 C35        -2.7120   -4.8720   -3.0460 c2        1 55A      0.136000
     26 C36        -2.5620   -3.6560   -3.7330 c2        1 55A     -0.216500
     27 C37        -1.3110   -3.1200   -3.9370 c2        1 55A      0.047500
     28 C38        -0.1000   -3.7450   -3.3850 c3        1 55A     -0.176000
     29 C1          5.8020    2.9220   -7.6010 c1        1 55A     -0.101000
     30 N1          7.0330    2.4220   -7.4500 n3        1 55A     -0.163000
     31 S1          4.6060    1.6950   -7.8930 ss        1 55A      0.392000
     32 C2          7.1040    1.0320   -7.6450 c2        1 55A      0.027000
     33 C3          5.7310    0.4210   -7.7840 c2        1 55A     -0.236000
     34 C4          5.6000   -0.9000   -7.5230 c2        1 55A     -0.172000
     35 C5          6.7540   -1.8380   -7.3300 c3        1 55A     -0.681000
     36 C6          8.0610   -1.2180   -7.7830 c2        1 55A     -0.117000
     37 C7          8.0550    0.1000   -7.7450 c1        1 55A     -0.063000
     38 S8          6.8390   -2.4500   -5.7570 s4        1 55A      1.844800
     39 O9          7.8330   -3.3540   -5.5140 o         1 55A     -0.409400
     40 O10         6.2570   -1.7390   -4.7450 o         1 55A     -0.409400
     41 H28         3.5070    0.4030    3.0740 hc        1 55A      0.164333
     42 H28A        1.9460    1.1440    3.6500 hc        1 55A      0.164333
     43 H28B        2.0970   -0.6680    3.5200 hc        1 55A      0.164333
     44 HN27        1.7710   -1.5970    1.0560 hn        1 55A      0.274667
     45 H22         3.2340   -0.8940    0.7000 hn        1 55A      0.274667
     46 H23         1.2260    1.2940   -3.8730 ha        1 55A      0.132000
     47 H23A        1.4810    2.0100   -1.2500 hc        1 55A      0.153500
     48 H25         0.1010    0.8800   -1.0120 hc        1 55A      0.153500
     49 H24        -1.8320    3.5790   -0.9020 hc        1 55A      0.167167
     50 H24A       -0.3930    4.6030   -1.2320 hc        1 55A      0.167167
     51 H24B       -0.2700    3.2510   -0.0070 hc        1 55A      0.167167
     52 H26        -1.6690    3.6140   -3.4570 hc        1 55A      0.167167
     53 H26A       -1.1150    1.9150   -3.9100 hc        1 55A      0.167167
     54 H26B        0.0210    3.2990   -4.0610 hc        1 55A      0.167167
     55 H12         4.3570   -3.6190   -7.6650 h1        1 55A      0.119500
     56 H12A        5.8480   -4.6870   -7.7410 h1        1 55A      0.119500
     57 H13         2.9570   -5.4980   -7.0110 hc        1 55A      0.092000
     58 H14         4.4000   -6.5800   -6.7230 hc        1 55A      0.092000
     59 H14A        3.1870   -7.5910   -5.0530 ha        1 55A      0.053500
     60 H14B        1.6450   -7.2240   -5.9640 ha        1 55A      0.053500
     61 H15         3.5910   -5.3200   -9.4370 hc        1 55A      0.098500
     62 H15A        5.0060   -6.4100   -9.1530 hc        1 55A      0.098500
     63 H16         3.4240   -4.8630   -4.9760 h1        1 55A      0.138500
     64 H16A        5.8000   -4.8880   -5.4350 hn        1 55A      0.206000
     65 H17         3.9490   -1.7760   -4.8720 h1        1 55A      0.142000
     66 H18         2.0430   -7.1650   -8.6370 hc        1 55A      0.090000
     67 H18A        3.4810   -8.2510   -8.4290 hc        1 55A      0.090000
     68 H18B        3.0350   -7.6460  -10.0750 hc        1 55A      0.090000
     69 HO18        2.2610   -3.1890   -6.6490 ho        1 55A      0.219000
     70 H19         1.6390   -0.7770   -4.8790 hn        1 55A      0.225000
     71 HN20        2.5180   -2.8330   -3.0400 h1        1 55A      0.113000
     72 H32         0.6670   -3.6280   -5.4120 hc        1 55A      0.121500
     73 H32A        1.5930   -4.7460   -4.3290 hc        1 55A      0.121500
     74 H33         0.2030   -3.0250   -2.5050 hc        1 55A      0.278000
     75 H34         0.5680   -5.5940   -2.3810 ha        1 55A      0.182000
     76 H35        -1.7280   -6.5190   -2.0240 ha        1 55A      0.197500
     77 H36        -3.7230   -5.3080   -2.9070 ha        1 55A      0.200000
     78 H37        -3.4610   -3.1480   -4.1320 ha        1 55A      0.197500
     79 H6          6.6150   -2.6760   -8.0920 h1        1 55A      0.227000
     80 H7          8.8150   -1.8590   -8.2630 ha        1 55A      0.216000
     81 H1          7.8570    2.9740   -7.3200 hn        1 55A      0.310000
     82 H272        1.8770   -0.5530   -0.2530 hn        1 55A      0.274667
     83 H111        4.5280   -3.9350   -3.8500 h1        1 55A      0.138500
     84 H202       -1.1760   -2.1800   -4.5060 ha        1 55A      0.182000
     85 C16         4.1070   -3.9580   -4.8970 c3        1 55A     -0.171000
     86 H4          4.5980   -1.3630   -7.4430 ha        1 55A      0.184000
@<TRIPOS>BOND
     1    1    2 1   
     2    1    3 1   
     3    1    4 1   
     4    3   41 1   
     5    3   42 1   
     6    3   43 1   
     7    4   44 1   
     8    4   45 1   
     9    4   82 1   
    10    5    6 1   
    11    5    8 1   
    12    5   46 1   
    13    6    7 1   
    14    6   21 1   
    15    8    9 1   
    16    8   47 1   
    17    8   48 1   
    18    9   10 1   
    19    9   11 1   
    20   10   49 1   
    21   10   50 1   
    22   10   51 1   
    23   11   52 1   
    24   11   53 1   
    25   11   54 1   
    26   12   13 1   
    27   12   64 1   
    28   12   85 1   
    29   13   14 1   
    30   13   55 1   
    31   13   56 1   
    32   14   16 1   
    33   14   57 1   
    34   14   58 1   
    35   15   59 1   
    36   15   60 1   
    37   16   18 1   
    38   16   61 1   
    39   16   62 1   
    40   17   19 1   
    41   17   20 1   
    42   17   65 1   
    43   17   85 1   
    44   18   66 1   
    45   18   67 1   
    46   18   68 1   
    47   19   69 1   
    48   20   21 1   
    49   20   22 1   
    50   20   71 1   
    51   21   70 1   
    52   22   28 1   
    53   22   72 1   
    54   22   73 1   
    55   23   24 1   
    56   23   28 1   
    57   23   75 1   
    58   24   25 1   
    59   24   76 1   
    60   25   26 1   
    61   25   77 1   
    62   26   27 1   
    63   26   78 1   
    64   27   28 1   
    65   27   84 1   
    66   28   74 1   
    67   29   30 1   
    68   29   31 1   
    69   30   32 1   
    70   30   81 1   
    71   31   33 1   
    72   32   33 1   
    73   32   37 1   
    74   33   34 1   
    75   34   35 1   
    76   34   86 1   
    77   35   36 1   
    78   35   38 1   
    79   35   79 1   
    80   36   37 1   
    81   36   80 1   
    82   38   39 1   
    83   38   40 1   
    84   63   85 1   
    85   83   85 1   
@<TRIPOS>SUBSTRUCTURE
     1 55A         1 TEMP              0 ****  ****    0 ROOT
