@<TRIPOS>MOLECULE
55A
   83    85     1     0     0
SMALL
bcc


@<TRIPOS>ATOM
      1 C27         4.6280   -2.2980    0.9050 c         1 55A      0.659100
      2 O27         3.8160   -3.1930    0.6090 o         1 55A     -0.596100
      3 C28         5.5820   -2.4730    2.0660 c3        1 55A     -0.180100
      4 N27         4.7750   -1.1250    0.1600 n         1 55A     -0.528900
      5 C22         3.7890   -0.6050   -0.7540 c3        1 55A      0.044700
      6 C21         2.6950    0.2250   -0.0230 c         1 55A      0.624100
      7 O22         2.5090    0.1330    1.2070 o         1 55A     -0.616100
      8 C23         3.0910   -1.6300   -1.6560 c3        1 55A     -0.077400
      9 C25         4.0510   -2.4330   -2.5220 c3        1 55A     -0.062700
     10 C24         3.2680   -3.4750   -3.2980 c3        1 55A     -0.092100
     11 C26         4.8330   -1.5530   -3.4730 c3        1 55A     -0.092100
     12 N11        -2.8000    1.3760    0.3150 n3        1 55A     -0.800500
     13 C12        -3.5980    1.0710   -0.8460 c3        1 55A      0.217800
     14 C13        -4.8040    1.9990   -1.0880 c3        1 55A     -0.094700
     15 C14        -4.3620    3.4210   -1.3540 c3        1 55A     -0.085100
     16 C15        -5.6010    1.4460   -2.2630 c3        1 55A     -0.074400
     17 C17        -0.4810    1.3790   -0.6560 c3        1 55A      0.088100
     18 C18        -7.0130    1.9750   -2.2930 c3        1 55A     -0.093100
     19 O18        -0.6670    1.4390   -2.0580 oh        1 55A     -0.595800
     20 C19         0.9160    1.9310   -0.2490 c3        1 55A      0.072700
     21 N20         1.9810    1.1210   -0.7910 n         1 55A     -0.553900
     22 C32         1.0440    3.4070   -0.6740 c3        1 55A     -0.049100
     23 C33         3.2850    4.4780   -1.0070 ca        1 55A     -0.123000
     24 C34         4.4260    5.1030   -0.5030 ca        1 55A     -0.127500
     25 C35         4.5640    5.3070    0.8690 ca        1 55A     -0.130000
     26 C36         3.5580    4.8850    1.7380 ca        1 55A     -0.127500
     27 C37         2.4170    4.2620    1.2380 ca        1 55A     -0.123000
     28 C38         2.2730    4.0520   -0.1400 ca        1 55A     -0.079300
     29 C1         -0.3910   -4.8090    2.1980 cc        1 55A      0.351100
     30 N1         -1.6450   -4.8240    1.7820 nd        1 55A     -0.533100
     31 S1          0.2820   -3.2790    2.5740 ss        1 55A      0.056900
     32 C2         -2.1310   -3.5090    1.7530 ca        1 55A      0.134400
     33 C3         -1.1720   -2.5190    2.1690 ca        1 55A     -0.143100
     34 C4         -1.5240   -1.1700    2.1770 ca        1 55A      0.046000
     35 C5         -2.7980   -0.7770    1.7810 ca        1 55A     -0.382500
     36 C6         -3.7360   -1.7570    1.3880 ca        1 55A     -0.040000
     37 C7         -3.4260   -3.1030    1.3680 ca        1 55A     -0.100000
     38 S8         -3.2480    0.8500    1.8000 sy        1 55A      1.502200
     39 O9         -4.6500    0.9270    1.9370 o         1 55A     -0.651300
     40 O10        -2.4800    1.5220    2.7790 o         1 55A     -0.651300
     41 H28         5.3420   -1.7320    2.8670 hc        1 55A      0.068033
     42 H28A        5.4610   -3.5040    2.4770 hc        1 55A      0.068033
     43 H28B        6.6400   -2.3330    1.7400 hc        1 55A      0.068033
     44 HN27        5.2780   -0.4010    0.6290 hn        1 55A      0.299500
     45 H22         4.3580    0.1170   -1.4230 h1        1 55A      0.070700
     46 H23         2.4930   -2.3400   -1.0220 hc        1 55A      0.065200
     47 H23A        2.3790   -1.0800   -2.3260 hc        1 55A      0.065200
     48 H25         4.7740   -2.9710   -1.8450 hc        1 55A      0.066700
     49 H24         2.5320   -2.9870   -3.9810 hc        1 55A      0.034200
     50 H24A        3.9610   -4.0980   -3.9120 hc        1 55A      0.034200
     51 H24B        2.7140   -4.1450   -2.5970 hc        1 55A      0.034200
     52 H26         5.5350   -0.8900   -2.9140 hc        1 55A      0.034200
     53 H26A        5.4330   -2.1830   -4.1730 hc        1 55A      0.034200
     54 H26B        4.1440   -0.9140   -4.0780 hc        1 55A      0.034200
     55 H12        -2.9430    1.0830   -1.7660 h1        1 55A      0.056200
     56 H12A       -3.9900    0.0170   -0.7210 h1        1 55A      0.056200
     57 H13        -5.4580    1.9860   -0.1690 hc        1 55A      0.081700
     58 H14        -3.5920    3.4510   -2.1630 hc        1 55A      0.033033
     59 H14A       -5.2330    4.0430   -1.6740 hc        1 55A      0.033033
     60 H14B       -3.9290    3.8780   -0.4320 hc        1 55A      0.033033
     61 H15        -5.0780    1.7040   -3.2210 hc        1 55A      0.038200
     62 H15A       -5.6370    0.3260   -2.1960 hc        1 55A      0.038200
     63 H16        -1.8510    3.0640   -0.4780 h1        1 55A      0.068200
     64 H16A       -1.1940    2.4470    1.1120 h1        1 55A      0.068200
     65 H17        -0.5190    0.2740   -0.4300 h1        1 55A      0.094700
     66 H18        -7.0220    3.0860   -2.4100 hc        1 55A      0.035700
     67 H18A       -7.5710    1.5280   -3.1510 hc        1 55A      0.035700
     68 H18B       -7.5510    1.7190   -1.3490 hc        1 55A      0.035700
     69 HO18       -0.7660    2.3680   -2.3030 ho        1 55A      0.399000
     70 H19         0.9860    1.8810    0.8810 h1        1 55A      0.100700
     71 HN20        2.0310    1.0650   -1.7810 hn        1 55A      0.316500
     72 H32         1.0260    3.4830   -1.7940 hc        1 55A      0.052200
     73 H32A        0.1460    3.9570   -0.2820 hc        1 55A      0.052200
     74 H33         3.1820    4.3220   -2.0910 ha        1 55A      0.132500
     75 H34         5.2160    5.4370   -1.1920 ha        1 55A      0.133000
     76 H35         5.4630    5.8010    1.2650 ha        1 55A      0.132000
     77 H36         3.6640    5.0450    2.8220 ha        1 55A      0.133000
     78 H37         1.6260    3.9290    1.9270 ha        1 55A      0.132500
     79 H4         -0.7920   -0.4120    2.5110 ha        1 55A      0.163000
     80 H6         -4.7530   -1.4280    1.1080 ha        1 55A      0.156000
     81 H7         -4.1690   -3.8540    1.0620 ha        1 55A      0.159000
     82 C16        -1.5970    2.1290    0.1050 c3        1 55A      0.191800
     83 H1          0.1870   -5.7360    2.2890 h5        1 55A      0.067800
@<TRIPOS>BOND
     1    1    2 2   
     2    1    3 1   
     3    1    4 1   
     4    3   41 1   
     5    3   42 1   
     6    3   43 1   
     7    4    5 1   
     8    4   44 1   
     9    5    6 1   
    10    5    8 1   
    11    5   45 1   
    12    6    7 2   
    13    6   21 1   
    14    8    9 1   
    15    8   46 1   
    16    8   47 1   
    17    9   10 1   
    18    9   11 1   
    19    9   48 1   
    20   10   49 1   
    21   10   50 1   
    22   10   51 1   
    23   11   52 1   
    24   11   53 1   
    25   11   54 1   
    26   12   13 1   
    27   12   38 1   
    28   12   82 1   
    29   13   14 1   
    30   13   55 1   
    31   13   56 1   
    32   14   15 1   
    33   14   16 1   
    34   14   57 1   
    35   15   58 1   
    36   15   59 1   
    37   15   60 1   
    38   16   18 1   
    39   16   61 1   
    40   16   62 1   
    41   17   19 1   
    42   17   20 1   
    43   17   65 1   
    44   17   82 1   
    45   18   66 1   
    46   18   67 1   
    47   18   68 1   
    48   19   69 1   
    49   20   21 1   
    50   20   22 1   
    51   20   70 1   
    52   21   71 1   
    53   22   28 1   
    54   22   72 1   
    55   22   73 1   
    56   23   24 ar  
    57   23   28 ar  
    58   23   74 1   
    59   24   25 ar  
    60   24   75 1   
    61   25   26 ar  
    62   25   76 1   
    63   26   27 ar  
    64   26   77 1   
    65   27   28 ar  
    66   27   78 1   
    67   29   30 2   
    68   29   31 1   
    69   29   83 1   
    70   30   32 1   
    71   31   33 1   
    72   32   33 ar  
    73   32   37 ar  
    74   33   34 ar  
    75   34   35 ar  
    76   34   79 1   
    77   35   36 ar  
    78   35   38 1   
    79   36   37 ar  
    80   36   80 1   
    81   37   81 1   
    82   38   39 2   
    83   38   40 2   
    84   63   82 1   
    85   64   82 1   
@<TRIPOS>SUBSTRUCTURE
     1 55A         1 TEMP              0 ****  ****    0 ROOT
