@<TRIPOS>MOLECULE
55A
   83    76     1     0     0
SMALL
bcc


@<TRIPOS>ATOM
      1 C27        -3.7550    2.2070    4.6310 c1        1 55A      0.311000
      2 O27        -4.6670    2.2580    3.8190 o         1 55A     -0.398000
      3 C28        -4.0480    1.8340    6.0910 c3        1 55A     -0.241000
      4 N27        -2.4020    2.5020    4.2180 n2        1 55A     -0.373000
      5 C22        -2.0980    2.6500    2.8410 c3        1 55A      0.015000
      6 C21        -1.0200    1.6520    2.4490 c1        1 55A      0.284000
      7 O22         0.0270    1.6080    3.0740 o         1 55A     -0.400000
      8 C23        -1.6000    4.0700    2.5790 c3        1 55A     -0.159000
      9 C25        -2.7400    5.0870    2.8910 c3        1 55A     -0.108000
     10 C24        -2.1450    6.3310    3.5710 c3        1 55A     -0.210500
     11 C26        -3.4320    5.5010    1.5770 c3        1 55A     -0.210500
     12 N11         1.4780   -1.5490   -1.8990 n3        1 55A     -0.821000
     13 C12         0.7160   -1.3010   -3.1350 c3        1 55A     -0.020000
     14 C13         0.6230   -2.5930   -3.9440 c3        1 55A     -0.134000
     15 C14        -0.7550   -3.2010   -3.7700 c3        1 55A     -0.202000
     16 C15         0.8590   -2.2900   -5.4120 c3        1 55A     -0.154000
     17 C16         0.7740   -1.6600   -0.6150 c3        1 55A     -0.046000
     18 C17         0.2060   -0.2980   -0.2260 c3        1 55A     -0.022000
     19 C18         1.0480   -3.6050   -6.1830 c3        1 55A     -0.211000
     20 O18        -0.8010    0.0650   -1.1310 oh        1 55A     -0.316000
     21 C19        -0.3760   -0.3710    1.1760 c3        1 55A      0.004000
     22 N20        -1.2590    0.7150    1.3780 n2        1 55A     -0.360000
     23 C32        -1.1390   -1.6840    1.3440 c3        1 55A     -0.136000
     24 C33        -2.6760   -2.3840    2.9650 c1        1 55A     -0.124000
     25 C34        -3.0570   -3.2160    4.0150 c1        1 55A     -0.128750
     26 C35        -2.1130   -3.6330    4.9500 c1        1 55A     -0.128750
     27 C36        -0.7910   -3.2190    4.8360 c1        1 55A     -0.128750
     28 C37        -0.4100   -2.3870    3.7860 c1        1 55A     -0.128750
     29 C38        -1.3530   -1.9690    2.8510 c1        1 55A     -0.078000
     30 C1          8.4760    0.1230   -4.6830 c1        1 55A     -0.296000
     31 N1          7.4010    0.5660   -5.5170 n2        1 55A     -0.102000
     32 S1          7.8620   -0.5570   -3.4400 ss        1 55A      0.478000
     33 C2          6.0290    0.1750   -4.8190 c1        1 55A     -0.009000
     34 C3          6.3230   -0.4910   -3.5870 c1        1 55A     -0.356000
     35 C4          5.2810   -0.8890   -2.7420 c1        1 55A      0.053000
     36 C5          3.9430   -0.6330   -3.1050 c1        1 55A     -0.823000
     37 C6          3.6530    0.0260   -4.3240 c1        1 55A     -0.041000
     38 C7          4.7020    0.4270   -5.1760 c1        1 55A     -0.103000
     39 S8          3.1600   -1.8210   -1.9750 s6        1 55A      2.840000
     40 O9          3.4530   -3.1800   -2.3600 o         1 55A     -0.932500
     41 O10         3.7590   -1.7670   -0.6600 o         1 55A     -0.932500
     42 H28        -4.8970    1.6930    6.5740 hc        1 55A      0.109667
     43 H28A       -4.3570    1.0130    5.6460 hc        1 55A      0.109667
     44 H28B       -4.3980    2.7520    6.0820 hc        1 55A      0.109667
     45 HN27       -1.7490    2.6410    4.8500 hn        1 55A      0.233000
     46 H22        -2.9080    2.4830    2.3070 h1        1 55A      0.135000
     47 H23        -1.3320    4.1550    1.6340 hc        1 55A      0.105000
     48 H23A       -0.8240    4.2580    3.1590 hc        1 55A      0.105000
     49 H25        -3.3970    4.6690    3.4890 hc        1 55A      0.088000
     50 H24        -1.5220    6.7750    2.9540 hc        1 55A      0.075667
     51 H24A       -1.6640    6.0610    4.3840 hc        1 55A      0.075667
     52 H24B       -2.8700    6.9530    3.8100 hc        1 55A      0.075667
     53 H26        -3.8420    6.3910    1.6880 hc        1 55A      0.075667
     54 H26A       -2.7680    5.5350    0.8540 hc        1 55A      0.075667
     55 H26B       -4.1280    4.8450    1.3520 hc        1 55A      0.075667
     56 H12        -0.1920   -0.9900   -2.9050 h1        1 55A      0.097000
     57 H12A        1.1720   -0.6130   -3.6680 h1        1 55A      0.097000
     58 H13         1.3040   -3.2280   -3.6270 hc        1 55A      0.119000
     59 H14        -0.9130   -3.3880   -2.8180 hc        1 55A      0.072333
     60 H14A       -1.4370   -2.5700   -4.0980 hc        1 55A      0.072333
     61 H14B       -0.8100   -4.0420   -4.2840 hc        1 55A      0.072333
     62 H15         1.6650   -1.7370   -5.5060 hc        1 55A      0.078000
     63 H15A        0.0830   -1.8040   -5.7760 hc        1 55A      0.078000
     64 H16         0.0430   -2.3090   -0.6990 h1        1 55A      0.106000
     65 H16A        1.4030   -1.9630    0.0770 h1        1 55A      0.106000
     66 H17         0.9280    0.3780   -0.2480 h1        1 55A      0.141000
     67 H18         1.4910   -4.2630   -5.6060 hc        1 55A      0.074667
     68 H18A        1.6030   -3.4410   -6.9800 hc        1 55A      0.074667
     69 H18B        0.1710   -3.9510   -6.4610 hc        1 55A      0.074667
     70 HO18       -1.5510   -0.3620   -0.9260 ho        1 55A      0.194000
     71 H19         0.3540   -0.3280    1.8380 h1        1 55A      0.124000
     72 HN20       -1.9860    0.8240    0.8260 hn        1 55A      0.255000
     73 H32        -0.6220   -2.4160    0.9430 hc        1 55A      0.096500
     74 H32A       -2.0140   -1.6160    0.8940 hc        1 55A      0.096500
     75 H33        -3.3430   -2.0890    2.3050 ha        1 55A      0.146000
     76 H34        -3.9920   -3.5090    4.0960 ha        1 55A      0.132500
     77 H35        -2.3830   -4.2220    5.6920 ha        1 55A      0.132500
     78 H36        -0.1250   -3.5140    5.4960 ha        1 55A      0.132500
     79 H37         0.5270   -2.0940    3.7050 ha        1 55A      0.132500
     80 H1          9.4350    0.1800   -4.8960 DU        1 55A      0.192000
     81 H4          5.4820   -1.3440   -1.8980 ha        1 55A      0.176000
     82 H6          2.7240    0.2040   -4.5760 ha        1 55A      0.163000
     83 H7          4.5000    0.8850   -6.0220 ha        1 55A      0.158000
@<TRIPOS>BOND
     1    1    2 1   
     2    1    3 1   
     3    3   42 1   
     4    3   43 1   
     5    3   44 1   
     6    4    5 1   
     7    4   45 1   
     8    5    6 1   
     9    5    8 1   
    10    5   46 1   
    11    6    7 1   
    12    8    9 1   
    13    8   47 1   
    14    8   48 1   
    15    9   10 1   
    16    9   11 1   
    17    9   49 1   
    18   10   50 1   
    19   10   51 1   
    20   10   52 1   
    21   11   53 1   
    22   11   54 1   
    23   11   55 1   
    24   12   13 1   
    25   12   17 1   
    26   12   39 1   
    27   13   14 1   
    28   13   56 1   
    29   13   57 1   
    30   14   15 1   
    31   14   16 1   
    32   14   58 1   
    33   15   59 1   
    34   15   60 1   
    35   15   61 1   
    36   16   19 1   
    37   16   62 1   
    38   16   63 1   
    39   17   18 1   
    40   17   64 1   
    41   17   65 1   
    42   18   20 1   
    43   18   21 1   
    44   18   66 1   
    45   19   67 1   
    46   19   68 1   
    47   19   69 1   
    48   20   70 1   
    49   21   22 1   
    50   21   23 1   
    51   21   71 1   
    52   22   72 1   
    53   23   29 1   
    54   23   73 1   
    55   23   74 1   
    56   24   29 1   
    57   24   75 1   
    58   25   26 1   
    59   25   76 1   
    60   26   77 1   
    61   27   28 1   
    62   27   78 1   
    63   28   79 1   
    64   30   31 1   
    65   30   32 1   
    66   31   33 1   
    67   32   34 1   
    68   33   38 1   
    69   34   35 1   
    70   35   81 1   
    71   36   37 1   
    72   36   39 1   
    73   37   82 1   
    74   38   83 1   
    75   39   40 1   
    76   39   41 1   
@<TRIPOS>SUBSTRUCTURE
     1 55A         1 TEMP              0 ****  ****    0 ROOT
