@<TRIPOS>MOLECULE
55B
   29    29     1     0     0
SMALL
bcc


@<TRIPOS>ATOM
      1 CAA        -0.2660    0.1270    0.2950 c3        1 55B      0.115700
      2 OAJ         1.1040   -0.2590    0.3380 os        1 55B     -0.324400
      3 CAN         1.7600   -0.0240    1.5300 ca        1 55B      0.091600
      4 CAG         1.1800    0.5640    2.6560 ca        1 55B     -0.187500
      5 CAM         3.1170   -0.4220    1.5550 ca        1 55B      0.086100
      6 OAD         3.6370   -1.0080    0.4270 oh        1 55B     -0.473100
      7 CAO         3.8610   -0.2170    2.7340 ca        1 55B      0.091600
      8 OAK         5.1730   -0.6640    2.6750 os        1 55B     -0.324400
      9 CAB         6.0490   -0.1310    3.6630 c3        1 55B      0.115700
     10 CAH         3.2770    0.3670    3.8610 ca        1 55B     -0.187500
     11 CAL         1.9350    0.7540    3.8210 ca        1 55B     -0.030800
     12 CAF         1.3100    1.3970    4.9730 ce        1 55B     -0.128200
     13 CAE         1.1560    0.8600    6.1860 c2        1 55B     -0.147200
     14 CAI         1.5750   -0.5170    6.5610 c3        1 55B      0.157600
     15 OAC         1.3850   -0.6570    7.9640 oh        1 55B     -0.602800
     16 H1         -0.8600   -0.4320    1.0580 h1        1 55B      0.045367
     17 H2         -0.5800   -0.1610   -0.7400 h1        1 55B      0.045367
     18 H3         -0.3710    1.2290    0.4470 h1        1 55B      0.045367
     19 H4          0.1280    0.8820    2.6400 ha        1 55B      0.143500
     20 H5          4.5880   -1.1340    0.5740 ho        1 55B      0.431000
     21 H6          5.9890    0.9830    3.6940 h1        1 55B      0.045367
     22 H7          5.8080   -0.5650    4.6640 h1        1 55B      0.045367
     23 H8          7.0610   -0.4680    3.3220 h1        1 55B      0.045367
     24 H9          3.8670    0.5300    4.7740 ha        1 55B      0.143500
     25 H10         0.9360    2.4170    4.7720 ha        1 55B      0.134000
     26 H12         0.6750    1.4310    7.0000 ha        1 55B      0.146000
     27 H14         0.9510   -1.2760    6.0140 h1        1 55B      0.036700
     28 H15         2.6570   -0.6910    6.3080 h1        1 55B      0.036700
     29 H16         1.6080   -1.5690    8.1790 ho        1 55B      0.402000
@<TRIPOS>BOND
     1    1    2 1   
     2    1   16 1   
     3    1   17 1   
     4    1   18 1   
     5    2    3 1   
     6    3    4 ar  
     7    3    5 ar  
     8    4   11 ar  
     9    4   19 1   
    10    5    6 1   
    11    5    7 ar  
    12    6   20 1   
    13    7    8 1   
    14    7   10 ar  
    15    8    9 1   
    16    9   21 1   
    17    9   22 1   
    18    9   23 1   
    19   10   11 ar  
    20   10   24 1   
    21   11   12 1   
    22   12   13 2   
    23   12   25 1   
    24   13   14 1   
    25   13   26 1   
    26   14   15 1   
    27   14   27 1   
    28   14   28 1   
    29   15   29 1   
@<TRIPOS>SUBSTRUCTURE
     1 55B         1 TEMP              0 ****  ****    0 ROOT
