@<TRIPOS>MOLECULE
55C
   41    43     1     0     0
SMALL
bcc


@<TRIPOS>ATOM
      1 C5         -0.0380   -0.4270   -0.0220 ca        1 55C     -0.038000
      2 C3          2.2270    0.1550    0.6250 ca        1 55C     -0.137000
      3 C2          1.7250    0.8890    1.7260 ca        1 55C     -0.138000
      4 C4          1.3670   -0.4880   -0.2300 ca        1 55C     -0.115000
      5 N1         -7.1920   -2.0320   -0.3170 n         1 55C     -0.450100
      6 O21        -7.0510   -0.7720    1.6370 o         1 55C     -0.645100
      7 C13        -6.5150   -1.3350    0.6540 c         1 55C      0.656300
      8 C15        -8.5780   -2.2260   -0.4420 ca        1 55C      0.082600
      9 C17        -9.4790   -1.8720    0.5860 ca        1 55C     -0.188000
     10 C16       -10.8440   -2.0960    0.4380 ca        1 55C     -0.132000
     11 C20       -11.3440   -2.6680   -0.7270 ca        1 55C     -0.185000
     12 C19       -10.4630   -3.0150   -1.7490 ca        1 55C     -0.089000
     13 C18        -9.0870   -2.8100   -1.6370 ca        1 55C     -0.165600
     14 C21        -8.2370   -3.2340   -2.8280 c         1 55C      0.912200
     15 O22        -6.9850   -3.4030   -2.6900 o         1 55C     -0.831800
     16 O23        -8.8270   -3.4180   -3.9280 o         1 55C     -0.831800
     17 C12        -5.0310   -1.3050    0.4720 ce        1 55C     -0.198200
     18 C14        -4.8080    1.1020    1.0910 c3        1 55C     -0.063900
     19 C10        -2.8200   -0.2750    0.4430 ca        1 55C     -0.043800
     20 C9         -2.3060   -1.0100   -0.6640 ca        1 55C     -0.108000
     21 C8         -0.9550   -1.0820   -0.8890 ca        1 55C     -0.126000
     22 C6         -0.5430    0.3090    1.0810 ca        1 55C     -0.038000
     23 C7         -1.9450    0.3730    1.2910 ca        1 55C     -0.115000
     24 C1          0.3720    0.9650    1.9500 ca        1 55C     -0.115000
     25 H1          3.3140    0.1080    0.4660 ha        1 55C      0.124000
     26 H2          2.4330    1.3950    2.3970 ha        1 55C      0.124000
     27 H3          1.7460   -1.0620   -1.0890 ha        1 55C      0.129000
     28 H4         -6.6490   -2.4280   -1.0790 hn        1 55C      0.380500
     29 H5         -9.1110   -1.4140    1.5180 ha        1 55C      0.152000
     30 H6        -11.5270   -1.8150    1.2530 ha        1 55C      0.106000
     31 H7        -12.4220   -2.8420   -0.8430 ha        1 55C      0.108000
     32 H8        -10.8380   -3.4560   -2.6890 ha        1 55C      0.155000
     33 H10        -4.5750   -2.2640    0.1670 ha        1 55C      0.146000
     34 H11        -4.3030    1.9330    0.5400 hc        1 55C      0.051367
     35 H12        -4.6280    1.2390    2.1880 hc        1 55C      0.051367
     36 H13        -5.9110    1.1630    0.9160 hc        1 55C      0.051367
     37 H14        -3.0160   -1.5130   -1.3410 ha        1 55C      0.156000
     38 H15        -0.5600   -1.6480   -1.7460 ha        1 55C      0.134000
     39 H16        -2.3250    0.9490    2.1500 ha        1 55C      0.135000
     40 H17        -0.0280    1.5320    2.8040 ha        1 55C      0.129000
     41 C11        -4.2710   -0.2130    0.6590 cf        1 55C     -0.026400
@<TRIPOS>BOND
     1    1    4 ar  
     2    1   21 ar  
     3    1   22 ar  
     4    2    3 ar  
     5    2    4 ar  
     6    2   25 1   
     7    3   24 ar  
     8    3   26 1   
     9    4   27 1   
    10    5    7 1   
    11    5    8 1   
    12    5   28 1   
    13    6    7 2   
    14    7   17 1   
    15    8    9 ar  
    16    8   13 ar  
    17    9   10 ar  
    18    9   29 1   
    19   10   11 ar  
    20   10   30 1   
    21   11   12 ar  
    22   11   31 1   
    23   12   13 ar  
    24   12   32 1   
    25   13   14 1   
    26   14   15 1   
    27   14   16 1   
    28   17   33 1   
    29   17   41 2   
    30   18   34 1   
    31   18   35 1   
    32   18   36 1   
    33   18   41 1   
    34   19   20 ar  
    35   19   23 ar  
    36   19   41 1   
    37   20   21 ar  
    38   20   37 1   
    39   21   38 1   
    40   22   23 ar  
    41   22   24 ar  
    42   23   39 1   
    43   24   40 1   
@<TRIPOS>SUBSTRUCTURE
     1 55C         1 TEMP              0 ****  ****    0 ROOT
