@<TRIPOS>MOLECULE
55C
   41    41     1     0     0
SMALL
bcc


@<TRIPOS>ATOM
      1 C5          0.0780   -0.0320   -0.5390 c2        1 55C     -0.125000
      2 C3          2.4570    0.5590   -0.4970 c2        1 55C     -0.214000
      3 C2          0.5770    0.8460    3.9040 c1        1 55C      0.211000
      4 C4          1.4480   -0.1630   -0.9920 c2        1 55C     -0.131000
      5 N1         -7.1840   -2.1830   -0.4980 ns        1 55C     -0.295000
      6 O21        -7.1620   -0.5910    1.1860 o         1 55C     -0.407000
      7 C13        -6.5490   -1.3000    0.3530 c2        1 55C      0.329000
      8 C15        -8.5600   -2.3350   -0.6770 c2        1 55C      0.079000
      9 C17        -9.4900   -1.5860    0.2380 c3        1 55C     -0.129000
     10 C16       -10.9230   -1.8950    0.0360 c2        1 55C     -0.170000
     11 C20       -11.3410   -2.6620   -0.9920 c2        1 55C     -0.177000
     12 C19       -10.4290   -3.0540   -2.0270 c1        1 55C     -0.044000
     13 C18        -9.0530   -3.1070   -1.7210 c2        1 55C     -0.220000
     14 C21        -8.1280   -3.9620   -2.5810 c2        1 55C      0.383000
     15 O22        -7.0270   -3.4480   -2.9640 o         1 55C     -0.566000
     16 O23        -8.4560   -5.1490   -2.8250 o         1 55C     -0.566000
     17 C12        -5.0640   -1.2670    0.2420 c2        1 55C     -0.197000
     18 C14        -4.8620    0.9310    1.3980 c3        1 55C     -0.186000
     19 C10        -2.8430   -0.2830    0.5110 c2        1 55C      0.018000
     20 C9         -2.3180   -0.6720   -0.6780 c2        1 55C     -0.091000
     21 C8         -0.9300   -0.7580   -1.0540 c2        1 55C     -0.125000
     22 C6         -1.4440    0.4000    2.6020 c1        1 55C     -0.115000
     23 C7         -2.0750    0.0960    1.6270 c1        1 55C     -0.071000
     24 C1         -0.7310    0.7550    3.7440 c2        1 55C     -0.346000
     25 H1          1.6270   -0.9080   -1.7870 ha        1 55C      0.121000
     26 H2          2.3210    1.3080    0.2940 ha        1 55C      0.111000
     27 H3          3.4870    0.4410   -0.8550 ha        1 55C      0.111000
     28 H4         -6.6220   -2.6560   -1.2020 hn        1 55C      0.297000
     29 H5         -9.2150   -1.8230    1.3060 hc        1 55C      0.123500
     30 H6         -9.3230   -0.4770    0.1120 hc        1 55C      0.123500
     31 H7        -11.6120   -1.4320    0.7560 ha        1 55C      0.106000
     32 H8        -12.3980   -2.9410   -1.1180 ha        1 55C      0.125000
     33 H10        -4.5920   -2.1360   -0.2510 ha        1 55C      0.149000
     34 H11        -5.7320    1.3430    0.8250 hc        1 55C      0.095000
     35 H12        -5.2450    0.6280    2.4060 hc        1 55C      0.095000
     36 H13        -4.0940    1.7320    1.5240 hc        1 55C      0.095000
     37 H14        -3.0230   -0.9800   -1.4770 ha        1 55C      0.152000
     38 H15        -0.7280   -1.4820   -1.8660 ha        1 55C      0.130000
     39 H16        -0.1060    0.7100    0.2580 ha        1 55C      0.132000
     40 H17        -1.3590    0.9870    4.6400 ha        1 55C      0.201000
     41 C11        -4.3070   -0.2520    0.6990 c2        1 55C     -0.012000
@<TRIPOS>BOND
     1    1    4 1   
     2    1   21 1   
     3    1   39 1   
     4    2    4 1   
     5    2   26 1   
     6    2   27 1   
     7    3   24 1   
     8    4   25 1   
     9    5    7 1   
    10    5    8 1   
    11    5   28 1   
    12    6    7 1   
    13    7   17 1   
    14    8    9 1   
    15    8   13 1   
    16    9   10 1   
    17    9   29 1   
    18    9   30 1   
    19   10   11 1   
    20   10   31 1   
    21   11   12 1   
    22   11   32 1   
    23   12   13 1   
    24   13   14 1   
    25   14   15 1   
    26   14   16 1   
    27   17   33 1   
    28   17   41 1   
    29   18   34 1   
    30   18   35 1   
    31   18   36 1   
    32   18   41 1   
    33   19   20 1   
    34   19   23 1   
    35   19   41 1   
    36   20   21 1   
    37   20   37 1   
    38   21   38 1   
    39   22   23 1   
    40   22   24 1   
    41   24   40 1   
@<TRIPOS>SUBSTRUCTURE
     1 55C         1 TEMP              0 ****  ****    0 ROOT
