@<TRIPOS>MOLECULE
55E
   35    37     1     0     0
SMALL
bcc


@<TRIPOS>ATOM
      1 O3          0.0150   -1.6950   -0.0600 o         1 55E     -0.465100
      2 C2          1.1480   -1.1980   -0.0310 c         1 55E      0.793900
      3 N4          1.7840   -0.9570    1.2430 ne        1 55E     -0.636100
      4 C5          3.0390   -0.6210    1.2570 cf        1 55E      0.538900
      5 C6          3.7350   -0.3280    2.5240 ca        1 55E     -0.195900
      6 C21         3.0200    0.1740    3.6230 ca        1 55E     -0.044000
      7 C19         3.6600    0.4690    4.8270 ca        1 55E     -0.107300
      8 C20         2.9150    1.0080    5.9850 c3        1 55E     -0.045800
      9 C17         5.0500    0.2390    4.9220 ca        1 55E      0.145100
     10 O18         5.6460    0.5400    6.1220 oh        1 55E     -0.489100
     11 C16         5.7720   -0.2720    3.8340 ca        1 55E     -0.220000
     12 C15         5.1130   -0.5520    2.6420 ca        1 55E     -0.072000
     13 C7          3.8880   -0.4950    0.0130 c3        1 55E     -0.289000
     14 C8          3.0490   -0.5040   -1.2430 ce        1 55E      0.529900
     15 N1          1.7940   -0.8370   -1.2730 nf        1 55E     -0.629100
     16 C9          3.7580   -0.0950   -2.4720 ca        1 55E     -0.160900
     17 C14         5.1180   -0.3930   -2.6350 ca        1 55E     -0.091000
     18 C13         5.7870    0.0010   -3.7910 ca        1 55E     -0.137500
     19 C12         5.1080    0.6960   -4.7930 ca        1 55E     -0.106000
     20 C11         3.7540    0.9910   -4.6370 ca        1 55E     -0.137500
     21 C10         3.0760    0.5950   -3.4840 ca        1 55E     -0.091000
     22 H21         1.9320    0.3400    3.5430 ha        1 55E      0.163000
     23 H20         1.8140    1.0030    5.7980 hc        1 55E      0.051700
     24 H20A        3.1310    0.3970    6.8970 hc        1 55E      0.051700
     25 H20B        3.2410    2.0580    6.1920 hc        1 55E      0.051700
     26 HO18        6.5860    0.3170    6.0550 ho        1 55E      0.422000
     27 H16         6.8530   -0.4540    3.9250 ha        1 55E      0.138000
     28 H15         5.6890   -0.9590    1.7980 ha        1 55E      0.131000
     29 H7          4.6030   -1.3620   -0.0250 hc        1 55E      0.099700
     30 H7A         4.4880    0.4520    0.0580 hc        1 55E      0.099700
     31 H14         5.6640   -0.9470   -1.8570 ha        1 55E      0.143500
     32 H13         6.8530   -0.2400   -3.9150 ha        1 55E      0.139000
     33 H12         5.6390    1.0060   -5.7040 ha        1 55E      0.137000
     34 H11         3.2140    1.5340   -5.4270 ha        1 55E      0.139000
     35 H10         2.0040    0.8240   -3.3750 ha        1 55E      0.143500
@<TRIPOS>BOND
     1    1    2 2   
     2    2    3 1   
     3    2   15 1   
     4    3    4 2   
     5    4    5 1   
     6    4   13 1   
     7    5    6 ar  
     8    5   12 ar  
     9    6    7 ar  
    10    6   22 1   
    11    7    8 1   
    12    7    9 ar  
    13    8   23 1   
    14    8   24 1   
    15    8   25 1   
    16    9   10 1   
    17    9   11 ar  
    18   10   26 1   
    19   11   12 ar  
    20   11   27 1   
    21   12   28 1   
    22   13   14 1   
    23   13   29 1   
    24   13   30 1   
    25   14   15 2   
    26   14   16 1   
    27   16   17 ar  
    28   16   21 ar  
    29   17   18 ar  
    30   17   31 1   
    31   18   19 ar  
    32   18   32 1   
    33   19   20 ar  
    34   19   33 1   
    35   20   21 ar  
    36   20   34 1   
    37   21   35 1   
@<TRIPOS>SUBSTRUCTURE
     1 55E         1 TEMP              0 ****  ****    0 ROOT
