@<TRIPOS>MOLECULE
55E
   35    37     1     0     0
SMALL
bcc


@<TRIPOS>ATOM
      1 O3          0.0150   -1.6900   -0.0680 o         1 55E     -0.465100
      2 C2          1.1480   -1.1940   -0.0360 c         1 55E      0.793900
      3 N4          1.7840   -0.9580    1.2380 ne        1 55E     -0.636100
      4 C5          3.0390   -0.6220    1.2550 cf        1 55E      0.538900
      5 C6          3.7340   -0.3340    2.5230 ca        1 55E     -0.195900
      6 C21         3.0190    0.1650    3.6230 ca        1 55E     -0.044000
      7 C19         3.6590    0.4550    4.8280 ca        1 55E     -0.107300
      8 C20         2.9120    0.9900    5.9880 c3        1 55E     -0.045800
      9 C17         5.0480    0.2250    4.9230 ca        1 55E      0.145100
     10 O18         5.6430    0.5210    6.1250 oh        1 55E     -0.488100
     11 C16         5.7710   -0.2830    3.8340 ca        1 55E     -0.220000
     12 C15         5.1120   -0.5580    2.6410 ca        1 55E     -0.072000
     13 C7          3.8880   -0.4920    0.0110 c3        1 55E     -0.289000
     14 C8          3.0490   -0.4970   -1.2450 ce        1 55E      0.529900
     15 N1          1.7950   -0.8300   -1.2770 nf        1 55E     -0.629100
     16 C9          3.7600   -0.0840   -2.4720 ca        1 55E     -0.160900
     17 C14         5.1200   -0.3820   -2.6350 ca        1 55E     -0.091000
     18 C13         5.7890    0.0150   -3.7900 ca        1 55E     -0.137500
     19 C12         5.1110    0.7140   -4.7900 ca        1 55E     -0.106000
     20 C11         3.7580    1.0100   -4.6340 ca        1 55E     -0.137500
     21 C10         3.0790    0.6100   -3.4820 ca        1 55E     -0.091000
     22 H21         1.9310    0.3310    3.5430 ha        1 55E      0.163000
     23 H20         3.1250    0.3740    6.8980 hc        1 55E      0.051700
     24 H20A        1.8110    0.9890    5.7990 hc        1 55E      0.051700
     25 H20B        3.2400    2.0390    6.2010 hc        1 55E      0.051700
     26 HO18        6.5830    0.2980    6.0580 ho        1 55E      0.422000
     27 H16         6.8510   -0.4650    3.9250 ha        1 55E      0.138000
     28 H15         5.6890   -0.9630    1.7960 ha        1 55E      0.131000
     29 H7          4.6030   -1.3600   -0.0300 hc        1 55E      0.099700
     30 H7A         4.4880    0.4540    0.0600 hc        1 55E      0.099700
     31 H14         5.6650   -0.9390   -1.8600 ha        1 55E      0.143500
     32 H13         6.8560   -0.2260   -3.9140 ha        1 55E      0.139000
     33 H12         5.6430    1.0280   -5.7000 ha        1 55E      0.137000
     34 H11         3.2180    1.5560   -5.4220 ha        1 55E      0.139000
     35 H10         2.0070    0.8380   -3.3730 ha        1 55E      0.143500
@<TRIPOS>BOND
     1    1    2 2   
     2    2    3 1   
     3    2   15 1   
     4    3    4 2   
     5    4    5 1   
     6    4   13 1   
     7    5    6 ar  
     8    5   12 ar  
     9    6    7 ar  
    10    6   22 1   
    11    7    8 1   
    12    7    9 ar  
    13    8   23 1   
    14    8   24 1   
    15    8   25 1   
    16    9   10 1   
    17    9   11 ar  
    18   10   26 1   
    19   11   12 ar  
    20   11   27 1   
    21   12   28 1   
    22   13   14 1   
    23   13   29 1   
    24   13   30 1   
    25   14   15 2   
    26   14   16 1   
    27   16   17 ar  
    28   16   21 ar  
    29   17   18 ar  
    30   17   31 1   
    31   18   19 ar  
    32   18   32 1   
    33   19   20 ar  
    34   19   33 1   
    35   20   21 ar  
    36   20   34 1   
    37   21   35 1   
@<TRIPOS>SUBSTRUCTURE
     1 55E         1 TEMP              0 ****  ****    0 ROOT
