@<TRIPOS>MOLECULE
55E
   35    37     1     0     0
SMALL
bcc


@<TRIPOS>ATOM
      1 O3          0.1110   -1.8960   -0.0530 o         1 55E     -0.465100
      2 C2          1.2170   -1.3420   -0.0260 c         1 55E      0.793900
      3 N4          1.8400   -1.0650    1.2460 ne        1 55E     -0.636100
      4 C5          3.0770   -0.6650    1.2600 cf        1 55E      0.538900
      5 C6          3.7570   -0.3330    2.5260 ca        1 55E     -0.195900
      6 C21         3.0180    0.1380    3.6210 ca        1 55E     -0.044000
      7 C19         3.6420    0.4690    4.8240 ca        1 55E     -0.107300
      8 C20         2.8700    0.9770    5.9790 c3        1 55E     -0.045800
      9 C17         5.0410    0.3100    4.9200 ca        1 55E      0.145100
     10 O18         5.6200    0.6450    6.1200 oh        1 55E     -0.489100
     11 C16         5.7880   -0.1700    3.8350 ca        1 55E     -0.220000
     12 C15         5.1440   -0.4870    2.6450 ca        1 55E     -0.072000
     13 C7          3.9180   -0.5020    0.0150 c3        1 55E     -0.289000
     14 C8          3.0800   -0.5580   -1.2410 ce        1 55E      0.529900
     15 N1          1.8440   -0.9540   -1.2700 nf        1 55E     -0.629100
     16 C9          3.7680   -0.1180   -2.4720 ca        1 55E     -0.160900
     17 C14         5.1420   -0.3470   -2.6330 ca        1 55E     -0.091000
     18 C13         5.7900    0.0750   -3.7910 ca        1 55E     -0.137500
     19 C12         5.0760    0.7310   -4.7960 ca        1 55E     -0.106000
     20 C11         3.7100    0.9580   -4.6410 ca        1 55E     -0.137500
     21 C10         3.0530    0.5320   -3.4860 ca        1 55E     -0.091000
     22 H21         1.9230    0.2500    3.5410 ha        1 55E      0.163000
     23 H20         1.7700    0.9080    5.7960 hc        1 55E      0.051700
     24 H20A        3.1370    2.0460    6.1760 hc        1 55E      0.051700
     25 H20B        3.1210    0.3870    6.8970 hc        1 55E      0.051700
     26 HO18        6.5710    0.4680    6.0540 ho        1 55E      0.422000
     27 H16         6.8760   -0.2970    3.9270 ha        1 55E      0.138000
     28 H15         5.7400   -0.8700    1.8020 ha        1 55E      0.131000
     29 H7          4.4690    0.4750    0.0570 hc        1 55E      0.099700
     30 H7A         4.6760   -1.3310   -0.0200 hc        1 55E      0.099700
     31 H14         5.7150   -0.8700   -1.8530 ha        1 55E      0.143500
     32 H13         6.8670   -0.1120   -3.9140 ha        1 55E      0.139000
     33 H12         5.5920    1.0650   -5.7080 ha        1 55E      0.137000
     34 H11         3.1430    1.4700   -5.4330 ha        1 55E      0.139000
     35 H10         1.9700    0.7060   -3.3780 ha        1 55E      0.143500
@<TRIPOS>BOND
     1    1    2 2   
     2    2    3 1   
     3    2   15 1   
     4    3    4 2   
     5    4    5 1   
     6    4   13 1   
     7    5    6 ar  
     8    5   12 ar  
     9    6    7 ar  
    10    6   22 1   
    11    7    8 1   
    12    7    9 ar  
    13    8   23 1   
    14    8   24 1   
    15    8   25 1   
    16    9   10 1   
    17    9   11 ar  
    18   10   26 1   
    19   11   12 ar  
    20   11   27 1   
    21   12   28 1   
    22   13   14 1   
    23   13   29 1   
    24   13   30 1   
    25   14   15 2   
    26   14   16 1   
    27   16   17 ar  
    28   16   21 ar  
    29   17   18 ar  
    30   17   31 1   
    31   18   19 ar  
    32   18   32 1   
    33   19   20 ar  
    34   19   33 1   
    35   20   21 ar  
    36   20   34 1   
    37   21   35 1   
@<TRIPOS>SUBSTRUCTURE
     1 55E         1 TEMP              0 ****  ****    0 ROOT
