@<TRIPOS>MOLECULE
55E
   35    37     1     0     0
SMALL
bcc


@<TRIPOS>ATOM
      1 O3          0.8820   -3.6390   -1.5120 o         1 55E     -0.467100
      2 C2          0.8120   -2.4850   -1.0690 c         1 55E      0.793900
      3 N4         -0.4830   -1.8840   -0.8630 ne        1 55E     -0.639100
      4 C5         -0.5440   -0.6160   -0.5810 cf        1 55E      0.539900
      5 C6         -1.8370    0.0460   -0.3250 ca        1 55E     -0.198900
      6 C21        -2.9250   -0.6920    0.1580 ca        1 55E     -0.033000
      7 C19        -4.1550   -0.0810    0.4150 ca        1 55E     -0.169300
      8 C20        -5.2930   -0.8770    0.9300 c3        1 55E     -0.057800
      9 C17        -4.2850    1.2990    0.1710 ca        1 55E      0.152100
     10 O18        -5.4420    2.0040    0.3880 oh        1 55E     -0.493100
     11 C16        -3.2010    2.0490   -0.3230 ca        1 55E     -0.165000
     12 C15        -1.9890    1.4200   -0.5660 ca        1 55E     -0.076000
     13 C7          0.6700    0.2800   -0.4870 c3        1 55E     -0.290000
     14 C8          1.9540   -0.5150   -0.4580 ce        1 55E      0.529900
     15 N1          2.0300   -1.7810   -0.7370 nf        1 55E     -0.629100
     16 C9          3.1570    0.2550   -0.0790 ca        1 55E     -0.161900
     17 C14         3.2700    1.6070   -0.4320 ca        1 55E     -0.091000
     18 C13         4.4020    2.3330   -0.0670 ca        1 55E     -0.137500
     19 C12         5.4270    1.7190    0.6540 ca        1 55E     -0.106000
     20 C11         5.3200    0.3740    1.0050 ca        1 55E     -0.137500
     21 C10         4.1920   -0.3610    0.6370 ca        1 55E     -0.091000
     22 H21        -2.8200   -1.7760    0.3400 ha        1 55E      0.161000
     23 H20        -5.6340   -0.4810    1.9200 hc        1 55E      0.049367
     24 H20A       -6.1540   -0.8360    0.2160 hc        1 55E      0.049367
     25 H20B       -5.0060   -1.9490    1.0640 hc        1 55E      0.049367
     26 HO18       -6.1220    1.3900    0.7050 ho        1 55E      0.427000
     27 H16        -3.3340    3.1240   -0.5110 ha        1 55E      0.156000
     28 H15        -1.1520    2.0160   -0.9600 ha        1 55E      0.133000
     29 H7          0.6860    0.9600   -1.3820 hc        1 55E      0.100200
     30 H7A         0.6000    0.9150    0.4350 hc        1 55E      0.100200
     31 H14         2.4740    2.1010   -1.0080 ha        1 55E      0.143500
     32 H13         4.4870    3.3920   -0.3510 ha        1 55E      0.138500
     33 H12         6.3180    2.2950    0.9430 ha        1 55E      0.137000
     34 H11         6.1280   -0.1150    1.5690 ha        1 55E      0.138500
     35 H10         4.1220   -1.4260    0.9090 ha        1 55E      0.143500
@<TRIPOS>BOND
     1    1    2 2   
     2    2    3 1   
     3    2   15 1   
     4    3    4 2   
     5    4    5 1   
     6    4   13 1   
     7    5    6 ar  
     8    5   12 ar  
     9    6    7 ar  
    10    6   22 1   
    11    7    8 1   
    12    7    9 ar  
    13    8   23 1   
    14    8   24 1   
    15    8   25 1   
    16    9   10 1   
    17    9   11 ar  
    18   10   26 1   
    19   11   12 ar  
    20   11   27 1   
    21   12   28 1   
    22   13   14 1   
    23   13   29 1   
    24   13   30 1   
    25   14   15 2   
    26   14   16 1   
    27   16   17 ar  
    28   16   21 ar  
    29   17   18 ar  
    30   17   31 1   
    31   18   19 ar  
    32   18   32 1   
    33   19   20 ar  
    34   19   33 1   
    35   20   21 ar  
    36   20   34 1   
    37   21   35 1   
@<TRIPOS>SUBSTRUCTURE
     1 55E         1 TEMP              0 ****  ****    0 ROOT
