@<TRIPOS>MOLECULE
55E
   35    31     1     0     0
SMALL
bcc


@<TRIPOS>ATOM
      1 O3         -4.1820    0.2400   -0.4910 o         1 55E     -0.226000
      2 C2         -3.0240   -0.1260   -0.5460 c1        1 55E      0.276000
      3 N4         -2.3160   -0.3880    0.6350 n1        1 55E     -0.209000
      4 C5         -0.9000   -0.3260    0.6410 c1        1 55E      0.092000
      5 C6         -0.1500   -0.2760    1.9620 c1        1 55E     -0.112000
      6 C21        -0.0360    0.9220    2.6490 c2        1 55E     -0.044000
      7 C19         0.6290    0.9640    3.8660 c1        1 55E     -0.100000
      8 C20         0.7810    2.2790    4.6010 c3        1 55E     -0.171000
      9 C17         1.1810   -0.1940    4.3940 c1        1 55E      0.100000
     10 O18         1.8720   -0.1480    5.6210 oh        1 55E     -0.243000
     11 C16         1.0670   -1.3930    3.7070 c1        1 55E     -0.220000
     12 C15         0.4010   -1.4340    2.4900 c1        1 55E     -0.072000
     13 C7         -0.1230   -0.4350   -0.6740 c3        1 55E     -0.217000
     14 C8         -1.0120   -0.3060   -1.9170 c2        1 55E      0.083000
     15 N1         -2.4240   -0.3630   -1.7890 n2        1 55E     -0.202000
     16 C9         -0.3810   -0.2490   -3.2950 c2        1 55E     -0.077000
     17 C14        -0.0590   -1.4230   -3.9580 c2        1 55E     -0.108000
     18 C13         0.4440   -1.3750   -5.2490 c1        1 55E     -0.137000
     19 C12         0.6250   -0.1530   -5.8770 c1        1 55E     -0.122000
     20 C11         0.3030    1.0210   -5.2140 c1        1 55E     -0.122000
     21 C10        -0.2000    0.9730   -3.9230 c1        1 55E     -0.074000
     22 H21        -0.4430    1.7320    2.2880 ha        1 55E      0.163000
     23 H20         0.2830    2.9780    4.1280 hc        1 55E      0.091000
     24 H20A        0.4300    2.1870    5.5120 hc        1 55E      0.091000
     25 H20B        1.7300    2.5240    4.6410 hc        1 55E      0.091000
     26 HO18        1.4610   -0.6690    6.2130 ho        1 55E      0.221000
     27 H16         1.4550   -2.2080    4.0790 ha        1 55E      0.138000
     28 H15         0.3210   -2.2780    2.0060 ha        1 55E      0.131000
     29 H7          0.6110    0.2100   -0.6270 hc        1 55E      0.139000
     30 H7A         0.1870   -1.3610   -0.7420 hc        1 55E      0.139000
     31 H14        -0.1860   -2.2840   -3.5160 ha        1 55E      0.129000
     32 H13         0.6710   -2.2020   -5.7160 ha        1 55E      0.137000
     33 H12         0.9790   -0.1190   -6.7860 ha        1 55E      0.139000
     34 H11         0.4310    1.8820   -5.6570 ha        1 55E      0.139000
     35 H10        -0.4260    1.8000   -3.4570 ha        1 55E      0.158000
@<TRIPOS>BOND
     1    1    2 1   
     2    2   15 1   
     3    3    4 1   
     4    4   13 1   
     5    5    6 1   
     6    5   12 1   
     7    6    7 1   
     8    6   22 1   
     9    7    8 1   
    10    8   23 1   
    11    8   24 1   
    12    8   25 1   
    13    9   10 1   
    14    9   11 1   
    15   10   26 1   
    16   11   27 1   
    17   12   28 1   
    18   13   14 1   
    19   13   29 1   
    20   13   30 1   
    21   14   15 1   
    22   14   16 1   
    23   16   17 1   
    24   16   21 1   
    25   17   18 1   
    26   17   31 1   
    27   18   32 1   
    28   19   20 1   
    29   19   33 1   
    30   20   34 1   
    31   21   35 1   
@<TRIPOS>SUBSTRUCTURE
     1 55E         1 TEMP              0 ****  ****    0 ROOT
