@<TRIPOS>MOLECULE
55F
   43    46     1     0     0
SMALL
bcc


@<TRIPOS>ATOM
      1 C1          0.1590    0.0390   -0.2250 ca        1 55F      0.309900
      2 C2          1.5790    0.3250   -0.1190 ca        1 55F      0.319900
      3 N3          2.1890    0.4530    1.0420 nb        1 55F     -0.616000
      4 C4          1.4080    0.2960    2.1810 ca        1 55F      0.308300
      5 C5          0.0030    0.0090    2.0750 ca        1 55F      0.273300
      6 N6         -0.6110   -0.1140    0.8330 nb        1 55F     -0.620000
      7 C7          1.9940    0.4150    3.4760 ca        1 55F     -0.143300
      8 C8          1.2260    0.2570    4.6030 ca        1 55F     -0.090000
      9 C9         -0.1610   -0.0270    4.5000 ca        1 55F     -0.058000
     10 C10        -0.7650   -0.1510    3.2630 ca        1 55F     -0.122300
     11 C11        -0.9390   -0.1850    5.7160 cc        1 55F     -0.010600
     12 C12        -0.6530   -0.8930    6.9340 cd        1 55F      0.292300
     13 N13        -1.6840   -0.7290    7.8390 nd        1 55F     -0.575000
     14 C14        -2.6050    0.0660    7.1940 cc        1 55F      0.343400
     15 N15        -2.1790    0.4150    5.8940 na        1 55F     -0.266900
     16 C16         0.5180   -1.7340    7.2080 ca        1 55F      0.333300
     17 C17         1.0810   -1.7390    8.4980 ca        1 55F     -0.187300
     18 C18         2.1840   -2.5570    8.7450 ca        1 55F     -0.132000
     19 C19         2.6840   -3.3450    7.6970 ca        1 55F      0.034600
     20 C20         2.0520   -3.2850    6.4100 ca        1 55F      0.399600
     21 N21         0.9900   -2.4910    6.1830 nb        1 55F     -0.634000
     22 N22        -3.8810    0.4720    7.7650 n4        1 55F     -0.625500
     23 C23         2.6000   -4.1410    5.3160 c3        1 55F     -0.156400
     24 F24         3.7470   -4.1520    7.8910 f         1 55F     -0.110900
     25 C25        -3.9870    1.9990    7.7980 c         1 55F      0.571100
     26 O26        -4.1770    2.5200    6.7130 o         1 55F     -0.412100
     27 C27        -3.8420    2.6190    9.1410 c3        1 55F     -0.186100
     28 H1         -0.3130   -0.0580   -1.2200 h4        1 55F      0.049100
     29 H2          2.1900    0.4450   -1.0330 h4        1 55F      0.051100
     30 H7          3.0720    0.6330    3.5580 ha        1 55F      0.170000
     31 H8          1.6820    0.3410    5.6020 ha        1 55F      0.150000
     32 H10        -1.8360   -0.3960    3.1710 ha        1 55F      0.149000
     33 H17         0.6640   -1.1150    9.3010 ha        1 55F      0.155000
     34 H18         2.6560   -2.5920    9.7390 ha        1 55F      0.169000
     35 HN22       -3.9450    0.0860    8.7180 hn        1 55F      0.477800
     36 H23         2.0550   -4.0020    4.3510 hc        1 55F      0.069367
     37 H23A        2.5270   -5.2150    5.6220 hc        1 55F      0.069367
     38 H23B        3.6800   -3.8900    5.1630 hc        1 55F      0.069367
     39 H27        -3.9050    3.7350    9.0260 hc        1 55F      0.120700
     40 H27A       -4.6620    2.2820    9.8270 hc        1 55F      0.120700
     41 H27B       -2.8510    2.3590    9.5950 hc        1 55F      0.120700
     42 H15        -2.6600    0.9880    5.2410 hn        1 55F      0.337700
     43 H222       -4.6390    0.0760    7.1910 hn        1 55F      0.477800
@<TRIPOS>BOND
     1    1    2 ar  
     2    1    6 ar  
     3    1   28 1   
     4    2    3 ar  
     5    2   29 1   
     6    3    4 ar  
     7    4    5 ar  
     8    4    7 ar  
     9    5    6 ar  
    10    5   10 ar  
    11    7    8 ar  
    12    7   30 1   
    13    8    9 ar  
    14    8   31 1   
    15    9   10 ar  
    16    9   11 1   
    17   10   32 1   
    18   11   12 2   
    19   11   15 1   
    20   12   13 1   
    21   12   16 1   
    22   13   14 2   
    23   14   15 1   
    24   14   22 1   
    25   15   42 1   
    26   16   17 ar  
    27   16   21 ar  
    28   17   18 ar  
    29   17   33 1   
    30   18   19 ar  
    31   18   34 1   
    32   19   20 ar  
    33   19   24 1   
    34   20   21 ar  
    35   20   23 1   
    36   22   25 1   
    37   22   35 1   
    38   22   43 1   
    39   23   36 1   
    40   23   37 1   
    41   23   38 1   
    42   25   26 2   
    43   25   27 1   
    44   27   39 1   
    45   27   40 1   
    46   27   41 1   
@<TRIPOS>SUBSTRUCTURE
     1 55F         1 TEMP              0 ****  ****    0 ROOT
