@<TRIPOS>MOLECULE
55F
   42    45     1     0     0
SMALL
bcc


@<TRIPOS>ATOM
      1 C1         -0.0770    0.1300   -0.1160 ca        1 55F      0.292900
      2 C2          1.3670    0.2470   -0.1530 ca        1 55F      0.294900
      3 N3          2.1010    0.2850    0.9410 nb        1 55F     -0.622000
      4 C4          1.4250    0.2060    2.1510 ca        1 55F      0.288300
      5 C5         -0.0090    0.0890    2.1890 ca        1 55F      0.282300
      6 N6         -0.7510    0.0540    1.0150 nb        1 55F     -0.619000
      7 C7          2.1450    0.2390    3.3820 ca        1 55F     -0.161300
      8 C8          1.4790    0.1610    4.5790 ca        1 55F     -0.087000
      9 C9          0.0640    0.0420    4.6210 ca        1 55F      0.008000
     10 C10        -0.6680    0.0070    3.4500 ca        1 55F     -0.148300
     11 C11        -0.6010   -0.0280    5.9100 cc        1 55F     -0.124600
     12 C12        -0.3250   -0.7980    7.0680 cd        1 55F      0.275300
     13 N13        -1.2420   -0.5010    8.0820 nd        1 55F     -0.693000
     14 C14        -2.0820    0.4470    7.5450 cc        1 55F      0.521400
     15 N15        -1.7200    0.7550    6.2180 na        1 55F     -0.300900
     16 C16         0.7220   -1.8070    7.2440 ca        1 55F      0.380300
     17 C17         1.2650   -2.0200    8.5320 ca        1 55F     -0.198300
     18 C18         2.2500   -2.9880    8.6980 ca        1 55F     -0.133000
     19 C19         2.6700   -3.7220    7.5770 ca        1 55F     -0.001400
     20 C20         2.0740   -3.4510    6.3060 ca        1 55F      0.391600
     21 N21         1.1200   -2.5120    6.1530 nb        1 55F     -0.643000
     22 N22        -3.1640    1.0280    8.2320 ns        1 55F     -0.543400
     23 C23         2.5320   -4.2480    5.1280 c3        1 55F     -0.149400
     24 F24         3.6240   -4.6710    7.6950 f         1 55F     -0.132900
     25 C25        -4.0230    1.9880    7.7130 c         1 55F      0.673100
     26 O26        -3.8930    2.4350    6.5570 o         1 55F     -0.604100
     27 C27        -5.1250    2.4620    8.6290 c3        1 55F     -0.174100
     28 H1         -0.6540    0.1020   -1.0560 h4        1 55F      0.034100
     29 H2          1.8920    0.3080   -1.1220 h4        1 55F      0.033100
     30 H7          3.2430    0.3290    3.3570 ha        1 55F      0.154000
     31 H8          2.0350    0.1840    5.5290 ha        1 55F      0.147000
     32 H10        -1.7650   -0.0970    3.4720 ha        1 55F      0.155000
     33 H17         0.9100   -1.4310    9.3900 ha        1 55F      0.164000
     34 H18         2.6960   -3.1830    9.6840 ha        1 55F      0.153000
     35 HN22       -3.3090    0.6920    9.1580 hn        1 55F      0.347500
     36 H23         3.6340   -4.1050    4.9970 hc        1 55F      0.059700
     37 H23A        2.3370   -5.3320    5.3240 hc        1 55F      0.059700
     38 H23B        2.0130   -3.9510    4.1850 hc        1 55F      0.059700
     39 H27        -5.7300    3.2290    8.0870 hc        1 55F      0.075033
     40 H27A       -4.6970    2.9210    9.5530 hc        1 55F      0.075033
     41 H27B       -5.7890    1.6110    8.9160 hc        1 55F      0.075033
     42 H15        -2.1710    1.4130    5.6270 hn        1 55F      0.337700
@<TRIPOS>BOND
     1    1    2 ar  
     2    1    6 ar  
     3    1   28 1   
     4    2    3 ar  
     5    2   29 1   
     6    3    4 ar  
     7    4    5 ar  
     8    4    7 ar  
     9    5    6 ar  
    10    5   10 ar  
    11    7    8 ar  
    12    7   30 1   
    13    8    9 ar  
    14    8   31 1   
    15    9   10 ar  
    16    9   11 1   
    17   10   32 1   
    18   11   12 2   
    19   11   15 1   
    20   12   13 1   
    21   12   16 1   
    22   13   14 2   
    23   14   15 1   
    24   14   22 1   
    25   15   42 1   
    26   16   17 ar  
    27   16   21 ar  
    28   17   18 ar  
    29   17   33 1   
    30   18   19 ar  
    31   18   34 1   
    32   19   20 ar  
    33   19   24 1   
    34   20   21 ar  
    35   20   23 1   
    36   22   25 1   
    37   22   35 1   
    38   23   36 1   
    39   23   37 1   
    40   23   38 1   
    41   25   26 2   
    42   25   27 1   
    43   27   39 1   
    44   27   40 1   
    45   27   41 1   
@<TRIPOS>SUBSTRUCTURE
     1 55F         1 TEMP              0 ****  ****    0 ROOT
