@<TRIPOS>MOLECULE
55F
   42    35     1     0     0
SMALL
bcc


@<TRIPOS>ATOM
      1 C1         -0.1570   -0.4570   -5.8540 c1        1 55F     -0.110000
      2 C2          1.2270   -0.4650   -5.9930 c2        1 55F     -0.103000
      3 N3          2.0130   -0.4760   -4.9030 n1        1 55F     -0.097000
      4 C4          1.4540   -0.4810   -3.6590 c1        1 55F     -0.035000
      5 C5          0.0870   -0.4740   -3.5210 c1        1 55F     -0.054000
      6 N6         -0.7100   -0.4620   -4.6290 n1        1 55F     -0.092000
      7 C7          2.2770   -0.4580   -2.5150 c2        1 55F     -0.105000
      8 C8          1.7060   -0.4270   -1.2490 c1        1 55F     -0.073000
      9 C9          0.3210   -0.4200   -1.1100 c1        1 55F     -0.010000
     10 C10        -0.4910   -0.4430   -2.2370 c2        1 55F     -0.076000
     11 C11         0.2520    0.4360   -0.0190 c1        1 55F     -0.038000
     12 C12        -0.3240    0.1530    1.1910 c2        1 55F     -0.055000
     13 N13        -0.1600    1.2150    1.9840 n2        1 55F     -0.167000
     14 C14         0.5130    2.1600    1.2840 c1        1 55F      0.087000
     15 N15         0.7620    1.6680    0.0460 n2        1 55F     -0.186000
     16 C16        -0.9630   -1.0270    1.5320 c1        1 55F      0.059000
     17 C17        -2.3440   -1.1170    1.4460 c1        1 55F     -0.132000
     18 C18        -2.9770   -2.2680    1.8130 c1        1 55F     -0.132000
     19 C19        -2.2490   -3.3310    2.2640 c2        1 55F      0.030000
     20 C20        -0.8680   -3.2390    2.3490 c1        1 55F     -0.030000
     21 N21        -0.2380   -2.0890    1.9830 n1        1 55F     -0.125000
     22 N22         0.9150    3.4260    1.7720 n2        1 55F     -0.310000
     23 C23        -0.0580   -4.4330    2.8060 c3        1 55F     -0.172000
     24 F24        -2.8670   -4.4690    2.6070 f         1 55F     -0.098000
     25 C25         0.1120    4.1090    2.7190 c2        1 55F      0.317000
     26 O26        -0.9220    3.6060    3.1110 o         1 55F     -0.365000
     27 C27         0.5070    5.4890    3.1890 c3        1 55F     -0.242000
     28 H1         -0.7270   -0.4490   -6.6460 DU        1 55F      0.204000
     29 H2          1.6280   -0.4620   -6.8830 h4        1 55F      0.170000
     30 H7          3.2470   -0.4630   -2.6120 ha        1 55F      0.154000
     31 H8          2.2760   -0.4110   -0.4580 ha        1 55F      0.160000
     32 H10        -1.4630   -0.4380   -2.1380 ha        1 55F      0.156000
     33 H17        -2.8640   -0.3550    1.1230 ha        1 55F      0.163000
     34 H18        -3.9490   -2.3320    1.7520 DU        1 55F      0.204000
     35 HN22        1.7050    3.7910    1.4980 hn        1 55F      0.261000
     36 H23         0.8790   -4.1680    2.9180 hc        1 55F      0.098000
     37 H23A       -0.1180   -5.1450    2.1350 hc        1 55F      0.098000
     38 H23B       -0.4090   -4.7590    3.6610 hc        1 55F      0.098000
     39 H27         1.0520    5.9250    2.5000 hc        1 55F      0.114333
     40 H27A        1.0250    5.4160    4.0170 hc        1 55F      0.114333
     41 H27B       -0.2990    6.0210    3.3530 hc        1 55F      0.114333
     42 H15         1.2020    2.1020   -0.6250 DU        1 55F      0.204000
@<TRIPOS>BOND
     1    1    2 1   
     2    1    6 1   
     3    2    3 1   
     4    2   29 1   
     5    4    5 1   
     6    4    7 1   
     7    5   10 1   
     8    7    8 1   
     9    7   30 1   
    10    8   31 1   
    11    9   10 1   
    12   10   32 1   
    13   11   12 1   
    14   11   15 1   
    15   12   13 1   
    16   12   16 1   
    17   13   14 1   
    18   14   15 1   
    19   16   21 1   
    20   17   18 1   
    21   17   33 1   
    22   18   19 1   
    23   19   20 1   
    24   19   24 1   
    25   20   23 1   
    26   22   25 1   
    27   22   35 1   
    28   23   36 1   
    29   23   37 1   
    30   23   38 1   
    31   25   26 1   
    32   25   27 1   
    33   27   39 1   
    34   27   40 1   
    35   27   41 1   
@<TRIPOS>SUBSTRUCTURE
     1 55F         1 TEMP              0 ****  ****    0 ROOT
