@<TRIPOS>MOLECULE
55F
   42    45     1     0     0
SMALL
bcc


@<TRIPOS>ATOM
      1 C1         -0.0810    0.1300   -0.1170 ca        1 55F      0.292900
      2 C2          1.3630    0.2490   -0.1540 ca        1 55F      0.294900
      3 N3          2.0970    0.2890    0.9400 nb        1 55F     -0.622000
      4 C4          1.4220    0.2080    2.1500 ca        1 55F      0.288300
      5 C5         -0.0120    0.0890    2.1880 ca        1 55F      0.282300
      6 N6         -0.7540    0.0520    1.0140 nb        1 55F     -0.619000
      7 C7          2.1430    0.2430    3.3810 ca        1 55F     -0.161300
      8 C8          1.4770    0.1640    4.5780 ca        1 55F     -0.087000
      9 C9          0.0620    0.0420    4.6200 ca        1 55F      0.008000
     10 C10        -0.6700    0.0060    3.4500 ca        1 55F     -0.148300
     11 C11        -0.6030   -0.0300    5.9090 cc        1 55F     -0.124600
     12 C12        -0.3240   -0.7990    7.0680 cd        1 55F      0.275300
     13 N13        -1.2410   -0.5040    8.0820 nd        1 55F     -0.693000
     14 C14        -2.0840    0.4420    7.5450 cc        1 55F      0.521400
     15 N15        -1.7230    0.7510    6.2180 na        1 55F     -0.300900
     16 C16         0.7250   -1.8050    7.2440 ca        1 55F      0.380300
     17 C17         1.2690   -2.0150    8.5320 ca        1 55F     -0.198300
     18 C18         2.2570   -2.9810    8.6980 ca        1 55F     -0.133000
     19 C19         2.6780   -3.7150    7.5770 ca        1 55F     -0.001400
     20 C20         2.0810   -3.4470    6.3060 ca        1 55F      0.391600
     21 N21         1.1240   -2.5100    6.1530 nb        1 55F     -0.643000
     22 N22        -3.1670    1.0210    8.2310 n         1 55F     -0.543400
     23 C23         2.5380   -4.2450    5.1290 c3        1 55F     -0.149400
     24 F24         3.6350   -4.6620    7.6950 f         1 55F     -0.132900
     25 C25        -4.0300    1.9770    7.7120 c         1 55F      0.673100
     26 O26        -3.9020    2.4250    6.5570 o         1 55F     -0.604100
     27 C27        -5.1320    2.4480    8.6280 c3        1 55F     -0.174100
     28 H1         -0.6580    0.1010   -1.0570 h4        1 55F      0.034100
     29 H2          1.8870    0.3110   -1.1230 h4        1 55F      0.033100
     30 H7          3.2400    0.3340    3.3560 ha        1 55F      0.154000
     31 H8          2.0340    0.1870    5.5280 ha        1 55F      0.147000
     32 H10        -1.7670   -0.1000    3.4720 ha        1 55F      0.155000
     33 H17         0.9140   -1.4270    9.3900 ha        1 55F      0.164000
     34 H18         2.7040   -3.1740    9.6840 ha        1 55F      0.153000
     35 HN22       -3.3120    0.6840    9.1580 hn        1 55F      0.347500
     36 H23         3.6480   -4.1500    5.0320 hc        1 55F      0.059367
     37 H23A        2.2890   -5.3220    5.3010 hc        1 55F      0.059367
     38 H23B        2.0600   -3.9110    4.1770 hc        1 55F      0.059367
     39 H27        -4.7060    2.9090    9.5520 hc        1 55F      0.075033
     40 H27A       -5.7390    3.2150    8.0860 hc        1 55F      0.075033
     41 H27B       -5.7950    1.5960    8.9150 hc        1 55F      0.075033
     42 H15        -2.1760    1.4080    5.6270 hn        1 55F      0.337700
@<TRIPOS>BOND
     1    1    2 ar  
     2    1    6 ar  
     3    1   28 1   
     4    2    3 ar  
     5    2   29 1   
     6    3    4 ar  
     7    4    5 ar  
     8    4    7 ar  
     9    5    6 ar  
    10    5   10 ar  
    11    7    8 ar  
    12    7   30 1   
    13    8    9 ar  
    14    8   31 1   
    15    9   10 ar  
    16    9   11 1   
    17   10   32 1   
    18   11   12 2   
    19   11   15 1   
    20   12   13 1   
    21   12   16 1   
    22   13   14 2   
    23   14   15 1   
    24   14   22 1   
    25   15   42 1   
    26   16   17 ar  
    27   16   21 ar  
    28   17   18 ar  
    29   17   33 1   
    30   18   19 ar  
    31   18   34 1   
    32   19   20 ar  
    33   19   24 1   
    34   20   21 ar  
    35   20   23 1   
    36   22   25 1   
    37   22   35 1   
    38   23   36 1   
    39   23   37 1   
    40   23   38 1   
    41   25   26 2   
    42   25   27 1   
    43   27   39 1   
    44   27   40 1   
    45   27   41 1   
@<TRIPOS>SUBSTRUCTURE
     1 55F         1 TEMP              0 ****  ****    0 ROOT
