@<TRIPOS>MOLECULE
55F
   42    45     1     0     0
SMALL
bcc


@<TRIPOS>ATOM
      1 C1          2.8750   -4.7840    0.7110 ca        1 55F      0.292900
      2 C2          3.8610   -4.3670   -0.2660 ca        1 55F      0.294900
      3 N3          3.7180   -3.2750   -0.9920 nb        1 55F     -0.622000
      4 C4          2.5680   -2.5270   -0.7780 ca        1 55F      0.288300
      5 C5          1.5900   -2.9410    0.1930 ca        1 55F      0.282300
      6 N6          1.7720   -4.0990    0.9390 nb        1 55F     -0.619000
      7 C7          2.3380   -1.3310   -1.5210 ca        1 55F     -0.161300
      8 C8          1.2020   -0.5910   -1.3110 ca        1 55F     -0.087000
      9 C9          0.2350   -0.9930   -0.3520 ca        1 55F      0.008000
     10 C10         0.4220   -2.1450    0.3870 ca        1 55F     -0.148300
     11 C11        -0.9570   -0.1850   -0.1680 cc        1 55F     -0.124600
     12 C12        -1.1280    1.2150   -0.0160 cd        1 55F      0.275300
     13 N13        -2.4850    1.5300    0.1080 nd        1 55F     -0.693000
     14 C14        -3.1460    0.3250    0.0360 cc        1 55F      0.521400
     15 N15        -2.2400   -0.7420   -0.1300 na        1 55F     -0.300900
     16 C16        -0.0860    2.2420    0.0540 ca        1 55F      0.380300
     17 C17        -0.3730    3.5470   -0.4070 ca        1 55F     -0.198300
     18 C18         0.6140    4.5240   -0.3290 ca        1 55F     -0.133000
     19 C19         1.8640    4.1760    0.2090 ca        1 55F     -0.001400
     20 C20         2.0810    2.8360    0.6560 ca        1 55F      0.391600
     21 N21         1.1190    1.8960    0.5760 nb        1 55F     -0.643000
     22 N22        -4.5420    0.1810    0.1200 n         1 55F     -0.543400
     23 C23         3.4160    2.4910    1.2300 c3        1 55F     -0.149400
     24 F24         2.8510    5.0960    0.3030 f         1 55F     -0.132900
     25 C25        -5.2320   -1.0230    0.0470 c         1 55F      0.673100
     26 O26        -4.6470   -2.1100   -0.1170 o         1 55F     -0.604100
     27 C27        -6.7330   -0.9400    0.1740 c3        1 55F     -0.174100
     28 H1          3.0330   -5.7050    1.2970 h4        1 55F      0.034100
     29 H2          4.7710   -4.9700   -0.4250 h4        1 55F      0.033100
     30 H7          3.0860   -1.0120   -2.2650 ha        1 55F      0.154000
     31 H8          1.0270    0.3340   -1.8830 ha        1 55F      0.147000
     32 H10        -0.3160   -2.4590    1.1420 ha        1 55F      0.155000
     33 H17        -1.3640    3.7880   -0.8180 ha        1 55F      0.164000
     34 H18         0.4280    5.5500   -0.6760 ha        1 55F      0.153000
     35 HN22       -5.0500    1.0270    0.2610 hn        1 55F      0.347500
     36 H23         3.5910    3.1130    2.1440 hc        1 55F      0.059700
     37 H23A        3.4940    1.4120    1.5070 hc        1 55F      0.059700
     38 H23B        4.2100    2.7330    0.4810 hc        1 55F      0.059700
     39 H27        -7.1620   -0.3060   -0.6400 hc        1 55F      0.075033
     40 H27A       -7.1530   -1.9720    0.0910 hc        1 55F      0.075033
     41 H27B       -7.0200   -0.5090    1.1640 hc        1 55F      0.075033
     42 H15        -2.4790   -1.7020   -0.2140 hn        1 55F      0.337700
@<TRIPOS>BOND
     1    1    2 ar  
     2    1    6 ar  
     3    1   28 1   
     4    2    3 ar  
     5    2   29 1   
     6    3    4 ar  
     7    4    5 ar  
     8    4    7 ar  
     9    5    6 ar  
    10    5   10 ar  
    11    7    8 ar  
    12    7   30 1   
    13    8    9 ar  
    14    8   31 1   
    15    9   10 ar  
    16    9   11 1   
    17   10   32 1   
    18   11   12 2   
    19   11   15 1   
    20   12   13 1   
    21   12   16 1   
    22   13   14 2   
    23   14   15 1   
    24   14   22 1   
    25   15   42 1   
    26   16   17 ar  
    27   16   21 ar  
    28   17   18 ar  
    29   17   33 1   
    30   18   19 ar  
    31   18   34 1   
    32   19   20 ar  
    33   19   24 1   
    34   20   21 ar  
    35   20   23 1   
    36   22   25 1   
    37   22   35 1   
    38   23   36 1   
    39   23   37 1   
    40   23   38 1   
    41   25   26 2   
    42   25   27 1   
    43   27   39 1   
    44   27   40 1   
    45   27   41 1   
@<TRIPOS>SUBSTRUCTURE
     1 55F         1 TEMP              0 ****  ****    0 ROOT
