@<TRIPOS>MOLECULE
55J
   53    55     1     0     0
SMALL
bcc


@<TRIPOS>ATOM
      1 C1          0.6570    0.3250   -0.2650 c2        1 55J      0.125000
      2 C2          1.8640    0.9510    0.2040 c2        1 55J     -0.168000
      3 C3          2.1080    1.2750    1.5380 c1        1 55J     -0.068000
      4 C11        -1.7830   -2.1620    2.2390 c2        1 55J     -0.298000
      5 C12        -2.5770   -4.4440    1.6240 c2        1 55J     -0.043000
      6 C13         2.0060    0.6970   -2.0600 c2        1 55J      0.251000
      7 C15         1.8870    0.3320   -4.3980 c2        1 55J      0.258000
      8 C16        -5.1410   -1.2680   -5.6030 c1        1 55J     -0.198000
      9 C17        -4.2390   -1.4460   -4.8370 c1        1 55J     -0.159000
     10 C18        -3.1370   -1.6750   -3.9660 c3        1 55J     -0.171000
     11 C19        -0.4930   -0.7070   -4.6450 c1        1 55J     -0.026000
     12 C20         0.6340   -0.2150   -4.4950 c1        1 55J     -0.659000
     13 C21        -1.7010   -6.0290    0.3820 c2        1 55J     -0.096000
     14 C22        -2.9700   -6.4930    0.8230 c2        1 55J     -0.201000
     15 C23        -3.3070   -0.9930   -2.5850 c3        1 55J      0.425000
     16 C24        -3.6610   -7.8070    0.5460 c3        1 55J      0.506000
     17 C4          1.0620    0.9240    2.4950 c3        1 55J     -0.179000
     18 C5         -0.1700    0.2580    1.9650 c2        1 55J      0.091000
     19 C6         -0.3840   -0.0300    0.6480 c2        1 55J     -0.227000
     20 C7         -1.9840   -0.9930    2.9130 c2        1 55J      0.119000
     21 C8         -3.1830   -0.7840    3.7700 c3        1 55J     -0.255000
     22 C9         -4.1230   -1.9400    3.8180 c1        1 55J      0.000000
     23 N1         -3.9080   -3.0530    3.1010 n2        1 55J     -0.257000
     24 C10        -2.8000   -3.1900    2.3590 c2        1 55J      0.232000
     25 N2          0.7460    0.1770   -1.6350 na        1 55J     -0.203000
     26 N3          2.6810    1.1650   -0.9330 na        1 55J     -0.097000
     27 N4          2.5440    0.7590   -3.3240 n2        1 55J     -0.289000
     28 N5         -1.4680   -4.7700    0.8790 n2        1 55J     -0.107000
     29 N6         -3.5140   -5.4880    1.6060 na        1 55J     -0.102000
     30 F1         -3.6540    0.3330   -2.6020 f         1 55J     -0.187333
     31 F2         -4.2220   -1.5740   -1.7420 f         1 55J     -0.187333
     32 F3         -2.1450   -1.0050   -1.8390 f         1 55J     -0.187333
     33 F4         -3.8580   -8.5780    1.6650 f         1 55J     -0.153333
     34 F5         -4.9140   -7.6750    0.0020 f         1 55J     -0.153333
     35 F6         -2.9770   -8.6140   -0.3250 f         1 55J     -0.153333
     36 H1          1.5300    0.2580    3.2810 hc        1 55J      0.181000
     37 H2         -0.8950   -2.3440    1.6170 ha        1 55J      0.183000
     38 H3          4.2260    2.0450    0.1430 h1        1 55J      0.118667
     39 H4          4.7390    1.0310   -1.3080 h1        1 55J      0.118667
     40 H5          3.9860    2.6760   -1.5730 h1        1 55J      0.118667
     41 H6          2.4900    0.4630   -5.3290 h4        1 55J      0.164000
     42 H7         -5.9390   -1.1070   -6.2810 ha        1 55J      0.222000
     43 H8         -3.0000   -2.7730   -3.7780 hc        1 55J      0.192500
     44 H9         -2.1360   -1.2680   -4.4260 hc        1 55J      0.192500
     45 H10        -0.9870   -6.5550   -0.2560 h4        1 55J      0.203000
     46 H11         0.7650    1.8740    3.0350 hc        1 55J      0.181000
     47 H12        -1.3040   -0.5060    0.2720 ha        1 55J      0.190000
     48 H13        -2.8710   -0.5600    4.8310 hc        1 55J      0.177500
     49 H14        -3.7600    0.1190    3.4160 hc        1 55J      0.177500
     50 H15         0.0560   -0.2080   -2.2560 hn        1 55J      0.326000
     51 H17        -4.3970   -5.4930    2.0590 hn        1 55J      0.297000
     52 O1         -1.1090    0.0700    2.9620 os        1 55J     -0.153000
     53 C14         3.9810    1.7630   -0.9180 c3        1 55J     -0.073000
@<TRIPOS>BOND
     1    1    2 1   
     2    1   19 1   
     3    1   25 1   
     4    2    3 1   
     5    2   26 1   
     6    3   17 1   
     7    4   20 1   
     8    4   24 1   
     9    4   37 1   
    10    5   24 1   
    11    5   28 1   
    12    5   29 1   
    13    6   25 1   
    14    6   26 1   
    15    6   27 1   
    16    7   12 1   
    17    7   27 1   
    18    7   41 1   
    19    8    9 1   
    20    8   42 1   
    21    9   10 1   
    22   10   15 1   
    23   10   43 1   
    24   10   44 1   
    25   11   12 1   
    26   13   14 1   
    27   13   28 1   
    28   13   45 1   
    29   14   16 1   
    30   14   29 1   
    31   15   30 1   
    32   15   31 1   
    33   15   32 1   
    34   16   33 1   
    35   16   34 1   
    36   16   35 1   
    37   17   18 1   
    38   17   36 1   
    39   17   46 1   
    40   18   19 1   
    41   18   52 1   
    42   19   47 1   
    43   20   21 1   
    44   20   52 1   
    45   21   22 1   
    46   21   48 1   
    47   21   49 1   
    48   22   23 1   
    49   23   24 1   
    50   25   50 1   
    51   26   53 1   
    52   29   51 1   
    53   38   53 1   
    54   39   53 1   
    55   40   53 1   
@<TRIPOS>SUBSTRUCTURE
     1 55J         1 TEMP              0 ****  ****    0 ROOT
