@<TRIPOS>MOLECULE
55J
   53    57     1     0     0
SMALL
bcc


@<TRIPOS>ATOM
      1 C1         -1.9370   -0.7410   -0.6940 ca        1 55J      0.074400
      2 C2         -0.4850   -0.7100   -0.7490 ca        1 55J     -0.066200
      3 C3          0.2910   -0.7200    0.4200 ca        1 55J     -0.117000
      4 C11        -1.7800   -3.0290    3.3860 ca        1 55J     -0.260300
      5 C12        -1.1910   -5.3640    3.9860 cc        1 55J      0.375500
      6 C13        -1.3820   -0.6780   -2.8210 cc        1 55J      0.564700
      7 C15        -1.3760    0.5010   -4.9490 ca        1 55J      0.164600
      8 C16        -1.6900    0.4900   -6.3310 ca        1 55J     -0.178500
      9 C17        -1.5790    1.6510   -7.0840 ca        1 55J     -0.049000
     10 C18        -1.1660    2.8420   -6.4840 ca        1 55J     -0.201300
     11 C19        -0.8690    2.8720   -5.1200 ca        1 55J     -0.049000
     12 C20        -0.9740    1.7170   -4.3540 ca        1 55J     -0.178500
     13 C21        -0.0550   -6.9400    2.9590 cd        1 55J      0.377200
     14 C22        -0.5440   -7.5000    4.1630 cc        1 55J     -0.327900
     15 C23        -1.0610    4.1130   -7.3120 c3        1 55J      0.692200
     16 C24        -0.3780   -8.8870    4.7220 c3        1 55J      0.730200
     17 C4         -0.3710   -0.7630    1.6340 ca        1 55J     -0.118000
     18 C5         -1.7830   -0.7950    1.6830 ca        1 55J      0.049100
     19 C6         -2.5880   -0.7910    0.5480 ca        1 55J     -0.058000
     20 C7         -2.3900   -1.8140    3.7320 ca        1 55J      0.153100
     21 C8         -3.0280   -1.6760    4.9770 ca        1 55J     -0.261300
     22 C9         -3.0210   -2.7920    5.8300 ca        1 55J      0.425200
     23 N1         -2.4460   -3.9690    5.5340 nb        1 55J     -0.702000
     24 C10        -1.8320   -4.0790    4.3240 ca        1 55J      0.391300
     25 N2         -2.4640   -0.7140   -1.9940 nd        1 55J     -0.565100
     26 N3         -0.1440   -0.6690   -2.1030 na        1 55J     -0.146300
     27 N4         -1.3940   -0.7210   -4.2430 nh        1 55J     -0.653600
     28 N5         -0.4570   -5.6240    2.8570 nd        1 55J     -0.661000
     29 N6         -1.2620   -6.4950    4.8070 na        1 55J     -0.245900
     30 F1         -0.7450    3.9090   -8.6340 f         1 55J     -0.237633
     31 F2         -2.2180    4.8550   -7.3580 f         1 55J     -0.237633
     32 F3         -0.1120    5.0050   -6.8740 f         1 55J     -0.237633
     33 F4          0.2200   -8.9270    5.9590 f         1 55J     -0.230967
     34 F5         -1.5590   -9.5660    4.9040 f         1 55J     -0.230967
     35 F6          0.3850   -9.7140    3.9380 f         1 55J     -0.230967
     36 H1          1.3890   -0.6970    0.3760 ha        1 55J      0.145000
     37 H2         -1.2790   -3.1530    2.4140 ha        1 55J      0.183000
     38 H3          1.3200   -1.5720   -3.2990 h1        1 55J      0.059367
     39 H4          1.2820    0.2550   -3.3230 h1        1 55J      0.059367
     40 H5          1.9280   -0.6280   -1.8510 h1        1 55J      0.059367
     41 H6         -2.0200   -0.4400   -6.8210 ha        1 55J      0.149000
     42 H7         -1.8160    1.6330   -8.1610 ha        1 55J      0.154000
     43 H8         -0.5500    3.8160   -4.6490 ha        1 55J      0.154000
     44 H9         -0.7530    1.7680   -3.2770 ha        1 55J      0.149000
     45 H10         0.5510   -7.4290    2.1940 h4        1 55J      0.059100
     46 H11         0.1950   -0.7720    2.5780 ha        1 55J      0.153000
     47 H12        -3.6850   -0.8110    0.6200 ha        1 55J      0.168000
     48 H13        -3.5110   -0.7340    5.2630 ha        1 55J      0.166000
     49 H14        -3.5100   -2.7400    6.8210 h4        1 55J      0.030100
     50 H15        -2.0790   -1.3710   -4.5870 hn        1 55J      0.434800
     51 H17        -1.7240   -6.5680    5.6790 hn        1 55J      0.332700
     52 O1         -2.4260   -0.6930    2.9230 os        1 55J     -0.241200
     53 C14         1.1620   -0.6540   -2.6710 c3        1 55J      0.031600
@<TRIPOS>BOND
     1    1    2 ar  
     2    1   19 ar  
     3    1   25 1   
     4    2    3 ar  
     5    2   26 1   
     6    3   17 ar  
     7    3   36 1   
     8    4   20 ar  
     9    4   24 ar  
    10    4   37 1   
    11    5   24 1   
    12    5   28 2   
    13    5   29 1   
    14    6   25 2   
    15    6   26 1   
    16    6   27 1   
    17    7    8 ar  
    18    7   12 ar  
    19    7   27 1   
    20    8    9 ar  
    21    8   41 1   
    22    9   10 ar  
    23    9   42 1   
    24   10   11 ar  
    25   10   15 1   
    26   11   12 ar  
    27   11   43 1   
    28   12   44 1   
    29   13   14 2   
    30   13   28 1   
    31   13   45 1   
    32   14   16 1   
    33   14   29 1   
    34   15   30 1   
    35   15   31 1   
    36   15   32 1   
    37   16   33 1   
    38   16   34 1   
    39   16   35 1   
    40   17   18 ar  
    41   17   46 1   
    42   18   19 ar  
    43   18   52 1   
    44   19   47 1   
    45   20   21 ar  
    46   20   52 1   
    47   21   22 ar  
    48   21   48 1   
    49   22   23 ar  
    50   22   49 1   
    51   23   24 ar  
    52   26   53 1   
    53   27   50 1   
    54   29   51 1   
    55   38   53 1   
    56   39   53 1   
    57   40   53 1   
@<TRIPOS>SUBSTRUCTURE
     1 55J         1 TEMP              0 ****  ****    0 ROOT
