@<TRIPOS>MOLECULE
55M
   49    52     1     0     0
SMALL
bcc


@<TRIPOS>ATOM
      1 C1         -0.1700   -0.1580    0.1650 ca        1 55M     -0.252400
      2 C2          1.2570   -0.3240    0.1530 ca        1 55M      0.135400
      3 C3          1.9690   -0.2850    1.3670 ca        1 55M     -0.218300
      4 C11        -5.0350    1.5260    3.3820 c3        1 55M      0.097000
      5 C13        -4.7810    3.4190    2.0030 c         1 55M      0.696500
      6 C14        -4.0040    2.3140    1.2990 c3        1 55M     -0.152400
      7 C15        -4.2030    1.0580    2.1550 c3        1 55M     -0.084700
      8 C17        -2.8810    0.4300    2.6030 c3        1 55M      0.158100
      9 C19        -3.1090   -0.8890    3.3160 c3        1 55M     -0.122100
     10 C20         1.4700   -0.6680    4.9700 ca        1 55M     -0.142000
     11 C21         2.1840   -0.6310    6.1660 ca        1 55M      0.093100
     12 C22         3.4270    0.0560    6.2290 ca        1 55M      0.116100
     13 C23         3.9230    0.6900    5.0900 ca        1 55M     -0.186000
     14 C24         3.2030    0.6440    3.8960 ca        1 55M     -0.108000
     15 C27         0.5320   -1.9070    7.3030 c3        1 55M      0.109700
     16 C28         5.2950    0.7250    7.5370 c3        1 55M      0.109700
     17 C4          1.2460   -0.0820    2.5510 cp        1 55M      0.500800
     18 N5         -0.1130    0.0730    2.5910 nb        1 55M     -0.732000
     19 C6         -0.7880    0.0380    1.4300 ca        1 55M      0.692600
     20 C7          1.9830   -0.0330    3.8290 cp        1 55M     -0.150500
     21 S8         -0.7700   -0.2450   -1.4060 ss        1 55M      0.057900
     22 C9          0.8160   -0.4890   -2.0140 cc        1 55M      0.342100
     23 N10         1.7960   -0.5140   -1.1290 nd        1 55M     -0.523100
     24 N12        -5.3660    2.9100    3.1550 n         1 55M     -0.592900
     25 O16        -4.8970    4.5940    1.6260 o         1 55M     -0.626500
     26 O18        -2.1580    0.1960    1.3720 os        1 55M     -0.456100
     27 O26         1.7800   -1.2250    7.3450 os        1 55M     -0.303900
     28 H1          3.0590   -0.4190    1.3830 ha        1 55M      0.167000
     29 H2         -4.4490    1.4130    4.3370 h1        1 55M      0.044200
     30 H3         -5.9730    0.9120    3.4730 h1        1 55M      0.044200
     31 H4         -4.4030    2.1740    0.2650 hc        1 55M      0.088200
     32 H5         -2.9270    2.6030    1.2250 hc        1 55M      0.088200
     33 H6         -4.7840    0.2920    1.5780 hc        1 55M      0.074700
     34 H7         -2.3160    1.1520    3.2530 h1        1 55M      0.079700
     35 H8         -2.1530   -1.2730    3.7440 hc        1 55M      0.051367
     36 H9         -3.5100   -1.6500    2.6040 hc        1 55M      0.051367
     37 H10        -3.8420   -0.7480    4.1460 hc        1 55M      0.051367
     38 H11         0.5040   -1.1910    4.9130 ha        1 55M      0.152000
     39 H12         4.8800    1.2310    5.1210 ha        1 55M      0.143000
     40 H13         3.6010    1.1550    3.0060 ha        1 55M      0.141000
     41 H14        -0.2960   -1.2020    7.0480 h1        1 55M      0.044033
     42 H15         0.4150   -2.2930    8.3470 h1        1 55M      0.044033
     43 H16         0.5670   -2.7520    6.5730 h1        1 55M      0.044033
     44 H17         5.1580    1.8120    7.3160 h1        1 55M      0.045367
     45 H18         6.0440    0.2750    6.8410 h1        1 55M      0.045367
     46 H19         5.6050    0.5740    8.6020 h1        1 55M      0.045367
     47 H20         1.0150   -0.6180   -3.0840 h5        1 55M      0.065800
     48 H21        -5.8510    3.4520    3.8190 hn        1 55M      0.333500
     49 O25         4.0530    0.0330    7.4570 os        1 55M     -0.301900
@<TRIPOS>BOND
     1    1    2 ar  
     2    1   19 ar  
     3    1   21 1   
     4    2    3 ar  
     5    2   23 1   
     6    3   17 ar  
     7    3   28 1   
     8    4    7 1   
     9    4   24 1   
    10    4   29 1   
    11    4   30 1   
    12    5    6 1   
    13    5   24 1   
    14    5   25 2   
    15    6    7 1   
    16    6   31 1   
    17    6   32 1   
    18    7    8 1   
    19    7   33 1   
    20    8    9 1   
    21    8   26 1   
    22    8   34 1   
    23    9   35 1   
    24    9   36 1   
    25    9   37 1   
    26   10   11 ar  
    27   10   20 ar  
    28   10   38 1   
    29   11   12 ar  
    30   11   27 1   
    31   12   13 ar  
    32   12   49 1   
    33   13   14 ar  
    34   13   39 1   
    35   14   20 ar  
    36   14   40 1   
    37   15   27 1   
    38   15   41 1   
    39   15   42 1   
    40   15   43 1   
    41   16   44 1   
    42   16   45 1   
    43   16   46 1   
    44   16   49 1   
    45   17   18 ar  
    46   17   20 1   
    47   18   19 ar  
    48   19   26 1   
    49   21   22 1   
    50   22   23 2   
    51   22   47 1   
    52   24   48 1   
@<TRIPOS>SUBSTRUCTURE
     1 55M         1 TEMP              0 ****  ****    0 ROOT
