@<TRIPOS>MOLECULE
55S
   54    57     1     0     0
SMALL
bcc


@<TRIPOS>ATOM
      1 C4         -0.0880    0.1620    0.0180 ca        1 55S     -0.184500
      2 C14         7.5480   -4.0770    4.3900 c3        1 55S     -0.075900
      3 C5          1.3200    0.1070    0.1890 ca        1 55S      0.231600
      4 C6          3.2890   -0.7090   -1.1150 ca        1 55S      0.927900
      5 C11         4.6710   -2.9810    2.0710 c3        1 55S      0.136400
      6 C7          5.0060   -1.3710   -2.4830 ca        1 55S      0.472800
      7 C8          6.8860   -2.4120   -3.1460 cc        1 55S      0.394700
      8 C9          5.5820   -2.1940   -1.4190 ca        1 55S     -0.208200
      9 C10         4.8640   -2.1900   -0.1920 ca        1 55S      0.759600
     10 C12         5.4900   -3.8930    2.9790 c3        1 55S     -0.071700
     11 C13         6.7600   -3.1960    3.4430 c3        1 55S     -0.074400
     12 N1          3.8710   -0.6300   -2.3670 nb        1 55S     -0.769000
     13 N2          5.8620   -1.5330   -3.5760 na        1 55S     -0.382000
     14 C3         -0.9230    0.2620    1.1190 ca        1 55S      0.004000
     15 N3          6.7480   -2.8220   -1.8770 nd        1 55S     -0.499100
     16 O1         -2.6480    1.0200    3.3530 o         1 55S     -0.657300
     17 O          -0.7480    1.0200    4.8210 o         1 55S     -0.657300
     18 C1         -1.6810   -1.2240    4.0640 c3        1 55S     -0.306600
     19 C          -2.5940   -1.4250    5.2450 c3        1 55S     -0.075100
     20 C2         -0.4130    0.3070    2.4230 ca        1 55S     -0.421500
     21 C19         0.9780    0.2770    2.5840 ca        1 55S      0.004000
     22 C18         1.8400    0.1830    1.5000 ca        1 55S     -0.184500
     23 N           2.1310    0.0790   -0.9530 nh        1 55S     -0.732300
     24 N4          3.7340   -1.4670   -0.0330 nb        1 55S     -0.827000
     25 O2          5.3780   -2.9600    0.8120 os        1 55S     -0.415100
     26 C17         4.6390   -4.3120    4.1680 c3        1 55S     -0.074400
     27 C16         5.4290   -5.1900    5.1160 c3        1 55S     -0.075900
     28 C15         6.7030   -4.5090    5.5720 c3        1 55S     -0.078400
     29 H1         -0.5300    0.1290   -0.9900 ha        1 55S      0.152500
     30 H3          7.9130   -4.9840    3.8400 hc        1 55S      0.041700
     31 H4          4.6080   -1.9410    2.4810 h1        1 55S      0.055200
     32 H5          3.6430   -3.3940    1.9050 h1        1 55S      0.055200
     33 H6          7.6980   -2.7060   -3.8220 h5        1 55S      0.076800
     34 H7          5.7800   -4.8110    2.3940 hc        1 55S      0.071700
     35 H8          7.3850   -2.9410    2.5480 hc        1 55S      0.044700
     36 H9          6.4940   -2.2360    3.9590 hc        1 55S      0.044700
     37 H10         5.7710   -1.1050   -4.4580 hn        1 55S      0.319700
     38 H11        -2.0170    0.3160    0.9690 ha        1 55S      0.156000
     39 H13        -0.7100   -1.7480    4.2680 h1        1 55S      0.106700
     40 H14        -2.1230   -1.7480    3.1760 h1        1 55S      0.106700
     41 H15        -3.5920   -0.9600    5.0500 hc        1 55S      0.052367
     42 H16        -2.1530   -0.9610    6.1620 hc        1 55S      0.052367
     43 H17        -2.7460   -2.5130    5.4420 hc        1 55S      0.052367
     44 H18         1.4000    0.3530    3.6030 ha        1 55S      0.156000
     45 H19         2.9260    0.1820    1.6810 ha        1 55S      0.152500
     46 H20         1.6940    0.3780   -1.8020 hn        1 55S      0.457800
     47 H21         4.2810   -3.3980    4.7120 hc        1 55S      0.044700
     48 H22         3.7350   -4.8680    3.8080 hc        1 55S      0.044700
     49 H23         5.6850   -6.1550    4.6040 hc        1 55S      0.041700
     50 H24         4.7960   -5.4390    6.0080 hc        1 55S      0.041700
     51 H25         7.2920   -5.2100    6.2190 hc        1 55S      0.040200
     52 H26         6.4450   -3.6120    6.1940 hc        1 55S      0.040200
     53 S          -1.4300    0.4400    3.7400 sy        1 55S      1.390300
     54 H2          8.4490   -3.5190    4.7560 hc        1 55S      0.041700
@<TRIPOS>BOND
     1    1    3 ar  
     2    1   14 ar  
     3    1   29 1   
     4    2   11 1   
     5    2   28 1   
     6    2   30 1   
     7    2   54 1   
     8    3   22 ar  
     9    3   23 1   
    10    4   12 ar  
    11    4   23 1   
    12    4   24 ar  
    13    5   10 1   
    14    5   25 1   
    15    5   31 1   
    16    5   32 1   
    17    6    8 ar  
    18    6   12 ar  
    19    6   13 1   
    20    7   13 1   
    21    7   15 2   
    22    7   33 1   
    23    8    9 ar  
    24    8   15 1   
    25    9   24 ar  
    26    9   25 1   
    27   10   11 1   
    28   10   26 1   
    29   10   34 1   
    30   11   35 1   
    31   11   36 1   
    32   13   37 1   
    33   14   20 ar  
    34   14   38 1   
    35   16   53 2   
    36   17   53 2   
    37   18   19 1   
    38   18   39 1   
    39   18   40 1   
    40   18   53 1   
    41   19   41 1   
    42   19   42 1   
    43   19   43 1   
    44   20   21 ar  
    45   20   53 1   
    46   21   22 ar  
    47   21   44 1   
    48   22   45 1   
    49   23   46 1   
    50   26   27 1   
    51   26   47 1   
    52   26   48 1   
    53   27   28 1   
    54   27   49 1   
    55   27   50 1   
    56   28   51 1   
    57   28   52 1   
@<TRIPOS>SUBSTRUCTURE
     1 55S         1 TEMP              0 ****  ****    0 ROOT
