@<TRIPOS>MOLECULE
55S
   54    55     1     0     0
SMALL
bcc


@<TRIPOS>ATOM
      1 C4         -0.0620   -0.8440    1.5280 c1        1 55S     -0.004000
      2 C14         6.7080   -2.2210    4.7790 c3        1 55S     -0.257000
      3 C5          1.3170   -1.1900    1.2460 c3        1 55S      0.067000
      4 C6          2.8810   -1.5590   -0.6400 c2        1 55S      0.180000
      5 C11         5.3130   -3.9660    1.7220 c3        1 55S     -0.011000
      6 C7          4.3850   -1.5660   -2.3810 c2        1 55S      0.093000
      7 C8          6.2610   -2.0130   -3.6320 c1        1 55S      0.053000
      8 C9          5.2880   -2.4140   -1.6120 c2        1 55S     -0.208000
      9 C10         4.8660   -2.7680   -0.3160 c2        1 55S      0.220000
     10 C12         6.5080   -4.6990    2.3080 c3        1 55S     -0.170000
     11 C13         5.5690   -1.4620    5.2410 c1        1 55S     -0.059000
     12 N1          3.1960   -1.1180   -1.9200 n2        1 55S     -0.222000
     13 N2          5.0350   -1.3490   -3.6170 nu        1 55S     -0.253000
     14 C3         -0.6310   -0.3500    2.6650 c2        1 55S      0.011000
     15 N3          6.4140   -2.6550   -2.4210 nu        1 55S     -0.220000
     16 O1         -1.8830    1.6770    4.3230 o         1 55S     -0.936500
     17 O           0.1060    3.0210    4.1490 o         1 55S     -0.936500
     18 C1         -4.1280   -1.3950    2.8100 c2        1 55S     -0.233500
     19 C          -3.9680   -0.8520    4.0110 c2        1 55S     -0.233500
     20 C2          0.1460    0.6460    3.2640 c2        1 55S     -0.922000
     21 C19         1.5610    0.6350    2.9710 c2        1 55S     -0.049000
     22 C18         2.1330   -0.2040    2.0840 c2        1 55S     -0.213000
     23 N           1.5890   -1.2220   -0.1790 nu        1 55S     -0.254000
     24 N4          3.6770   -2.3500    0.1810 n2        1 55S     -0.295000
     25 O2          5.7370   -3.5440    0.4100 os        1 55S     -0.207000
     26 C17         6.1390   -5.4410    3.5730 c3        1 55S     -0.155000
     27 C16         5.7320   -4.5490    4.7270 c3        1 55S     -0.160000
     28 C15         6.8480   -3.6590    5.2390 c3        1 55S     -0.185000
     29 H1         -1.6710   -0.5700    2.9790 ha        1 55S      0.208000
     30 H3          6.6960   -2.1770    3.6490 hc        1 55S      0.147500
     31 H4          5.0440   -3.0700    2.3380 h1        1 55S      0.093500
     32 H5          4.4240   -4.6390    1.6170 h1        1 55S      0.093500
     33 H6          7.1810   -3.2080   -2.1400 hn        1 55S      0.270000
     34 H7          6.8960   -5.4300    1.5490 hc        1 55S      0.096500
     35 H8          7.3300   -3.9660    2.5140 hc        1 55S      0.096500
     36 H9          4.9030   -1.9570    5.9660 ha        1 55S      0.037000
     37 H10         4.6650   -0.8060   -4.3540 hn        1 55S      0.272000
     38 H11         1.5540   -2.2320    1.6530 h1        1 55S      0.171000
     39 H13        -3.9660   -0.8330    1.8800 ha        1 55S      0.117500
     40 H14        -0.0510    1.2660    5.3460 hs        1 55S     -0.499000
     41 H15        -4.4480   -2.4350    2.6640 ha        1 55S      0.117500
     42 H16        -3.6550    0.1940    4.1590 ha        1 55S      0.117500
     43 H17        -4.1450   -1.4140    4.9380 ha        1 55S      0.117500
     44 H18         2.1890    1.3460    3.5390 ha        1 55S      0.164000
     45 H19         3.2230   -0.2970    1.9750 ha        1 55S      0.169000
     46 H20         1.1290   -0.5010   -0.7010 hn        1 55S      0.239000
     47 H21         5.2940   -6.1480    3.3520 hc        1 55S      0.086500
     48 H22         7.0200   -6.0650    3.8840 hc        1 55S      0.086500
     49 H23         4.8520   -3.9210    4.4240 hc        1 55S      0.080500
     50 H24         5.3830   -5.2120    5.5650 hc        1 55S      0.080500
     51 H25         7.8410   -4.0610    4.9050 hc        1 55S      0.084500
     52 H26         6.8500   -3.6800    6.3620 hc        1 55S      0.084500
     53 S          -0.4800    1.7600    4.3040 s6        1 55S      2.874000
     54 H2          7.6180   -1.6270    5.0970 hc        1 55S      0.147500
@<TRIPOS>BOND
     1    1    3 1   
     2    1   14 1   
     3    2   11 1   
     4    2   28 1   
     5    2   30 1   
     6    2   54 1   
     7    3   22 1   
     8    3   23 1   
     9    3   38 1   
    10    4   12 1   
    11    4   23 1   
    12    4   24 1   
    13    5   10 1   
    14    5   25 1   
    15    5   31 1   
    16    5   32 1   
    17    6    8 1   
    18    6   12 1   
    19    6   13 1   
    20    7   13 1   
    21    7   15 1   
    22    8    9 1   
    23    8   15 1   
    24    9   24 1   
    25    9   25 1   
    26   10   26 1   
    27   10   34 1   
    28   10   35 1   
    29   11   36 1   
    30   13   37 1   
    31   14   20 1   
    32   14   29 1   
    33   15   33 1   
    34   16   53 1   
    35   17   53 1   
    36   18   19 1   
    37   18   39 1   
    38   18   41 1   
    39   19   42 1   
    40   19   43 1   
    41   20   21 1   
    42   20   53 1   
    43   21   22 1   
    44   21   44 1   
    45   22   45 1   
    46   23   46 1   
    47   26   27 1   
    48   26   47 1   
    49   26   48 1   
    50   27   28 1   
    51   27   49 1   
    52   27   50 1   
    53   28   51 1   
    54   28   52 1   
    55   40   53 1   
@<TRIPOS>SUBSTRUCTURE
     1 55S         1 TEMP              0 ****  ****    0 ROOT
