@<TRIPOS>MOLECULE
55U
   48    50     1     0     0
SMALL
bcc


@<TRIPOS>ATOM
      1 C10        -0.0450   -0.0720    0.0290 cp        1 55U      0.505800
      2 C15         3.4090   -0.3920    3.6540 ca        1 55U     -0.251300
      3 C17         1.3240   -0.1440    2.4610 ca        1 55U     -0.279600
      4 C21        -2.9440    0.2790    4.8670 c3        1 55U     -0.126400
      5 C22        -4.4480    0.3630    4.6480 c3        1 55U      0.101800
      6 C01        -2.2070    0.6590   -6.0760 c3        1 55U      0.188100
      7 C03        -3.9450   -0.8010   -5.1470 c3        1 55U      0.188100
      8 C04        -2.1660    0.0460   -3.7190 ca        1 55U      0.191600
      9 C05        -2.6880   -0.6630   -2.6060 ca        1 55U     -0.202000
     10 C06        -2.0100   -0.6880   -1.3950 ca        1 55U     -0.062500
     11 C07        -0.7840   -0.0310   -1.2430 cp        1 55U     -0.212500
     12 C08        -0.2530    0.6650   -2.3360 ca        1 55U     -0.062500
     13 C09        -0.9210    0.7050   -3.5500 ca        1 55U     -0.202000
     14 C11         1.3330   -0.2520    0.0080 ca        1 55U     -0.288600
     15 C12         2.0540   -0.2890    1.2390 ca        1 55U      0.441600
     16 N13         3.4260   -0.4680    1.2240 nb        1 55U     -0.652000
     17 C14         4.0560   -0.5120    2.3840 ca        1 55U      0.437200
     18 C16         2.0490   -0.2090    3.6830 ca        1 55U     -0.068000
     19 C18        -0.1100    0.0480    2.3640 ca        1 55U      0.629200
     20 N19        -0.8430    0.1540    3.5860 nh        1 55U     -0.822900
     21 N23        -5.2190    0.2260    5.9210 n4        1 55U     -0.839600
     22 N24        -0.7610    0.0860    1.1910 nb        1 55U     -0.728000
     23 H1          4.0080   -0.4510    4.5720 ha        1 55U      0.153000
     24 H2         -2.5190    1.3830    3.0420 h1        1 55U      0.064200
     25 H3         -2.7050   -0.4170    2.8190 h1        1 55U      0.064200
     26 H4         -2.6680   -0.6940    5.3560 hc        1 55U      0.074200
     27 H5         -2.5940    1.1140    5.5290 hc        1 55U      0.074200
     28 H6         -4.7860   -0.4610    3.9530 hx        1 55U      0.117700
     29 H7         -4.7200    1.3580    4.1870 hx        1 55U      0.117700
     30 H8         -1.9180    1.7290   -5.8900 h1        1 55U      0.042033
     31 H9         -1.2800    0.0720   -6.3200 h1        1 55U      0.042033
     32 H10        -2.8930    0.6320   -6.9630 h1        1 55U      0.042033
     33 H11        -4.3510   -0.6790   -6.1860 h1        1 55U      0.042033
     34 H12        -3.6000   -1.8630   -5.0190 h1        1 55U      0.042033
     35 H13        -4.7790   -0.6040   -4.4200 h1        1 55U      0.042033
     36 H14        -3.6410   -1.2060   -2.6850 ha        1 55U      0.138000
     37 H15        -2.4420   -1.2460   -0.5500 ha        1 55U      0.134000
     38 H16         0.7100    1.1920   -2.2330 ha        1 55U      0.134000
     39 H17        -0.4630    1.2620   -4.3810 ha        1 55U      0.138000
     40 H18         1.8700   -0.3760   -0.9450 ha        1 55U      0.174000
     41 H19         5.1530   -0.6560    2.3380 h4        1 55U      0.036100
     42 H20         1.5290   -0.1300    4.6490 ha        1 55U      0.133000
     43 H21        -0.3980    0.8030    4.2070 hn        1 55U      0.392800
     44 H22        -4.9570    0.9720    6.5740 hn        1 55U      0.462133
     45 H23        -6.2240    0.2840    5.7310 hn        1 55U      0.462133
     46 H233       -5.0120   -0.6780    6.3600 hn        1 55U      0.462133
     47 N02        -2.8870    0.1470   -4.9150 nh        1 55U     -0.661000
     48 C20        -2.2680    0.3770    3.4910 c3        1 55U      0.192800
@<TRIPOS>BOND
     1    1   11 1   
     2    1   14 ar  
     3    1   22 ar  
     4    2   17 ar  
     5    2   18 ar  
     6    2   23 1   
     7    3   15 ar  
     8    3   18 ar  
     9    3   19 ar  
    10    4    5 1   
    11    4   26 1   
    12    4   27 1   
    13    4   48 1   
    14    5   21 1   
    15    5   28 1   
    16    5   29 1   
    17    6   30 1   
    18    6   31 1   
    19    6   32 1   
    20    6   47 1   
    21    7   33 1   
    22    7   34 1   
    23    7   35 1   
    24    7   47 1   
    25    8    9 ar  
    26    8   13 ar  
    27    8   47 1   
    28    9   10 ar  
    29    9   36 1   
    30   10   11 ar  
    31   10   37 1   
    32   11   12 ar  
    33   12   13 ar  
    34   12   38 1   
    35   13   39 1   
    36   14   15 ar  
    37   14   40 1   
    38   15   16 ar  
    39   16   17 ar  
    40   17   41 1   
    41   18   42 1   
    42   19   20 1   
    43   19   22 ar  
    44   20   43 1   
    45   20   48 1   
    46   21   44 1   
    47   21   45 1   
    48   21   46 1   
    49   24   48 1   
    50   25   48 1   
@<TRIPOS>SUBSTRUCTURE
     1 55U         1 TEMP              0 ****  ****    0 ROOT
