@<TRIPOS>MOLECULE
55U
   48    46     1     0     0
SMALL
bcc


@<TRIPOS>ATOM
      1 C10         0.4010    0.7180    0.2250 c2        1 55U      0.033000
      2 C15         3.7290   -1.6510    2.6370 c2        1 55U     -0.531000
      3 C17         1.9610    0.1830    2.5870 c3        1 55U     -0.151000
      4 C21        -2.5570    0.0060    3.1220 c2        1 55U      0.211000
      5 C22        -5.3470   -0.6950    2.9010 c1        1 55U      0.013000
      6 C01        -2.2240    0.6680   -6.0510 c2        1 55U     -0.159000
      7 C03        -4.6830   -0.3380   -2.9280 c3        1 55U     -0.127000
      8 C04        -2.3020   -0.2490   -2.5020 cx        1 55U      0.043000
      9 C05        -1.9780   -1.2380   -1.3680 cx        1 55U     -0.156000
     10 C06        -1.3030    0.0560   -1.4320 cu        1 55U     -0.117000
     11 C07        -0.4310    0.9250   -0.9710 c2        1 55U     -0.073000
     12 C08        -1.9850    0.0560   -4.9330 c1        1 55U     -0.153000
     13 C09        -1.7190   -0.5850   -3.8290 c2        1 55U     -0.137000
     14 C11         1.7270    1.0170    0.1920 c2        1 55U     -0.150000
     15 C12         2.5850    0.8650    1.3770 c2        1 55U      0.000000
     16 N13         3.7890    1.3220    1.3490 n2        1 55U     -0.195000
     17 C14         4.1750   -2.8020    3.1520 c1        1 55U      0.452000
     18 C16         2.5010   -1.1080    3.0210 c1        1 55U     -0.090000
     19 C18         0.4490   -0.0050    2.4490 c2        1 55U      0.117000
     20 N19        -0.1930   -0.4410    3.6390 n7        1 55U     -0.285000
     21 N23        -6.4870   -0.8940    2.7300 n2        1 55U     -0.271000
     22 N24        -0.2530    0.2280    1.3670 n2        1 55U     -0.253000
     23 H1          4.3870   -1.1800    1.8670 ha        1 55U      0.193000
     24 H2         -1.8300   -1.4480    4.5020 h1        1 55U      0.195500
     25 H3         -2.3120    1.0260    2.7670 ha        1 55U      0.225500
     26 H4         -1.6450   -1.7720    2.7240 h1        1 55U      0.195500
     27 H5         -2.8280    0.8220    5.1110 ha        1 55U      0.009750
     28 H6         -3.6540   -0.3310    3.0610 ha        1 55U      0.225500
     29 H7         -3.3500    1.2110    4.9010 ha        1 55U      0.009750
     30 H8         -3.4870    1.2980   -2.9890 hn        1 55U      0.171000
     31 H9         -1.6270    1.5300   -6.3890 ha        1 55U      0.142500
     32 H10        -3.0320    0.3590   -6.7310 ha        1 55U      0.142500
     33 H11        -4.5850   -0.6730   -3.9970 h1        1 55U      0.075333
     34 H12        -5.6120    0.2840   -2.8300 h1        1 55U      0.075333
     35 H13        -4.7850   -1.2500   -2.2840 h1        1 55U      0.075333
     36 H14        -1.4150   -2.1560   -1.6220 hc        1 55U      0.117500
     37 H15        -2.7360   -1.4150   -0.5840 hc        1 55U      0.117500
     38 H16        -0.2580    1.8860   -1.4870 ha        1 55U      0.156000
     39 H17        -1.0080   -1.4300   -3.8320 ha        1 55U      0.149000
     40 H18         2.1960    1.4030   -0.7280 ha        1 55U      0.179000
     41 H19         4.3200    1.2100    2.1880 hn        1 55U      0.148000
     42 H20         2.1320    0.8690    3.4850 hc        1 55U      0.179000
     43 H21         0.4170   -1.0130    4.2040 hn        1 55U      0.263000
     44 H22        -4.5830    1.7820    3.1220 ha        1 55U      0.009750
     45 H23        -4.8240    2.4160    3.0950 ha        1 55U      0.009750
     46 H233       -7.4360   -1.0550    2.5860 hn        1 55U      0.316000
     47 N02        -3.5680    0.4470   -2.4600 n7        1 55U     -0.274000
     48 C20        -1.5350   -0.9450    3.5250 c3        1 55U     -0.131000
@<TRIPOS>BOND
     1    1   11 1   
     2    1   14 1   
     3    1   22 1   
     4    2   17 1   
     5    2   18 1   
     6    2   23 1   
     7    3   15 1   
     8    3   18 1   
     9    3   19 1   
    10    3   42 1   
    11    4   25 1   
    12    4   28 1   
    13    4   48 1   
    14    5   21 1   
    15    6   12 1   
    16    6   31 1   
    17    6   32 1   
    18    7   33 1   
    19    7   34 1   
    20    7   35 1   
    21    7   47 1   
    22    8    9 1   
    23    8   10 1   
    24    8   13 1   
    25    8   47 1   
    26    9   10 1   
    27    9   36 1   
    28    9   37 1   
    29   10   11 1   
    30   11   38 1   
    31   12   13 1   
    32   13   39 1   
    33   14   15 1   
    34   14   40 1   
    35   15   16 1   
    36   16   41 1   
    37   19   20 1   
    38   19   22 1   
    39   20   43 1   
    40   20   48 1   
    41   21   46 1   
    42   24   48 1   
    43   26   48 1   
    44   27   29 1   
    45   30   47 1   
    46   44   45 1   
@<TRIPOS>SUBSTRUCTURE
     1 55U         1 TEMP              0 ****  ****    0 ROOT
