@<TRIPOS>MOLECULE
55V
   50    51     1     0     0
SMALL
bcc


@<TRIPOS>ATOM
      1 C1P        -0.0590    0.7680    0.1800 c3        1 55V      0.110700
      2 O1O         1.3620    0.6840    0.1400 os        1 55V     -0.312400
      3 C1N         1.9870    0.4110    1.3390 ca        1 55V      0.136100
      4 C1M         1.3510    0.4530    2.5850 ca        1 55V     -0.220000
      5 C1Q         3.3580    0.0890    1.2450 ca        1 55V      0.041100
      6 O1V         3.9300   -0.0910    0.0000 os        1 55V     -0.310900
      7 C1W         4.8280    0.9550   -0.3760 c3        1 55V      0.115700
      8 C1R         4.0780   -0.1460    2.4340 ca        1 55V      0.136100
      9 O1T         5.4250   -0.3960    2.2650 os        1 55V     -0.312400
     10 C1U         6.1430   -0.8000    3.4260 c3        1 55V      0.110700
     11 C1S         3.4390   -0.0980    3.6800 ca        1 55V     -0.220000
     12 C1L         2.0760    0.1970    3.7540 ca        1 55V     -0.009300
     13 C1J         1.3470    0.2130    5.0810 c3        1 55V      0.086400
     14 C1K         0.6290   -1.1330    5.2470 c3        1 55V     -0.083600
     15 C1X         2.3040    0.4030    6.2600 c3        1 55V     -0.083600
     16 C1I         0.3740    1.2860    5.1030 c1        1 55V     -0.147100
     17 C1H        -0.4290    2.1760    5.1330 cg        1 55V     -0.086000
     18 C5         -1.3680    3.2100    5.1650 ca        1 55V     -0.342600
     19 C4         -1.9200    3.7500    3.9740 ca        1 55V      0.538600
     20 C1Y        -1.4610    3.1890    2.6650 c3        1 55V     -0.161400
     21 N3         -2.8340    4.7370    3.9760 nb        1 55V     -0.790000
     22 C2         -3.2430    5.2050    5.2230 ca        1 55V      0.916900
     23 N1Z        -4.2720    6.1480    5.2440 nv        1 55V     -0.932500
     24 N1         -2.7560    4.7770    6.4420 nb        1 55V     -0.831000
     25 C6         -1.8130    3.7830    6.4110 ca        1 55V      0.747200
     26 N1G        -1.2530    3.3660    7.6010 nv        1 55V     -0.956500
     27 H1P        -0.3830    1.6640    0.7650 h1        1 55V      0.045033
     28 H1PA       -0.5030   -0.1620    0.6110 h1        1 55V      0.045033
     29 H1PB       -0.3400    0.8790   -0.8980 h1        1 55V      0.045033
     30 H1M         0.2810    0.6980    2.6560 ha        1 55V      0.145000
     31 H1W         5.1970    0.6340   -1.3810 h1        1 55V      0.041033
     32 H1WA        4.2840    1.9270   -0.4440 h1        1 55V      0.041033
     33 H1WB        5.6700    1.0250    0.3560 h1        1 55V      0.041033
     34 H1U         7.1660   -1.0260    3.0300 h1        1 55V      0.045033
     35 H1UA        5.6860   -1.7120    3.8800 h1        1 55V      0.045033
     36 H1UB        6.1840    0.0320    4.1700 h1        1 55V      0.045033
     37 H1S         4.0160   -0.2950    4.5940 ha        1 55V      0.145000
     38 H1K        -0.1090   -1.2800    4.4230 hc        1 55V      0.042867
     39 H1KA        0.0920   -1.1600    6.2240 hc        1 55V      0.042867
     40 H1KB        1.3740   -1.9630    5.2170 hc        1 55V      0.042867
     41 H1X         2.9700    1.2810    6.0850 hc        1 55V      0.042867
     42 H1XA        1.7200    0.5770    7.1960 hc        1 55V      0.042867
     43 H1XB        2.9290   -0.5110    6.4030 hc        1 55V      0.042867
     44 H1Y        -0.3430    3.1400    2.6550 hc        1 55V      0.061700
     45 H1YA       -1.8050    3.8000    1.7950 hc        1 55V      0.061700
     46 H1YB       -1.8650    2.1510    2.5570 hc        1 55V      0.061700
     47 HN1Z       -4.4630    6.6270    4.3950 hn        1 55V      0.430800
     48 HN1A       -4.4060    6.6550    6.0860 hn        1 55V      0.430800
     49 HN1G       -1.6570    3.6500    8.4600 hn        1 55V      0.436300
     50 HN1B       -0.7160    2.5340    7.5840 hn        1 55V      0.436300
@<TRIPOS>BOND
     1    1    2 1   
     2    1   27 1   
     3    1   28 1   
     4    1   29 1   
     5    2    3 1   
     6    3    4 ar  
     7    3    5 ar  
     8    4   12 ar  
     9    4   30 1   
    10    5    6 1   
    11    5    8 ar  
    12    6    7 1   
    13    7   31 1   
    14    7   32 1   
    15    7   33 1   
    16    8    9 1   
    17    8   11 ar  
    18    9   10 1   
    19   10   34 1   
    20   10   35 1   
    21   10   36 1   
    22   11   12 ar  
    23   11   37 1   
    24   12   13 1   
    25   13   14 1   
    26   13   15 1   
    27   13   16 1   
    28   14   38 1   
    29   14   39 1   
    30   14   40 1   
    31   15   41 1   
    32   15   42 1   
    33   15   43 1   
    34   16   17 3   
    35   17   18 1   
    36   18   19 ar  
    37   18   25 ar  
    38   19   20 1   
    39   19   21 ar  
    40   20   44 1   
    41   20   45 1   
    42   20   46 1   
    43   21   22 ar  
    44   22   23 1   
    45   22   24 ar  
    46   23   47 1   
    47   23   48 1   
    48   24   25 ar  
    49   25   26 1   
    50   26   49 1   
    51   26   50 1   
@<TRIPOS>SUBSTRUCTURE
     1 55V         1 TEMP              0 ****  ****    0 ROOT
