@<TRIPOS>MOLECULE
55V
   50    46     1     0     0
SMALL
bcc


@<TRIPOS>ATOM
      1 C1P        -3.6450    1.7140    1.3040 c3        1 55V     -0.075000
      2 O1O        -3.1290    1.0510    0.1710 os        1 55V     -0.222000
      3 C1N        -1.8670    1.5540   -0.2680 c2        1 55V      0.058000
      4 C1M        -0.7000    0.8510    0.0270 c2        1 55V     -0.133000
      5 C1Q        -1.8010    2.7570   -0.9810 c1        1 55V     -0.005000
      6 O1V        -3.0200    3.4700   -1.3140 o         1 55V     -0.230000
      7 C1W        -3.3020    3.5150   -2.7180 c3        1 55V     -0.076000
      8 C1R        -0.5640    3.2540   -1.3960 c2        1 55V      0.043000
      9 O1T        -0.4940    4.4770   -2.1020 os        1 55V     -0.228000
     10 C1U        -0.1340    5.5990   -1.2850 c3        1 55V     -0.077000
     11 C1S         0.5970    2.5570   -1.1040 c1        1 55V     -0.140000
     12 C1L         0.5300    1.3470   -0.3870 c1        1 55V     -0.044000
     13 C1J         1.8490    0.6410    0.0850 c3        1 55V      0.108000
     14 C1K         2.3240    1.2700    1.4070 c3        1 55V     -0.202000
     15 C1X         2.9280    0.8120   -0.9770 c3        1 55V     -0.202000
     16 C1I         1.5820   -0.8400    0.2930 c1        1 55V     -0.178000
     17 C1H         1.3710   -2.0180    0.4530 c1        1 55V     -0.086000
     18 C5          1.1000   -3.5340    0.6600 c1        1 55V     -0.211000
     19 C4         -0.1880   -3.9720    0.8620 c2        1 55V      0.117000
     20 C1Y        -1.3370   -3.0890    0.5170 c3        1 55V     -0.185000
     21 N3         -0.4080   -5.2230    1.2860 n1        1 55V     -0.265000
     22 C2          0.6390   -6.0570    1.5160 c1        1 55V      0.200000
     23 N1Z         0.4060   -7.4220    1.8250 n3        1 55V     -0.332000
     24 N1          1.9230   -5.6190    1.3140 n1        1 55V     -0.307000
     25 C6          2.1460   -4.3770    0.8930 c1        1 55V      0.227000
     26 N1G         3.4550   -3.9380    0.6900 n3        1 55V     -0.355000
     27 H1P        -2.9600    2.2880    1.6830 h1        1 55V      0.085000
     28 H1PA       -4.4180    2.2570    1.0410 h1        1 55V      0.085000
     29 H1PB       -3.9280    1.0380    1.9860 h1        1 55V      0.085000
     30 H1M        -0.7480    0.0060    0.5270 ha        1 55V      0.160000
     31 H1W        -2.4590    3.3700   -3.2310 h1        1 55V      0.086000
     32 H1WA       -3.6770    4.3910   -2.9480 h1        1 55V      0.086000
     33 H1WB       -3.9490    2.8110   -2.9450 h1        1 55V      0.086000
     34 H1U         0.7360    5.3900   -0.7800 h1        1 55V      0.085000
     35 H1UA       -0.0040    6.3610   -1.8340 h1        1 55V      0.085000
     36 H1UB       -0.8490    5.7790   -0.6440 h1        1 55V      0.085000
     37 H1S         1.4880    2.9170   -1.4030 ha        1 55V      0.149000
     38 H1K         2.5730    2.2030    1.2550 hc        1 55V      0.082500
     39 H1KA        3.1170    0.7670    1.7500 hc        1 55V      0.082500
     40 H1KB        1.6160    1.2300    2.0510 hc        1 55V      0.082500
     41 H1X         2.5830    0.5230   -1.8390 hc        1 55V      0.082500
     42 H1XA        3.7380    0.2490   -0.7280 hc        1 55V      0.082500
     43 H1XB        3.1830    1.7280   -1.0280 hc        1 55V      0.082500
     44 H1Y        -2.1860   -3.5570    0.7150 hc        1 55V      0.102333
     45 H1YA       -1.3020   -2.8600   -0.4460 hc        1 55V      0.102333
     46 H1YB       -1.2860   -2.2830    1.0380 hc        1 55V      0.102333
     47 HN1Z       -0.4470   -7.7320    1.9030 hn        1 55V      0.227000
     48 HN1A        1.1490   -8.0310    1.8970 hn        1 55V      0.227000
     49 HN1G        4.1620   -4.4900    0.8990 hn        1 55V      0.231500
     50 HN1B        3.6070   -3.1360    0.3090 hn        1 55V      0.231500
@<TRIPOS>BOND
     1    1    2 1   
     2    1   27 1   
     3    1   28 1   
     4    1   29 1   
     5    2    3 1   
     6    3    4 1   
     7    3    5 1   
     8    4   12 1   
     9    4   30 1   
    10    5    8 1   
    11    6    7 1   
    12    7   31 1   
    13    7   32 1   
    14    7   33 1   
    15    8    9 1   
    16    8   11 1   
    17    9   10 1   
    18   10   34 1   
    19   10   35 1   
    20   10   36 1   
    21   11   37 1   
    22   12   13 1   
    23   13   14 1   
    24   13   15 1   
    25   13   16 1   
    26   14   38 1   
    27   14   39 1   
    28   14   40 1   
    29   15   41 1   
    30   15   42 1   
    31   15   43 1   
    32   16   17 1   
    33   18   19 1   
    34   18   25 1   
    35   19   20 1   
    36   19   21 1   
    37   20   44 1   
    38   20   45 1   
    39   20   46 1   
    40   22   23 1   
    41   22   24 1   
    42   23   47 1   
    43   23   48 1   
    44   25   26 1   
    45   26   49 1   
    46   26   50 1   
@<TRIPOS>SUBSTRUCTURE
     1 55V         1 TEMP              0 ****  ****    0 ROOT
