@<TRIPOS>MOLECULE
55V
   50    51     1     0     0
SMALL
bcc


@<TRIPOS>ATOM
      1 C1P         0.1750    0.8270    0.0140 c3        1 55V      0.111200
      2 O1O         1.5880    0.6590    0.0560 os        1 55V     -0.312900
      3 C1N         2.1330    0.3990    1.2980 ca        1 55V      0.136100
      4 C1M         1.4340    0.5250    2.5030 ca        1 55V     -0.220000
      5 C1Q         3.4910    0.0140    1.2930 ca        1 55V      0.042100
      6 O1V         4.1670   -0.2520    0.1170 os        1 55V     -0.310900
      7 C1W         4.5240    0.9200   -0.6170 c3        1 55V      0.115700
      8 C1R         4.1330   -0.2090    2.5290 ca        1 55V      0.136100
      9 O1T         5.4720   -0.5290    2.4450 os        1 55V     -0.312900
     10 C1U         6.0950   -0.9530    3.6520 c3        1 55V      0.111200
     11 C1S         3.4260   -0.0930    3.7330 ca        1 55V     -0.220000
     12 C1L         2.0790    0.2730    3.7190 ca        1 55V     -0.010300
     13 C1J         1.2770    0.3750    5.0000 c3        1 55V      0.086400
     14 C1K         0.4640   -0.9170    5.1580 c3        1 55V     -0.084100
     15 C1X         2.1730    0.5400    6.2290 c3        1 55V     -0.084100
     16 C1I         0.3760    1.5070    4.9340 c1        1 55V     -0.146100
     17 C1H        -0.3710    2.4450    4.8900 cg        1 55V     -0.087000
     18 C5         -1.2410    3.5360    4.8340 ca        1 55V     -0.340600
     19 C4         -1.6910    4.0650    3.5970 ca        1 55V      0.537600
     20 C1Y        -1.2270    3.4050    2.3360 c3        1 55V     -0.161400
     21 N3         -2.5190    5.1220    3.5130 nb        1 55V     -0.789000
     22 C2         -2.9090    5.7050    4.7160 ca        1 55V      0.917900
     23 N1Z        -3.6760    6.8680    4.6430 nh        1 55V     -0.933500
     24 N1         -2.5560    5.2620    5.9770 nb        1 55V     -0.830000
     25 C6         -1.7260    4.1730    6.0330 ca        1 55V      0.744200
     26 N1G        -1.3990    3.6540    7.2710 nh        1 55V     -0.951500
     27 H1P        -0.1250    1.7620    0.5500 h1        1 55V      0.045033
     28 H1PA       -0.3450   -0.0590    0.4520 h1        1 55V      0.045033
     29 H1PB       -0.0420    0.9130   -1.0810 h1        1 55V      0.045033
     30 H1M         0.3760    0.8260    2.5050 ha        1 55V      0.144500
     31 H1W         5.0350    0.5140   -1.5250 h1        1 55V      0.041367
     32 H1WA        3.6080    1.4960   -0.8970 h1        1 55V      0.041367
     33 H1WB        5.2210    1.5550   -0.0190 h1        1 55V      0.041367
     34 H1U         7.1240   -1.2450    3.3210 h1        1 55V      0.045033
     35 H1UA        5.5590   -1.8280    4.0930 h1        1 55V      0.045033
     36 H1UB        6.1420   -0.1110    4.3850 h1        1 55V      0.045033
     37 H1S         3.9400   -0.2870    4.6840 ha        1 55V      0.144500
     38 H1K        -0.2300   -1.0440    4.2940 hc        1 55V      0.043033
     39 H1KA       -0.1330   -0.8780    6.1000 hc        1 55V      0.043033
     40 H1KB        1.1540   -1.7930    5.2000 hc        1 55V      0.043033
     41 H1X         2.9000    1.3720    6.0740 hc        1 55V      0.043033
     42 H1XA        1.5470    0.7710    7.1240 hc        1 55V      0.043033
     43 H1XB        2.7320   -0.4050    6.4290 hc        1 55V      0.043033
     44 H1Y        -0.1120    3.3100    2.3620 hc        1 55V      0.061367
     45 H1YA       -1.5210    3.9750    1.4220 hc        1 55V      0.061367
     46 H1YB       -1.6700    2.3790    2.2810 hc        1 55V      0.061367
     47 HN1Z       -4.1180    7.0650    3.7770 hn        1 55V      0.431800
     48 HN1A       -4.1460    7.1580    5.4680 hn        1 55V      0.431800
     49 HN1G       -1.5980    4.1810    8.0870 hn        1 55V      0.434300
     50 HN1B       -0.6440    3.0120    7.3030 hn        1 55V      0.434300
@<TRIPOS>BOND
     1    1    2 1   
     2    1   27 1   
     3    1   28 1   
     4    1   29 1   
     5    2    3 1   
     6    3    4 ar  
     7    3    5 ar  
     8    4   12 ar  
     9    4   30 1   
    10    5    6 1   
    11    5    8 ar  
    12    6    7 1   
    13    7   31 1   
    14    7   32 1   
    15    7   33 1   
    16    8    9 1   
    17    8   11 ar  
    18    9   10 1   
    19   10   34 1   
    20   10   35 1   
    21   10   36 1   
    22   11   12 ar  
    23   11   37 1   
    24   12   13 1   
    25   13   14 1   
    26   13   15 1   
    27   13   16 1   
    28   14   38 1   
    29   14   39 1   
    30   14   40 1   
    31   15   41 1   
    32   15   42 1   
    33   15   43 1   
    34   16   17 3   
    35   17   18 1   
    36   18   19 ar  
    37   18   25 ar  
    38   19   20 1   
    39   19   21 ar  
    40   20   44 1   
    41   20   45 1   
    42   20   46 1   
    43   21   22 ar  
    44   22   23 1   
    45   22   24 ar  
    46   23   47 1   
    47   23   48 1   
    48   24   25 ar  
    49   25   26 1   
    50   26   49 1   
    51   26   50 1   
@<TRIPOS>SUBSTRUCTURE
     1 55V         1 TEMP              0 ****  ****    0 ROOT
