@<TRIPOS>MOLECULE
55V
   52    53     1     0     0
SMALL
bcc


@<TRIPOS>ATOM
      1 C1P        -0.5890   -0.2380    0.3670 c3        1 55V      0.113700
      2 O1O        -0.2220    0.7120    1.3800 os        1 55V     -0.368400
      3 C1N         0.9530    0.4290    2.0600 ca        1 55V      0.094600
      4 C1M         0.8450    0.3580    3.4540 ca        1 55V     -0.204500
      5 C1Q         2.2100    0.3560    1.4280 ca        1 55V      0.101100
      6 O1V         2.2110    0.5290    0.0700 os        1 55V     -0.326900
      7 C1W         3.2730   -0.0750   -0.6800 c3        1 55V      0.117700
      8 C1R         3.3610    0.2000    2.2490 ca        1 55V      0.094600
      9 O1T         4.5580    0.0960    1.5870 os        1 55V     -0.368400
     10 C1U         5.7070   -0.2430    2.3670 c3        1 55V      0.113700
     11 C1S         3.2480    0.2080    3.6470 ca        1 55V     -0.204500
     12 C1L         1.9950    0.3160    4.2480 ca        1 55V     -0.067300
     13 C1J         1.8050    0.4910    5.7450 c3        1 55V      0.048400
     14 C1K         1.2300   -0.7850    6.3610 c3        1 55V     -0.093600
     15 C1X         3.0940    0.8630    6.4710 c3        1 55V     -0.093600
     16 C1I         0.8420    1.5820    5.8530 c1        1 55V      0.150900
     17 C1H         0.0340    2.4660    5.7070 cg        1 55V     -0.321000
     18 C5         -0.9030    3.4530    5.4390 ca        1 55V     -0.025600
     19 C4         -1.5360    4.2420    6.4720 ca        1 55V      0.535600
     20 C1Y        -1.1700    3.9870    7.8950 c3        1 55V     -0.181400
     21 N3         -2.4450    5.1860    6.1700 nb        1 55V     -0.639000
     22 C2         -2.7400    5.3610    4.8330 ca        1 55V      0.723900
     23 N1Z        -3.7520    6.4140    4.5280 n4        1 55V     -0.813300
     24 N1         -2.2140    4.6880    3.7760 nb        1 55V     -0.660000
     25 C6         -1.2900    3.7300    4.0980 ca        1 55V      0.490200
     26 N1G        -0.6910    2.9730    2.9850 n4        1 55V     -0.822300
     27 H1P         0.1750   -0.2420   -0.4480 h1        1 55V      0.065533
     28 H1PA       -1.5710    0.1480   -0.0060 h1        1 55V      0.065533
     29 H1PB       -0.6990   -1.2520    0.8190 h1        1 55V      0.065533
     30 H1M        -0.1540    0.2810    3.9090 ha        1 55V      0.152500
     31 H1W         2.8750   -0.0630   -1.7280 h1        1 55V      0.067033
     32 H1WA        3.4670   -1.1160   -0.3330 h1        1 55V      0.067033
     33 H1WB        4.1930    0.5530   -0.5930 h1        1 55V      0.067033
     34 H1U         6.5040   -0.3780    1.5890 h1        1 55V      0.065533
     35 H1UA        5.5380   -1.1900    2.9320 h1        1 55V      0.065533
     36 H1UB        5.9670    0.5980    3.0550 h1        1 55V      0.065533
     37 H1S         4.1560    0.1350    4.2680 ha        1 55V      0.152500
     38 H1K         1.9580   -1.6210    6.2150 hc        1 55V      0.067033
     39 H1KA        0.2660   -1.0630    5.8710 hc        1 55V      0.067033
     40 H1KB        1.0610   -0.6440    7.4550 hc        1 55V      0.067033
     41 H1X         2.8750    1.1140    7.5370 hc        1 55V      0.067033
     42 H1XA        3.7950   -0.0080    6.4550 hc        1 55V      0.067033
     43 H1XB        3.5890    1.7380    5.9850 hc        1 55V      0.067033
     44 H1Y        -1.6470    3.0260    8.2260 hc        1 55V      0.107367
     45 H1YA       -1.5120    4.8060    8.5790 hc        1 55V      0.107367
     46 H1YB       -0.0580    3.8820    7.9800 hc        1 55V      0.107367
     47 HN1Z       -3.9210    6.4760    3.5130 hn        1 55V      0.496133
     48 HN1A       -3.4070    7.3220    4.8760 hn        1 55V      0.496133
     49 HN1G       -0.5480    3.5650    2.1550 hn        1 55V      0.497800
     50 HN1B        0.2230    2.5730    3.2800 hn        1 55V      0.497800
     51 H1Z3       -4.6340    6.1820    5.0110 hn        1 55V      0.496133
     52 H1G3       -1.2980    2.1760    2.7120 hn        1 55V      0.497800
@<TRIPOS>BOND
     1    1    2 1   
     2    1   27 1   
     3    1   28 1   
     4    1   29 1   
     5    2    3 1   
     6    3    4 ar  
     7    3    5 ar  
     8    4   12 ar  
     9    4   30 1   
    10    5    6 1   
    11    5    8 ar  
    12    6    7 1   
    13    7   31 1   
    14    7   32 1   
    15    7   33 1   
    16    8    9 1   
    17    8   11 ar  
    18    9   10 1   
    19   10   34 1   
    20   10   35 1   
    21   10   36 1   
    22   11   12 ar  
    23   11   37 1   
    24   12   13 1   
    25   13   14 1   
    26   13   15 1   
    27   13   16 1   
    28   14   38 1   
    29   14   39 1   
    30   14   40 1   
    31   15   41 1   
    32   15   42 1   
    33   15   43 1   
    34   16   17 3   
    35   17   18 1   
    36   18   19 ar  
    37   18   25 ar  
    38   19   20 1   
    39   19   21 ar  
    40   20   44 1   
    41   20   45 1   
    42   20   46 1   
    43   21   22 ar  
    44   22   23 1   
    45   22   24 ar  
    46   23   47 1   
    47   23   48 1   
    48   23   51 1   
    49   24   25 ar  
    50   25   26 1   
    51   26   49 1   
    52   26   50 1   
    53   26   52 1   
@<TRIPOS>SUBSTRUCTURE
     1 55V         1 TEMP              0 ****  ****    0 ROOT
