@<TRIPOS>MOLECULE
55V
   50    51     1     0     0
SMALL
bcc


@<TRIPOS>ATOM
      1 C1P        -0.9860   -3.0310   -0.8510 c3        1 55V      0.112200
      2 O1O        -2.2900   -2.5490   -0.5410 os        1 55V     -0.313400
      3 C1N        -2.4030   -1.1890   -0.3300 ca        1 55V      0.136100
      4 C1M        -1.3090   -0.3250   -0.1970 ca        1 55V     -0.220500
      5 C1Q        -3.7220   -0.7020   -0.2240 ca        1 55V      0.041100
      6 O1V        -4.8180   -1.5010   -0.4890 os        1 55V     -0.310900
      7 C1W        -5.1060   -2.4430    0.5460 c3        1 55V      0.115700
      8 C1R        -3.9140    0.6680    0.0530 ca        1 55V      0.136100
      9 O1T        -5.2290    1.0600    0.1950 os        1 55V     -0.313400
     10 C1U        -5.4620    2.4620    0.2740 c3        1 55V      0.112200
     11 C1S        -2.8180    1.5300    0.1770 ca        1 55V     -0.220500
     12 C1L        -1.5160    1.0340    0.0500 ca        1 55V     -0.012300
     13 C1J        -0.3500    1.9880    0.1920 c3        1 55V      0.085400
     14 C1K        -0.4560    3.0780   -0.8810 c3        1 55V     -0.083100
     15 C1X        -0.3970    2.6450    1.5770 c3        1 55V     -0.083100
     16 C1I         0.9220    1.3140    0.0420 c1        1 55V     -0.144100
     17 C1H         1.9870    0.7730   -0.0710 cg        1 55V     -0.090000
     18 C5          3.2240    0.1410   -0.2100 ca        1 55V     -0.344600
     19 C4          3.5410   -1.0440    0.5020 ca        1 55V      0.536600
     20 C1Y         2.5190   -1.6010    1.4440 c3        1 55V     -0.157400
     21 N3          4.7200   -1.6800    0.3730 nb        1 55V     -0.790000
     22 C2          5.6330   -1.1250   -0.5210 ca        1 55V      0.917900
     23 N1Z         6.8140   -1.8330   -0.7480 nh        1 55V     -0.932500
     24 N1          5.4460    0.0360   -1.2450 nb        1 55V     -0.831000
     25 C6          4.2420    0.6710   -1.0830 ca        1 55V      0.746200
     26 N1G         4.0340    1.8680   -1.7380 nh        1 55V     -0.953500
     27 H1P        -0.5680   -2.5060   -1.7440 h1        1 55V      0.045367
     28 H1PA       -0.3050   -2.9110    0.0280 h1        1 55V      0.045367
     29 H1PB       -1.1570   -4.1150   -1.0710 h1        1 55V      0.045367
     30 H1M        -0.2850   -0.7160   -0.2900 ha        1 55V      0.145500
     31 H1W        -5.9930   -2.9990    0.1540 h1        1 55V      0.041033
     32 H1WA       -4.2380   -3.1300    0.6980 h1        1 55V      0.041033
     33 H1WB       -5.3580   -1.9110    1.4950 h1        1 55V      0.041033
     34 H1U        -6.5790    2.5370    0.2840 h1        1 55V      0.045367
     35 H1UA       -5.0310    2.8780    1.2170 h1        1 55V      0.045367
     36 H1UB       -5.0390    2.9890   -0.6160 h1        1 55V      0.045367
     37 H1S        -2.9780    2.5990    0.3790 ha        1 55V      0.145500
     38 H1K        -1.4020    3.6550   -0.7480 hc        1 55V      0.043033
     39 H1KA        0.4070    3.7810   -0.7950 hc        1 55V      0.043033
     40 H1KB       -0.4530    2.6220   -1.8990 hc        1 55V      0.043033
     41 H1X        -0.3520    1.8670    2.3750 hc        1 55V      0.043033
     42 H1XA        0.4710    3.3360    1.6980 hc        1 55V      0.043033
     43 H1XB       -1.3410    3.2280    1.6930 hc        1 55V      0.043033
     44 H1Y         1.5370   -1.6820    0.9150 hc        1 55V      0.060367
     45 H1YA        2.8040   -2.6070    1.8360 hc        1 55V      0.060367
     46 H1YB        2.4030   -0.8990    2.3070 hc        1 55V      0.060367
     47 HN1Z        7.0610   -2.5270   -0.0830 hn        1 55V      0.431800
     48 HN1A        7.5580   -1.3480   -1.1920 hn        1 55V      0.431800
     49 HN1G        3.1050    2.2120   -1.7700 hn        1 55V      0.436300
     50 HN1B        4.6640    2.1530   -2.4490 hn        1 55V      0.436300
@<TRIPOS>BOND
     1    1    2 1   
     2    1   27 1   
     3    1   28 1   
     4    1   29 1   
     5    2    3 1   
     6    3    4 ar  
     7    3    5 ar  
     8    4   12 ar  
     9    4   30 1   
    10    5    6 1   
    11    5    8 ar  
    12    6    7 1   
    13    7   31 1   
    14    7   32 1   
    15    7   33 1   
    16    8    9 1   
    17    8   11 ar  
    18    9   10 1   
    19   10   34 1   
    20   10   35 1   
    21   10   36 1   
    22   11   12 ar  
    23   11   37 1   
    24   12   13 1   
    25   13   14 1   
    26   13   15 1   
    27   13   16 1   
    28   14   38 1   
    29   14   39 1   
    30   14   40 1   
    31   15   41 1   
    32   15   42 1   
    33   15   43 1   
    34   16   17 3   
    35   17   18 1   
    36   18   19 ar  
    37   18   25 ar  
    38   19   20 1   
    39   19   21 ar  
    40   20   44 1   
    41   20   45 1   
    42   20   46 1   
    43   21   22 ar  
    44   22   23 1   
    45   22   24 ar  
    46   23   47 1   
    47   23   48 1   
    48   24   25 ar  
    49   25   26 1   
    50   26   49 1   
    51   26   50 1   
@<TRIPOS>SUBSTRUCTURE
     1 55V         1 TEMP              0 ****  ****    0 ROOT
