@<TRIPOS>MOLECULE
55Y
   40    43     1     0     0
SMALL
bcc


@<TRIPOS>ATOM
      1 N1         -0.0800   -0.1240   -0.0730 na        1 55Y      0.088400
      2 N3          6.4470   -1.9100    7.5280 n         1 55Y     -0.523900
      3 C4          3.1060    0.0810    1.7150 ca        1 55Y      0.065000
      4 C5          4.1560    0.2580    0.8450 ca        1 55Y     -0.138000
      5 C6          5.4960    0.3010    1.3460 ca        1 55Y      0.004000
      6 C7          7.0890    0.2430    3.0640 cc        1 55Y     -0.197400
      7 C8          5.7280    0.1540    2.7860 ca        1 55Y     -0.137000
      8 C10         1.3170   -0.1600   -0.0980 cc        1 55Y     -0.121300
      9 C13         4.4760   -0.5870    7.2620 c3        1 55Y      0.121100
     10 C15         6.7440   -0.5450    7.7300 c         1 55Y      0.799600
     11 O1          7.7980    0.0260    8.0030 o         1 55Y     -0.583500
     12 C14         5.0460   -2.0300    7.1600 c3        1 55Y      0.033000
     13 O2          5.5920    0.2370    7.6680 os        1 55Y     -0.393900
     14 C1          3.8930   -0.0760    5.9400 c3        1 55Y      0.133100
     15 C           3.4720    1.3740    6.0520 c3        1 55Y     -0.127100
     16 O           4.9360   -0.2450    4.9660 os        1 55Y     -0.335900
     17 C2          4.5990   -0.0410    3.6420 ca        1 55Y      0.181100
     18 S           7.9020    0.4770    1.6440 ss        1 55Y      0.385900
     19 N           6.6250    0.4780    0.6400 nc        1 55Y     -0.319500
     20 C3          3.3300   -0.0690    3.1250 ca        1 55Y     -0.223000
     21 C9          1.7530    0.0350    1.2280 cd        1 55Y     -0.220300
     22 C12         0.5250    0.1850    1.9870 cd        1 55Y      0.313200
     23 N2         -0.5510    0.0850    1.1700 nc        1 55Y     -0.508800
     24 C11        -0.9230   -0.2780   -1.2330 c3        1 55Y      0.039600
     25 H1          3.9940    0.3780   -0.2350 ha        1 55Y      0.148000
     26 H2          7.5210    0.1780    4.0620 h4        1 55Y      0.194000
     27 H3          1.8820   -0.3220   -1.0160 h4        1 55Y      0.181000
     28 H4          3.7030   -0.4920    8.0680 h1        1 55Y      0.089700
     29 H6          3.0200   -0.7350    5.6700 h1        1 55Y      0.053700
     30 H7          3.1280    1.7520    5.0590 hc        1 55Y      0.060033
     31 H8          4.3360    1.9960    6.3940 hc        1 55Y      0.060033
     32 H9          2.6410    1.4710    6.7900 hc        1 55Y      0.060033
     33 H10         2.4510   -0.2070    3.7690 ha        1 55Y      0.140000
     34 H11         0.4180    0.3650    3.0570 h4        1 55Y      0.042100
     35 H12        -1.6310   -1.1370   -1.0840 h1        1 55Y      0.059700
     36 H13        -1.5180    0.6590   -1.4030 h1        1 55Y      0.059700
     37 H14        -0.2740   -0.4760   -2.1250 h1        1 55Y      0.059700
     38 H15         4.9100   -2.4430    6.1250 h1        1 55Y      0.070200
     39 H16         4.5380   -2.7070    7.8970 h1        1 55Y      0.070200
     40 H5          7.1090   -2.4400    7.0080 hn        1 55Y      0.319500
@<TRIPOS>BOND
     1    1    8 1   
     2    1   23 1   
     3    1   24 1   
     4    2   10 1   
     5    2   12 1   
     6    2   40 1   
     7    3    4 ar  
     8    3   20 ar  
     9    3   21 1   
    10    4    5 ar  
    11    4   25 1   
    12    5    7 ar  
    13    5   19 2   
    14    6    7 2   
    15    6   18 1   
    16    6   26 1   
    17    7   17 ar  
    18    8   21 2   
    19    8   27 1   
    20    9   12 1   
    21    9   13 1   
    22    9   14 1   
    23    9   28 1   
    24   10   11 2   
    25   10   13 1   
    26   12   38 1   
    27   12   39 1   
    28   14   15 1   
    29   14   16 1   
    30   14   29 1   
    31   15   30 1   
    32   15   31 1   
    33   15   32 1   
    34   16   17 1   
    35   17   20 ar  
    36   18   19 1   
    37   20   33 1   
    38   21   22 1   
    39   22   23 2   
    40   22   34 1   
    41   24   35 1   
    42   24   36 1   
    43   24   37 1   
@<TRIPOS>SUBSTRUCTURE
     1 55Y         1 TEMP              0 ****  ****    0 ROOT
