@<TRIPOS>MOLECULE
55Y
   40    43     1     0     0
SMALL
bcc


@<TRIPOS>ATOM
      1 N1         -0.0280   -0.0940   -0.1250 na        1 55Y      0.088400
      2 N3          6.3800   -1.9340    7.5650 ns        1 55Y     -0.523900
      3 C4          3.1340    0.0870    1.7080 ca        1 55Y      0.065000
      4 C5          4.1970    0.2590    0.8540 ca        1 55Y     -0.138000
      5 C6          5.5300    0.2930    1.3730 ca        1 55Y      0.004000
      6 C7          7.0980    0.2210    3.1140 cc        1 55Y     -0.197400
      7 C8          5.7400    0.1420    2.8170 ca        1 55Y     -0.137000
      8 C10         1.3690   -0.1390   -0.1310 cc        1 55Y     -0.121300
      9 C13         4.4210   -0.5980    7.2730 c3        1 55Y      0.121100
     10 C15         6.6820   -0.5710    7.7730 c         1 55Y      0.799600
     11 O1          7.7350   -0.0070    8.0620 o         1 55Y     -0.583500
     12 C14         4.9830   -2.0440    7.1760 c3        1 55Y      0.033000
     13 O2          5.5360    0.2180    7.6970 os        1 55Y     -0.393900
     14 C1          3.8590   -0.0820    5.9440 c3        1 55Y      0.133100
     15 C           3.4460    1.3710    6.0520 c3        1 55Y     -0.127100
     16 O           4.9150   -0.2560    4.9840 os        1 55Y     -0.335900
     17 C2          4.5980   -0.0480    3.6560 ca        1 55Y      0.181100
     18 S           7.9320    0.4520    1.7060 ss        1 55Y      0.385900
     19 N           6.6700    0.4630    0.6840 nc        1 55Y     -0.319500
     20 C3          3.3360   -0.0670    3.1210 ca        1 55Y     -0.223000
     21 C9          1.7880    0.0510    1.2020 cd        1 55Y     -0.220300
     22 C12         0.5490    0.2060    1.9440 cd        1 55Y      0.313200
     23 N2         -0.5150    0.1150    1.1120 nc        1 55Y     -0.508800
     24 C11        -0.8550   -0.2410   -1.2970 c3        1 55Y      0.039600
     25 H1          4.0510    0.3820   -0.2290 ha        1 55Y      0.148000
     26 H2          7.5150    0.1520    4.1180 h4        1 55Y      0.194000
     27 H3          1.9460   -0.3030   -1.0400 h4        1 55Y      0.181000
     28 H4          3.6370   -0.4990    8.0690 h1        1 55Y      0.089700
     29 H6          2.9860   -0.7340    5.6610 h1        1 55Y      0.053700
     30 H7          2.6060    1.4720    6.7790 hc        1 55Y      0.060033
     31 H8          3.1190    1.7520    5.0550 hc        1 55Y      0.060033
     32 H9          4.3090    1.9870    6.4070 hc        1 55Y      0.060033
     33 H10         2.4470   -0.2000    3.7530 ha        1 55Y      0.140000
     34 H11         0.4290    0.3850    3.0130 h4        1 55Y      0.042100
     35 H12        -1.5660   -1.1000   -1.1620 h1        1 55Y      0.060033
     36 H13        -0.1940   -0.4360   -2.1810 h1        1 55Y      0.060033
     37 H14        -1.4480    0.6970   -1.4700 h1        1 55Y      0.060033
     38 H15         4.4610   -2.7190    7.9060 h1        1 55Y      0.070200
     39 H16         4.8600   -2.4550    6.1390 h1        1 55Y      0.070200
     40 H5          7.0450   -2.4670    7.0540 hn        1 55Y      0.319500
@<TRIPOS>BOND
     1    1    8 1   
     2    1   23 1   
     3    1   24 1   
     4    2   10 1   
     5    2   12 1   
     6    2   40 1   
     7    3    4 ar  
     8    3   20 ar  
     9    3   21 1   
    10    4    5 ar  
    11    4   25 1   
    12    5    7 ar  
    13    5   19 2   
    14    6    7 2   
    15    6   18 1   
    16    6   26 1   
    17    7   17 ar  
    18    8   21 2   
    19    8   27 1   
    20    9   12 1   
    21    9   13 1   
    22    9   14 1   
    23    9   28 1   
    24   10   11 2   
    25   10   13 1   
    26   12   38 1   
    27   12   39 1   
    28   14   15 1   
    29   14   16 1   
    30   14   29 1   
    31   15   30 1   
    32   15   31 1   
    33   15   32 1   
    34   16   17 1   
    35   17   20 ar  
    36   18   19 1   
    37   20   33 1   
    38   21   22 1   
    39   22   23 2   
    40   22   34 1   
    41   24   35 1   
    42   24   36 1   
    43   24   37 1   
@<TRIPOS>SUBSTRUCTURE
     1 55Y         1 TEMP              0 ****  ****    0 ROOT
