@<TRIPOS>MOLECULE
561
   58    62     1     0     0
SMALL
bcc


@<TRIPOS>ATOM
      1 C1         -0.6350   -1.0460   -2.3790 ca        1 561     -0.138800
      2 C2          0.7600   -1.3690   -2.3700 ca        1 561      0.103100
      3 C3         -1.5290   -2.0120   -2.8170 ca        1 561     -0.022000
      4 C4         -1.0470   -3.2300   -3.3010 ca        1 561     -0.229600
      5 C5          1.2780   -2.5700   -2.8270 ca        1 561     -0.180000
      6 C6         -0.7250    0.3270   -1.9040 cc        1 561     -0.102400
      7 C7          0.3410   -3.4980   -3.3260 ca        1 561      0.202100
      8 C8          0.5630    0.7250   -1.6190 cd        1 561     -0.018900
      9 O1          0.8640   -4.6620   -3.8180 oh        1 561     -0.510100
     10 O2          1.4990   -0.2890   -1.8790 os        1 561     -0.201200
     11 C21        -2.0520   -4.1770   -3.8540 c         1 561      0.914200
     12 O4         -1.8000   -4.8680   -4.8960 o         1 561     -0.865800
     13 O5         -3.2230   -4.2340   -3.3480 o         1 561     -0.865800
     14 C9         -1.9130    1.2030   -1.8040 c3        1 561      0.191700
     15 N3         -2.2720    1.8170   -3.1280 n3        1 561     -0.558000
     16 N1         -3.6530    1.6970   -3.3340 n3        1 561     -0.312800
     17 N2         -4.2570    0.8480   -2.3660 n3        1 561     -0.526400
     18 C10        -3.2240    0.4830   -1.3610 c3        1 561      0.121800
     19 C31        -4.5500   -0.8130   -4.3190 c3        1 561     -0.094400
     20 C32        -5.1390   -2.1960   -4.5360 c3        1 561     -0.168400
     21 C33        -4.9680   -0.3010   -2.9400 c3        1 561      0.176800
     22 C34        -4.6770   -2.7720   -5.8480 c         1 561      0.571100
     23 O11        -4.5390   -2.1620   -6.9030 o         1 561     -0.462100
     24 N11        -4.3240   -4.2310   -5.8420 n4        1 561     -0.582200
     25 C41        -5.7970   -8.8070   -6.9400 ca        1 561     -0.121000
     26 C42        -5.2130   -5.1160   -6.5880 ca        1 561      0.002600
     27 C43        -7.0510   -5.5060   -8.1180 ca        1 561     -0.137000
     28 C44        -6.1890   -4.6210   -7.4340 ca        1 561     -0.098000
     29 C45        -5.0410   -6.5340   -6.4110 ca        1 561     -0.026000
     30 C46        -5.9280   -7.4010   -7.1030 ca        1 561     -0.036000
     31 C47        -6.9300   -6.8620   -7.9540 ca        1 561     -0.079000
     32 C48        -4.0290   -7.1010   -5.5860 ca        1 561     -0.138000
     33 C49        -3.9270   -8.4660   -5.4510 ca        1 561     -0.101000
     34 C50        -4.8190   -9.3290   -6.1290 ca        1 561     -0.113000
     35 H3         -2.6180   -1.8470   -2.7980 ha        1 561      0.144000
     36 H5          2.3510   -2.7950   -2.8230 ha        1 561      0.165000
     37 H8          1.0120    1.6390   -1.2410 h4        1 561      0.185000
     38 HO1         0.1560   -5.1530   -4.2770 ho        1 561      0.464000
     39 H9         -1.6760    2.0090   -1.0460 h1        1 561      0.041700
     40 HN3        -2.0000    2.7920   -3.1180 hn        1 561      0.346800
     41 HN1        -4.1110    2.6020   -3.1740 hn        1 561      0.331800
     42 H101       -3.0650   -0.6200   -1.2540 h1        1 561      0.071700
     43 H102       -3.5750    0.8910   -0.3770 h1        1 561      0.071700
     44 H311       -3.4320   -0.8570   -4.4070 hc        1 561      0.079700
     45 H312       -4.9110   -0.1120   -5.1160 hc        1 561      0.079700
     46 H321       -4.8440   -2.8600   -3.6700 hc        1 561      0.110200
     47 H322       -6.2610   -2.1450   -4.5740 hc        1 561      0.110200
     48 H331       -6.0440    0.0330   -3.0060 h1        1 561      0.051700
     49 H332       -4.9200   -1.1490   -2.1990 h1        1 561      0.051700
     50 HN11       -4.2770   -4.5660   -4.8330 hn        1 561      0.510800
     51 H43        -7.8190   -5.0820   -8.7840 ha        1 561      0.149000
     52 H44        -6.3180   -3.5390   -7.6060 ha        1 561      0.154000
     53 H47        -7.6040   -7.5560   -8.4810 ha        1 561      0.146000
     54 H48        -3.2960   -6.4600   -5.0530 ha        1 561      0.196000
     55 H49        -3.1420   -8.8990   -4.8120 ha        1 561      0.150000
     56 H50        -4.7170  -10.4170   -6.0010 ha        1 561      0.142000
     57 H112       -3.3470   -4.3510   -6.1940 hn        1 561      0.510800
     58 H41        -6.4950   -9.4660   -7.4800 ha        1 561      0.139000
@<TRIPOS>BOND
     1    1    2 ar  
     2    1    3 ar  
     3    1    6 1   
     4    2    5 ar  
     5    2   10 1   
     6    3    4 ar  
     7    3   35 1   
     8    4    7 ar  
     9    4   11 1   
    10    5    7 ar  
    11    5   36 1   
    12    6    8 2   
    13    6   14 1   
    14    7    9 1   
    15    8   10 1   
    16    8   37 1   
    17    9   38 1   
    18   11   12 1   
    19   11   13 1   
    20   14   15 1   
    21   14   18 1   
    22   14   39 1   
    23   15   16 1   
    24   15   40 1   
    25   16   17 1   
    26   16   41 1   
    27   17   18 1   
    28   17   21 1   
    29   18   42 1   
    30   18   43 1   
    31   19   20 1   
    32   19   21 1   
    33   19   44 1   
    34   19   45 1   
    35   20   22 1   
    36   20   46 1   
    37   20   47 1   
    38   21   48 1   
    39   21   49 1   
    40   22   23 2   
    41   22   24 1   
    42   24   26 1   
    43   24   50 1   
    44   24   57 1   
    45   25   30 ar  
    46   25   34 ar  
    47   25   58 1   
    48   26   28 ar  
    49   26   29 ar  
    50   27   28 ar  
    51   27   31 ar  
    52   27   51 1   
    53   28   52 1   
    54   29   30 ar  
    55   29   32 ar  
    56   30   31 ar  
    57   31   53 1   
    58   32   33 ar  
    59   32   54 1   
    60   33   34 ar  
    61   33   55 1   
    62   34   56 1   
@<TRIPOS>SUBSTRUCTURE
     1 561         1 TEMP              0 ****  ****    0 ROOT
