@<TRIPOS>MOLECULE
561
   57    61     1     0     0
SMALL
bcc


@<TRIPOS>ATOM
      1 C1         -0.6200   -0.0940   -0.4800 ca        1 561     -0.180800
      2 C2          0.7320    0.3560   -0.5640 ca        1 561      0.090100
      3 C3         -0.9700   -0.9770    0.5400 ca        1 561     -0.031000
      4 C4         -0.0030   -1.4080    1.4450 ca        1 561     -0.230600
      5 C5          1.7230   -0.0390    0.3180 ca        1 561     -0.217000
      6 C6         -1.3140    0.5480   -1.5880 cc        1 561     -0.122400
      7 C7          1.3310   -0.9370    1.3350 ca        1 561      0.210100
      8 C8         -0.3850    1.3170   -2.2470 cd        1 561     -0.025900
      9 O1          2.3350   -1.3020    2.1820 oh        1 561     -0.545100
     10 O2          0.8850    1.2280   -1.6510 os        1 561     -0.222200
     11 C21        -0.4380   -2.3890    2.5200 c         1 561      0.919200
     12 O4          0.4130   -2.7550    3.3890 o         1 561     -0.828800
     13 O5         -1.6290   -2.8020    2.5000 o         1 561     -0.828800
     14 C9         -2.7560    0.3950   -1.8740 c3        1 561      0.196700
     15 N3         -3.1520    0.9520   -3.2060 n7        1 561     -0.595000
     16 N1         -3.5630   -0.1090   -4.0370 n7        1 561     -0.329800
     17 N2         -3.6300   -1.3410   -3.3420 n3        1 561     -0.489400
     18 C10        -3.1740   -1.1110   -1.9430 c3        1 561      0.102800
     19 C31        -3.4340   -2.8580   -5.3210 c3        1 561     -0.078400
     20 C32        -2.7730   -4.1430   -5.7710 c3        1 561     -0.159400
     21 C33        -2.8910   -2.4630   -3.9490 c3        1 561      0.127800
     22 C34        -3.2510   -4.5790   -7.1470 c         1 561      0.668100
     23 O11        -2.4660   -4.6240   -8.1120 o         1 561     -0.592100
     24 N11        -4.5900   -4.9390   -7.2450 ns        1 561     -0.476100
     25 C41        -8.4380   -7.2320   -9.2680 ca        1 561     -0.123000
     26 C42        -5.2610   -5.3980   -8.3890 ca        1 561      0.082600
     27 C43        -5.4810   -5.5950  -10.8090 ca        1 561     -0.098000
     28 C44        -4.7750   -5.1560   -9.6710 ca        1 561     -0.164000
     29 C45        -6.5050   -6.1240   -8.2320 ca        1 561     -0.059000
     30 C46        -7.2040   -6.5350   -9.3970 ca        1 561     -0.017000
     31 C47        -6.6720   -6.2610  -10.6850 ca        1 561     -0.155000
     32 C48        -7.0630   -6.4550   -6.9650 ca        1 561     -0.117000
     33 C49        -8.2540   -7.1320   -6.8670 ca        1 561     -0.133000
     34 C50        -8.9560   -7.5220   -8.0310 ca        1 561     -0.127000
     35 H3         -2.0010   -1.3520    0.6520 ha        1 561      0.158000
     36 H5          2.7560    0.3150    0.2440 ha        1 561      0.146000
     37 H8         -0.4160    1.9690   -3.1140 h4        1 561      0.181000
     38 HO1         1.9800   -1.9170    2.8630 ho        1 561      0.488000
     39 H9         -3.3310    0.9060   -1.0490 h1        1 561      0.071700
     40 HN3        -3.9770    1.5240   -3.0680 hn        1 561      0.364800
     41 HN1        -2.8390   -0.1660   -4.7630 hn        1 561      0.335800
     42 H101       -2.3270   -1.7770   -1.6290 h1        1 561      0.080200
     43 H102       -4.0530   -1.3050   -1.2760 h1        1 561      0.080200
     44 H311       -4.5470   -2.9850   -5.2630 hc        1 561      0.056700
     45 H312       -3.2290   -2.0490   -6.0710 hc        1 561      0.056700
     46 H321       -1.6610   -4.0000   -5.8350 hc        1 561      0.077700
     47 H322       -2.9670   -4.9640   -5.0310 hc        1 561      0.077700
     48 H331       -1.7840   -2.2600   -4.0410 h1        1 561      0.051200
     49 H332       -3.0210   -3.3330   -3.2450 h1        1 561      0.051200
     50 HN11       -5.1340   -4.8600   -6.4150 hn        1 561      0.321500
     51 H43        -5.0560   -5.3830  -11.8020 ha        1 561      0.132000
     52 H44        -3.8230   -4.6200   -9.8230 ha        1 561      0.171000
     53 H47        -7.2310   -6.5960  -11.5710 ha        1 561      0.129000
     54 H48        -6.5430   -6.1870   -6.0330 ha        1 561      0.126000
     55 H49        -8.6730   -7.3820   -5.8810 ha        1 561      0.133000
     56 H50        -9.9100   -8.0590   -7.9300 ha        1 561      0.130000
     57 H41        -8.9660   -7.5330  -10.1850 ha        1 561      0.130000
@<TRIPOS>BOND
     1    1    2 ar  
     2    1    3 ar  
     3    1    6 1   
     4    2    5 ar  
     5    2   10 1   
     6    3    4 ar  
     7    3   35 1   
     8    4    7 ar  
     9    4   11 1   
    10    5    7 ar  
    11    5   36 1   
    12    6    8 2   
    13    6   14 1   
    14    7    9 1   
    15    8   10 1   
    16    8   37 1   
    17    9   38 1   
    18   11   12 1   
    19   11   13 1   
    20   14   15 1   
    21   14   18 1   
    22   14   39 1   
    23   15   16 1   
    24   15   40 1   
    25   16   17 1   
    26   16   41 1   
    27   17   18 1   
    28   17   21 1   
    29   18   42 1   
    30   18   43 1   
    31   19   20 1   
    32   19   21 1   
    33   19   44 1   
    34   19   45 1   
    35   20   22 1   
    36   20   46 1   
    37   20   47 1   
    38   21   48 1   
    39   21   49 1   
    40   22   23 2   
    41   22   24 1   
    42   24   26 1   
    43   24   50 1   
    44   25   30 ar  
    45   25   34 ar  
    46   25   57 1   
    47   26   28 ar  
    48   26   29 ar  
    49   27   28 ar  
    50   27   31 ar  
    51   27   51 1   
    52   28   52 1   
    53   29   30 ar  
    54   29   32 ar  
    55   30   31 ar  
    56   31   53 1   
    57   32   33 ar  
    58   32   54 1   
    59   33   34 ar  
    60   33   55 1   
    61   34   56 1   
@<TRIPOS>SUBSTRUCTURE
     1 561         1 TEMP              0 ****  ****    0 ROOT
