@<TRIPOS>MOLECULE
561
   57    61     1     0     0
SMALL
bcc


@<TRIPOS>ATOM
      1 C1          4.6410   -0.3330   -0.2990 ca        1 561     -0.178800
      2 C2          5.5690   -1.3670    0.0310 ca        1 561      0.092100
      3 C3          4.7780    0.9080    0.3190 ca        1 561     -0.028000
      4 C4          5.7950    1.1120    1.2480 ca        1 561     -0.231600
      5 C5          6.5990   -1.2080    0.9420 ca        1 561     -0.218000
      6 C6          3.7350   -0.9200   -1.2750 cc        1 561     -0.126400
      7 C7          6.6990    0.0610    1.5530 ca        1 561      0.213100
      8 C8          4.1540   -2.2150   -1.4780 cd        1 561     -0.051900
      9 O1          7.7240    0.1790    2.4440 oh        1 561     -0.544100
     10 O2          5.2740   -2.5310   -0.6910 os        1 561     -0.216200
     11 C21         5.8800    2.4790    1.9060 c         1 561      0.919200
     12 O4          6.8280    2.7030    2.7210 o         1 561     -0.828300
     13 O5          4.9990    3.3320    1.6170 o         1 561     -0.828300
     14 C9          2.6200   -0.2110   -1.9350 c3        1 561      0.187700
     15 N3          1.6040   -1.0790   -2.6090 n3        1 561     -0.590000
     16 N1          0.3240   -0.6830   -2.1840 n3        1 561     -0.362800
     17 N2          0.3700    0.2460   -1.1080 n3        1 561     -0.517400
     18 C10         1.7890    0.6590   -0.9310 c3        1 561      0.106800
     19 C31        -1.6620   -0.6420    0.0540 c3        1 561     -0.075400
     20 C32        -2.1860   -0.9840    1.4320 c3        1 561     -0.159400
     21 C33        -0.1780   -0.2910    0.1490 c3        1 561      0.160800
     22 C34        -3.6580   -1.3590    1.4080 c         1 561      0.667100
     23 O11        -4.0360   -2.5000    1.7280 o         1 561     -0.592100
     24 N11        -4.5420   -0.3490    1.0400 n         1 561     -0.476100
     25 C41        -8.7660    1.3160   -0.8420 ca        1 561     -0.123000
     26 C42        -5.9330   -0.4600    0.9020 ca        1 561      0.082600
     27 C43        -8.0640   -1.4860    1.4940 ca        1 561     -0.099000
     28 C44        -6.6600   -1.4220    1.5990 ca        1 561     -0.163000
     29 C45        -6.6360    0.4700    0.0430 ca        1 561     -0.060000
     30 C46        -8.0520    0.3970   -0.0240 ca        1 561     -0.017000
     31 C47        -8.7530   -0.5950    0.7130 ca        1 561     -0.155000
     32 C48        -5.9790    1.4530   -0.7480 ca        1 561     -0.117000
     33 C49        -6.6910    2.3260   -1.5350 ca        1 561     -0.133000
     34 C50        -8.1020    2.2640   -1.5790 ca        1 561     -0.127000
     35 H3          4.0970    1.7470    0.0940 ha        1 561      0.160000
     36 H5          7.3040   -2.0100    1.1850 ha        1 561      0.147000
     37 H8          3.8250   -3.0360   -2.1070 h4        1 561      0.175000
     38 HO1         7.7310    1.0900    2.8150 ho        1 561      0.489000
     39 H9          3.0460    0.4550   -2.7410 h1        1 561      0.087700
     40 HN3         1.7270   -2.0350   -2.2950 hn        1 561      0.358800
     41 HN1        -0.0550   -0.1380   -2.9610 hn        1 561      0.372800
     42 H101        2.1600    0.5260    0.1190 h1        1 561      0.082700
     43 H102        1.8580    1.7440   -1.2040 h1        1 561      0.082700
     44 H311       -1.8090   -1.5160   -0.6330 hc        1 561      0.055700
     45 H312       -2.2260    0.2250   -0.3780 hc        1 561      0.055700
     46 H321       -1.6240   -1.8640    1.8460 hc        1 561      0.077200
     47 H322       -2.0330   -0.1220    2.1350 hc        1 561      0.077200
     48 H331        0.3830   -1.1970    0.5190 h1        1 561      0.045700
     49 H332       -0.0450    0.5300    0.9100 h1        1 561      0.045700
     50 HN11       -4.1360    0.5140    0.7540 hn        1 561      0.321500
     51 H43        -8.5960   -2.2650    2.0610 ha        1 561      0.131000
     52 H44        -6.1500   -2.1580    2.2420 ha        1 561      0.169000
     53 H47        -9.8500   -0.6340    0.6380 ha        1 561      0.129000
     54 H48        -4.8810    1.5230   -0.7620 ha        1 561      0.128000
     55 H49        -6.1690    3.0790   -2.1430 ha        1 561      0.133000
     56 H50        -8.6530    2.9760   -2.2110 ha        1 561      0.129000
     57 H41        -9.8640    1.2470   -0.8700 ha        1 561      0.129000
@<TRIPOS>BOND
     1    1    2 ar  
     2    1    3 ar  
     3    1    6 1   
     4    2    5 ar  
     5    2   10 1   
     6    3    4 ar  
     7    3   35 1   
     8    4    7 ar  
     9    4   11 1   
    10    5    7 ar  
    11    5   36 1   
    12    6    8 2   
    13    6   14 1   
    14    7    9 1   
    15    8   10 1   
    16    8   37 1   
    17    9   38 1   
    18   11   12 1   
    19   11   13 1   
    20   14   15 1   
    21   14   18 1   
    22   14   39 1   
    23   15   16 1   
    24   15   40 1   
    25   16   17 1   
    26   16   41 1   
    27   17   18 1   
    28   17   21 1   
    29   18   42 1   
    30   18   43 1   
    31   19   20 1   
    32   19   21 1   
    33   19   44 1   
    34   19   45 1   
    35   20   22 1   
    36   20   46 1   
    37   20   47 1   
    38   21   48 1   
    39   21   49 1   
    40   22   23 2   
    41   22   24 1   
    42   24   26 1   
    43   24   50 1   
    44   25   30 ar  
    45   25   34 ar  
    46   25   57 1   
    47   26   28 ar  
    48   26   29 ar  
    49   27   28 ar  
    50   27   31 ar  
    51   27   51 1   
    52   28   52 1   
    53   29   30 ar  
    54   29   32 ar  
    55   30   31 ar  
    56   31   53 1   
    57   32   33 ar  
    58   32   54 1   
    59   33   34 ar  
    60   33   55 1   
    61   34   56 1   
@<TRIPOS>SUBSTRUCTURE
     1 561         1 TEMP              0 ****  ****    0 ROOT
