@<TRIPOS>MOLECULE
561
   57    50     1     0     0
SMALL
bcc


@<TRIPOS>ATOM
      1 C1          4.0680   -1.7440   -3.8350 c1        1 561     -0.056000
      2 C2          5.3650   -2.2290   -3.8850 c1        1 561     -0.056000
      3 C3          3.1260   -2.1460   -4.8130 c1        1 561     -0.152000
      4 C4          3.5070   -3.0330   -5.8290 c1        1 561     -0.115000
      5 C5          5.7490   -3.1250   -4.9140 c1        1 561     -0.152000
      6 C6          3.9720   -0.9010   -2.7400 c1        1 561     -0.129000
      7 C7          4.8210   -3.5220   -5.8770 c1        1 561      0.124000
      8 C8          5.2160   -0.8670   -2.1140 c1        1 561     -0.062000
      9 O1          4.9960   -4.5040   -6.9090 oh        1 561     -0.213000
     10 O2          6.0700   -1.6820   -2.8170 o         1 561     -0.132000
     11 C21         2.2400   -3.3840   -6.6530 c2        1 561      0.373000
     12 O4          1.8390   -2.6000   -7.5590 o         1 561     -0.552500
     13 O5          1.5900   -4.4420   -6.3980 o         1 561     -0.552500
     14 C9          2.5730   -0.8810   -2.0400 c2        1 561     -0.007000
     15 N3          2.7030   -0.7780   -0.7940 n3        1 561     -0.228000
     16 N1          1.4720    0.0900   -0.2950 n3        1 561     -0.162000
     17 N2          1.2690    1.0010   -1.2130 n3        1 561     -0.197000
     18 C10         1.7740    0.3960   -2.4720 c3        1 561     -0.128000
     19 C31        -0.7370    1.9240   -0.0580 c3        1 561     -0.155000
     20 C32        -2.1470    1.4050    0.2400 c3        1 561     -0.188000
     21 C33        -0.2150    1.2680   -1.3450 c3        1 561     -0.075000
     22 C34        -2.4280    1.5140    1.7170 c2        1 561      0.301000
     23 O11        -1.9390    2.4150    2.3610 o         1 561     -0.343000
     24 N11        -3.3790    0.5870    2.3520 n         1 561     -0.334000
     25 C41        -4.5340    2.3860    6.9510 c1        1 561     -0.118750
     26 C42        -3.7270    0.7460    3.7290 c2        1 561      0.082000
     27 C43        -4.7260   -0.8850    5.2270 c1        1 561     -0.112000
     28 C44        -4.1640   -0.5600    3.9810 c2        1 561     -0.173000
     29 C45        -3.8500    1.7290    4.7210 c1        1 561     -0.026000
     30 C46        -4.4080    1.4030    5.9570 c1        1 561     -0.025000
     31 C47        -4.8480    0.0870    6.2090 c1        1 561     -0.133000
     32 C48        -3.4100    3.0540    4.4700 c1        1 561     -0.118750
     33 C49        -3.5360    4.0260    5.4560 c1        1 561     -0.118750
     34 C50        -4.0980    3.6980    6.7010 c1        1 561     -0.118750
     35 H3          2.3050   -1.6440   -4.8190 ha        1 561      0.137500
     36 H5          6.6020   -3.5730   -4.7360 ha        1 561      0.137500
     37 H8          5.7620   -0.3800   -1.4680 DU        1 561      0.180000
     38 HO1         5.7950   -4.3840   -7.3050 ho        1 561      0.192000
     39 H9          2.0710   -1.6870   -2.2600 h4        1 561      0.108000
     40 HN3         2.6640   -1.6140   -0.4120 hn        1 561      0.154000
     41 HN1         1.6850    0.4970    0.4980 hn        1 561      0.173000
     42 H101        1.0390    0.1500   -3.0400 h1        1 561      0.119000
     43 H102        2.3610    1.0190   -2.9300 h1        1 561      0.119000
     44 H311       -0.7650    2.9100   -0.1750 hc        1 561      0.096000
     45 H312       -0.1370    1.6990    0.6910 hc        1 561      0.096000
     46 H321       -2.2130    0.4850   -0.0310 hc        1 561      0.114500
     47 H322       -2.8180    1.9510   -0.2680 hc        1 561      0.114500
     48 H331       -0.3680    1.8570   -2.0900 h1        1 561      0.079000
     49 H332       -0.6960    0.4070   -1.4970 h1        1 561      0.079000
     50 HN11       -3.7800   -0.0450    1.8630 hn        1 561      0.227000
     51 H41        -4.8680    2.1490    7.8380 ha        1 561      0.133500
     52 H43        -5.0360   -1.8080    5.4020 ha        1 561      0.131000
     53 H44        -4.0810   -1.2410    3.2940 ha        1 561      0.135000
     54 H47        -5.1750   -0.1620    7.1220 ha        1 561      0.130000
     55 H48        -3.1640    3.7610    3.8360 ha        1 561      0.133500
     56 H49        -3.1450    4.9090    5.5190 ha        1 561      0.133500
     57 H50        -4.2430    4.3000    7.4560 ha        1 561      0.133500
@<TRIPOS>BOND
     1    1    3 1   
     2    2    5 1   
     3    3   35 1   
     4    4    7 1   
     5    4   11 1   
     6    5   36 1   
     7    6    8 1   
     8    7    9 1   
     9    8   10 1   
    10    9   38 1   
    11   11   12 1   
    12   11   13 1   
    13   14   15 1   
    14   14   18 1   
    15   14   39 1   
    16   15   16 1   
    17   15   40 1   
    18   16   17 1   
    19   16   41 1   
    20   17   18 1   
    21   17   21 1   
    22   18   42 1   
    23   18   43 1   
    24   19   20 1   
    25   19   21 1   
    26   19   44 1   
    27   19   45 1   
    28   20   22 1   
    29   20   46 1   
    30   20   47 1   
    31   21   48 1   
    32   21   49 1   
    33   22   23 1   
    34   22   24 1   
    35   24   26 1   
    36   24   50 1   
    37   25   34 1   
    38   25   51 1   
    39   26   28 1   
    40   26   29 1   
    41   27   28 1   
    42   27   52 1   
    43   28   53 1   
    44   29   30 1   
    45   30   31 1   
    46   31   54 1   
    47   32   33 1   
    48   32   55 1   
    49   33   56 1   
    50   34   57 1   
@<TRIPOS>SUBSTRUCTURE
     1 561         1 TEMP              0 ****  ****    0 ROOT
