@<TRIPOS>MOLECULE
563
   58    61     1     0     0
SMALL
bcc


@<TRIPOS>ATOM
      1 C4         -0.0200    0.4620   -0.0600 ca        1 563      0.689200
      2 C5          1.3910    0.5430   -0.2590 ca        1 563     -0.417600
      3 C6          2.2310    0.5190    0.8810 ca        1 563      0.691200
      4 N1          1.7180    0.4110    2.1520 nb        1 563     -0.805000
      5 N3         -0.5550    0.3770    1.2030 nb        1 563     -0.762000
      6 CAN        -2.2910    0.1530   -0.9370 c3        1 563      0.156300
      7 CAL        -3.0860   -0.0830   -2.2400 c3        1 563      0.157300
      8 NBE        -2.8750    0.9030   -3.2870 n3        1 563     -0.720600
      9 CAC        -3.6260    2.1250   -3.0960 c3        1 563      0.147100
     10 CAM        -1.4540    1.1190   -3.5040 c3        1 563      0.157300
     11 CAO        -0.6200    1.3780   -2.2290 c3        1 563      0.156300
     12 NBF        -0.8760    0.3930   -1.1880 nh        1 563     -0.732300
     13 NAT         3.6290    0.7170    0.7500 nu        1 563     -0.782600
     14 CBA         4.3640   -0.0600   -0.1620 cc        1 563      0.502200
     15 CAJ         5.7900    0.1420   -0.3990 cc        1 563     -0.305300
     16 CAX         6.1230   -0.7890   -1.3930 cd        1 563     -0.083600
     17 CAB         7.4220   -1.0460   -2.0340 c3        1 563     -0.037800
     18 NAU         4.9410   -1.4770   -1.6980 na        1 563     -0.017600
     19 NAP         3.8980   -1.0710   -0.9780 nd        1 563     -0.535800
     20 C2          0.3570    0.3480    2.2220 ca        1 563      0.888300
     21 OAV        -0.2750    0.2330    3.4600 os        1 563     -0.340400
     22 CAZ         0.5420    0.2440    4.5950 ca        1 563      0.073100
     23 CAI         1.1820    1.4120    5.0180 ca        1 563     -0.094500
     24 CAG         1.8620    1.4260    6.2320 ca        1 563     -0.166000
     25 CAH         0.5850   -0.9220    5.3670 ca        1 563     -0.094500
     26 CAF         1.2580   -0.9080    6.5820 ca        1 563     -0.166000
     27 CAY         1.9100    0.2670    7.0360 ca        1 563      0.071600
     28 NAS         2.5720    0.2140    8.2730 ns        1 563     -0.467100
     29 CAW         3.3080    1.2200    8.8890 c         1 563      0.666300
     30 OAD         3.4660    2.3480    8.3830 o         1 563     -0.593100
     31 CAE         3.9050    0.8720   10.2100 ce        1 563     -0.245200
     32 CAA         4.6290    1.7650   10.8860 c2        1 563     -0.125000
     33 H1          1.8230    0.5980   -1.2650 ha        1 563      0.170000
     34 H2         -2.3880   -0.7710   -0.3020 h1        1 563      0.053200
     35 H3         -2.7560    1.0150   -0.3760 h1        1 563      0.053200
     36 H4         -2.7950   -1.0820   -2.6710 h1        1 563      0.061200
     37 H5         -4.1770   -0.1190   -1.9710 h1        1 563      0.061200
     38 H7         -3.4710    2.7880   -3.9870 h1        1 563      0.033700
     39 H8         -4.7160    1.8700   -3.0250 h1        1 563      0.033700
     40 H9         -3.3320    2.6930   -2.1710 h1        1 563      0.033700
     41 H10        -1.3050    1.9960   -4.1910 h1        1 563      0.061200
     42 H11        -1.0590    0.1970   -4.0160 h1        1 563      0.061200
     43 H12         0.4650    1.3360   -2.5210 h1        1 563      0.053200
     44 H13        -0.8410    2.4190   -1.8540 h1        1 563      0.053200
     45 H14         4.1180    0.8030    1.6250 hn        1 563      0.430800
     46 H15         6.4340    0.8630    0.0880 ha        1 563      0.171000
     47 H16         7.3650   -0.8700   -3.1380 hc        1 563      0.055700
     48 H17         7.7520   -2.1010   -1.8610 hc        1 563      0.055700
     49 H18         8.1900   -0.3570   -1.6040 hc        1 563      0.055700
     50 H19         4.8270   -2.2050   -2.3630 hn        1 563      0.322700
     51 H20         1.1530    2.3150    4.3900 ha        1 563      0.150500
     52 H21         2.3610    2.3560    6.5510 ha        1 563      0.154000
     53 H22         0.0800   -1.8340    5.0150 ha        1 563      0.150500
     54 H23         1.2780   -1.8290    7.1850 ha        1 563      0.154000
     55 H24         2.5110   -0.6580    8.7500 hn        1 563      0.315500
     56 H25         3.7270   -0.1410   10.6020 ha        1 563      0.131000
     57 H27         4.8120    2.7800   10.5020 ha        1 563      0.132000
     58 H28         5.0790    1.5320   11.8600 ha        1 563      0.132000
@<TRIPOS>BOND
     1    1    2 ar  
     2    1    5 ar  
     3    1   12 1   
     4    2    3 ar  
     5    2   33 1   
     6    3    4 ar  
     7    3   13 1   
     8    4   20 ar  
     9    5   20 ar  
    10    6    7 1   
    11    6   12 1   
    12    6   34 1   
    13    6   35 1   
    14    7    8 1   
    15    7   36 1   
    16    7   37 1   
    17    8    9 1   
    18    8   10 1   
    19    9   38 1   
    20    9   39 1   
    21    9   40 1   
    22   10   11 1   
    23   10   41 1   
    24   10   42 1   
    25   11   12 1   
    26   11   43 1   
    27   11   44 1   
    28   13   14 1   
    29   13   45 1   
    30   14   15 1   
    31   14   19 2   
    32   15   16 2   
    33   15   46 1   
    34   16   17 1   
    35   16   18 1   
    36   17   47 1   
    37   17   48 1   
    38   17   49 1   
    39   18   19 1   
    40   18   50 1   
    41   20   21 1   
    42   21   22 1   
    43   22   23 ar  
    44   22   25 ar  
    45   23   24 ar  
    46   23   51 1   
    47   24   27 ar  
    48   24   52 1   
    49   25   26 ar  
    50   25   53 1   
    51   26   27 ar  
    52   26   54 1   
    53   27   28 1   
    54   28   29 1   
    55   28   55 1   
    56   29   30 2   
    57   29   31 1   
    58   31   32 2   
    59   31   56 1   
    60   32   57 1   
    61   32   58 1   
@<TRIPOS>SUBSTRUCTURE
     1 563         1 TEMP              0 ****  ****    0 ROOT
