@<TRIPOS>MOLECULE
563
   58    61     1     0     0
SMALL
bcc


@<TRIPOS>ATOM
      1 C4         -0.0190    0.4630   -0.0610 ca        1 563      0.689200
      2 C5          1.3920    0.5450   -0.2590 ca        1 563     -0.417600
      3 C6          2.2310    0.5190    0.8830 ca        1 563      0.691200
      4 N1          1.7170    0.4090    2.1530 nb        1 563     -0.805000
      5 N3         -0.5550    0.3770    1.2020 nb        1 563     -0.762000
      6 CAN        -2.2890    0.1550   -0.9410 c3        1 563      0.156300
      7 CAL        -3.0820   -0.0790   -2.2450 c3        1 563      0.157300
      8 NBE        -2.8700    0.9090   -3.2910 n3        1 563     -0.720600
      9 CAC        -3.6220    2.1290   -3.0970 c3        1 563      0.147100
     10 CAM        -1.4500    1.1260   -3.5050 c3        1 563      0.157300
     11 CAO        -0.6170    1.3830   -2.2290 c3        1 563      0.156300
     12 NBF        -0.8740    0.3950   -1.1900 nh        1 563     -0.732300
     13 NAT         3.6300    0.7180    0.7530 nh        1 563     -0.782600
     14 CBA         4.3650   -0.0580   -0.1590 cc        1 563      0.502200
     15 CAJ         5.7920    0.1440   -0.3940 cc        1 563     -0.305300
     16 CAX         6.1260   -0.7860   -1.3900 cd        1 563     -0.083600
     17 CAB         7.4250   -1.0420   -2.0290 c3        1 563     -0.037800
     18 NAU         4.9440   -1.4720   -1.6970 na        1 563     -0.017600
     19 NAP         3.9000   -1.0670   -0.9780 nd        1 563     -0.535800
     20 C2          0.3560    0.3460    2.2210 ca        1 563      0.888300
     21 OAV        -0.2770    0.2290    3.4580 os        1 563     -0.340400
     22 CAZ         0.5380    0.2390    4.5950 ca        1 563      0.073100
     23 CAI         1.1780    1.4060    5.0190 ca        1 563     -0.095000
     24 CAG         1.8570    1.4190    6.2330 ca        1 563     -0.166000
     25 CAH         0.5810   -0.9280    5.3650 ca        1 563     -0.095000
     26 CAF         1.2520   -0.9150    6.5800 ca        1 563     -0.166000
     27 CAY         1.9040    0.2590    7.0370 ca        1 563      0.071600
     28 NAS         2.5650    0.2060    8.2740 n         1 563     -0.467100
     29 CAW         3.3030    1.2100    8.8900 c         1 563      0.666300
     30 OAD         3.4650    2.3370    8.3840 o         1 563     -0.593100
     31 CAE         3.8990    0.8610   10.2110 ce        1 563     -0.245200
     32 CAA         4.6260    1.7520   10.8860 c2        1 563     -0.125000
     33 H1          1.8250    0.6010   -1.2640 ha        1 563      0.170000
     34 H2         -2.3850   -0.7700   -0.3080 h1        1 563      0.053200
     35 H3         -2.7550    1.0150   -0.3790 h1        1 563      0.053200
     36 H4         -2.7900   -1.0780   -2.6780 h1        1 563      0.061200
     37 H5         -4.1730   -0.1170   -1.9780 h1        1 563      0.061200
     38 H7         -4.7120    1.8740   -3.0280 h1        1 563      0.033700
     39 H8         -3.3300    2.6970   -2.1720 h1        1 563      0.033700
     40 H9         -3.4670    2.7950   -3.9870 h1        1 563      0.033700
     41 H10        -1.0540    0.2050   -4.0190 h1        1 563      0.061200
     42 H11        -1.3010    2.0050   -4.1900 h1        1 563      0.061200
     43 H12        -0.8390    2.4240   -1.8520 h1        1 563      0.053200
     44 H13         0.4680    1.3430   -2.5190 h1        1 563      0.053200
     45 H14         4.1170    0.8020    1.6290 hn        1 563      0.430800
     46 H15         6.4360    0.8640    0.0950 ha        1 563      0.171000
     47 H16         7.7550   -2.0970   -1.8570 hc        1 563      0.055700
     48 H17         8.1940   -0.3540   -1.5970 hc        1 563      0.055700
     49 H18         7.3700   -0.8640   -3.1330 hc        1 563      0.055700
     50 H19         4.8310   -2.1990   -2.3640 hn        1 563      0.322700
     51 H20         1.1490    2.3100    4.3920 ha        1 563      0.150500
     52 H21         2.3550    2.3490    6.5540 ha        1 563      0.154000
     53 H22         0.0760   -1.8390    5.0120 ha        1 563      0.150500
     54 H23         1.2720   -1.8360    7.1830 ha        1 563      0.154000
     55 H24         2.5020   -0.6660    8.7510 hn        1 563      0.315500
     56 H25         3.7170   -0.1510   10.6040 ha        1 563      0.131000
     57 H27         4.8130    2.7660   10.5010 ha        1 563      0.132000
     58 H28         5.0750    1.5190   11.8610 ha        1 563      0.132000
@<TRIPOS>BOND
     1    1    2 ar  
     2    1    5 ar  
     3    1   12 1   
     4    2    3 ar  
     5    2   33 1   
     6    3    4 ar  
     7    3   13 1   
     8    4   20 ar  
     9    5   20 ar  
    10    6    7 1   
    11    6   12 1   
    12    6   34 1   
    13    6   35 1   
    14    7    8 1   
    15    7   36 1   
    16    7   37 1   
    17    8    9 1   
    18    8   10 1   
    19    9   38 1   
    20    9   39 1   
    21    9   40 1   
    22   10   11 1   
    23   10   41 1   
    24   10   42 1   
    25   11   12 1   
    26   11   43 1   
    27   11   44 1   
    28   13   14 1   
    29   13   45 1   
    30   14   15 1   
    31   14   19 2   
    32   15   16 2   
    33   15   46 1   
    34   16   17 1   
    35   16   18 1   
    36   17   47 1   
    37   17   48 1   
    38   17   49 1   
    39   18   19 1   
    40   18   50 1   
    41   20   21 1   
    42   21   22 1   
    43   22   23 ar  
    44   22   25 ar  
    45   23   24 ar  
    46   23   51 1   
    47   24   27 ar  
    48   24   52 1   
    49   25   26 ar  
    50   25   53 1   
    51   26   27 ar  
    52   26   54 1   
    53   27   28 1   
    54   28   29 1   
    55   28   55 1   
    56   29   30 2   
    57   29   31 1   
    58   31   32 2   
    59   31   56 1   
    60   32   57 1   
    61   32   58 1   
@<TRIPOS>SUBSTRUCTURE
     1 563         1 TEMP              0 ****  ****    0 ROOT
