@<TRIPOS>MOLECULE
564
   54    50     1     0     0
SMALL
bcc


@<TRIPOS>ATOM
      1 C1         -7.8570    0.1320   -4.5200 c1        1 564      0.356000
      2 C2         -6.4170   -0.0420   -3.9780 c1        1 564     -0.085000
      3 C3         -6.3190   -1.1530   -3.1430 c2        1 564     -0.086000
      4 C4         -5.1250   -1.4150   -2.4640 c1        1 564     -0.159000
      5 C5         -4.0310   -0.5630   -2.6200 c1        1 564     -0.045500
      6 C10        -4.1270    0.5410   -3.4490 c1        1 564     -0.045500
      7 C11        -5.3310    0.8050   -4.1340 c1        1 564     -0.123000
      8 C15         2.3210   -0.3810    0.9760 c1        1 564     -0.071000
      9 C16         3.6860   -1.0400    1.4080 c2        1 564     -0.010000
     10 C17         4.3950   -0.4060    2.4870 c3        1 564     -0.148000
     11 C18         3.5980    0.1440    3.5640 c3        1 564     -0.147000
     12 C19         2.5590    1.0390    3.1960 c3        1 564     -0.014000
     13 C20         1.7890    0.7140    1.8220 c2        1 564     -0.039000
     14 C23         4.5910   -1.0660    0.2150 c3        1 564     -0.203500
     15 C24         3.4050   -2.4770    1.8190 c3        1 564     -0.203500
     16 C25         1.5150    1.0230    4.3240 c3        1 564     -0.202000
     17 C26         3.1630    2.3950    3.0540 c3        1 564     -0.202000
     18 O1         -8.6920    0.8410   -3.8820 o         1 564     -0.557500
     19 O2         -8.1820   -0.3860   -5.6090 o         1 564     -0.557500
     20 C6         -2.8130   -0.8300   -1.9280 c1        1 564     -0.083000
     21 C7         -1.7220    0.0200   -2.0850 c1        1 564     -0.181000
     22 C8         -1.8190    1.1380   -2.9220 c1        1 564     -0.129000
     23 C9         -3.0210    1.4020   -3.6070 c1        1 564     -0.083000
     24 C13         0.3520   -0.1870   -0.4580 c1        1 564     -0.136000
     25 C14         1.6060   -0.8060   -0.1320 c2        1 564     -0.085000
     26 C21         0.5710    1.3110    1.5010 c2        1 564     -0.146000
     27 C22        -0.1610    0.8720    0.3620 c1        1 564     -0.090000
     28 C12        -0.4100   -0.6030   -1.7580 c2        1 564      0.315000
     29 O3          0.0530   -1.4390   -2.4830 o         1 564     -0.319000
     30 H3         -7.0100   -1.7870   -3.0960 ha        1 564      0.160000
     31 H4         -5.1070   -2.2870   -2.0260 ha        1 564      0.115000
     32 H11        -5.2460    1.5040   -4.8160 ha        1 564      0.157000
     33 H171        4.9860   -1.0390    2.8580 hc        1 564      0.080000
     34 H172        4.9530    0.3540    2.0910 hc        1 564      0.080000
     35 H181        3.1780   -0.6140    4.0390 hc        1 564      0.080000
     36 H182        4.2070    0.6290    4.1580 hc        1 564      0.080000
     37 H231        5.4760   -1.2670    0.4970 hc        1 564      0.076000
     38 H232        4.5800   -0.2020   -0.2190 hc        1 564      0.076000
     39 H233        4.2700   -1.7820   -0.4410 hc        1 564      0.076000
     40 H241        4.1320   -2.8030    2.3710 hc        1 564      0.076000
     41 H242        2.5960   -2.5130    2.3090 hc        1 564      0.076000
     42 H243        3.3280   -3.0250    1.0350 hc        1 564      0.076000
     43 H251        0.8880    1.7870    4.2060 hc        1 564      0.075167
     44 H252        1.0100    0.1760    4.2940 hc        1 564      0.075167
     45 H253        1.9620    1.1020    5.1810 hc        1 564      0.075167
     46 H261        3.5820    2.4820    2.1340 hc        1 564      0.075167
     47 H262        3.8730    2.5230    3.7600 hc        1 564      0.075167
     48 H263        2.4710    3.0720    3.1620 hc        1 564      0.075167
     49 H6         -2.7420   -1.6390   -1.3180 ha        1 564      0.133000
     50 H8         -1.0350    1.7590   -3.0250 ha        1 564      0.124000
     51 H9         -3.0900    2.1930   -4.2020 ha        1 564      0.133000
     52 H14         1.9640   -1.5410   -0.7040 ha        1 564      0.147000
     53 H21         0.2190    2.0350    2.0600 ha        1 564      0.131000
     54 H22        -1.0280    1.3000    0.1340 ha        1 564      0.153000
@<TRIPOS>BOND
     1    1   18 1   
     2    1   19 1   
     3    2    3 1   
     4    2    7 1   
     5    3    4 1   
     6    3   30 1   
     7    4   31 1   
     8    5    6 1   
     9    5   20 1   
    10    6   23 1   
    11    7   32 1   
    12    8   13 1   
    13    8   25 1   
    14    9   10 1   
    15    9   14 1   
    16    9   15 1   
    17   10   11 1   
    18   10   33 1   
    19   10   34 1   
    20   11   12 1   
    21   11   35 1   
    22   11   36 1   
    23   12   13 1   
    24   12   16 1   
    25   12   17 1   
    26   13   26 1   
    27   14   37 1   
    28   14   38 1   
    29   14   39 1   
    30   15   40 1   
    31   15   41 1   
    32   15   42 1   
    33   16   43 1   
    34   16   44 1   
    35   16   45 1   
    36   17   46 1   
    37   17   47 1   
    38   17   48 1   
    39   20   49 1   
    40   21   22 1   
    41   21   28 1   
    42   22   50 1   
    43   23   51 1   
    44   24   25 1   
    45   24   28 1   
    46   25   52 1   
    47   26   27 1   
    48   26   53 1   
    49   27   54 1   
    50   28   29 1   
@<TRIPOS>SUBSTRUCTURE
     1 564         1 TEMP              0 ****  ****    0 ROOT
