@<TRIPOS>MOLECULE
564
   54    57     1     0     0
SMALL
bcc


@<TRIPOS>ATOM
      1 C1         -0.1190    0.0500   -0.0380 c         1 564      0.907200
      2 C2          1.4020   -0.0570   -0.0170 ca        1 564     -0.106600
      3 C3          2.0540   -0.4340    1.1870 ca        1 564     -0.085000
      4 C4          3.4220   -0.5340    1.2440 ca        1 564     -0.163000
      5 C5          4.2130   -0.2600    0.0960 ca        1 564     -0.066000
      6 C10         3.5660    0.1110   -1.1150 ca        1 564     -0.022000
      7 C11         2.1500    0.2070   -1.1430 ca        1 564     -0.122000
      8 C15        10.4310   -0.4020    1.7740 ca        1 564     -0.077300
      9 C16        11.6900   -1.1970    1.9980 c3        1 564     -0.002700
     10 C17        12.5020   -0.6350    3.1650 c3        1 564     -0.069400
     11 C18        11.6390   -0.2960    4.3540 c3        1 564     -0.069400
     12 C19        10.6050    0.7840    4.0320 c3        1 564     -0.006700
     13 C20         9.9390    0.5260    2.7070 ca        1 564     -0.045300
     14 C23        12.5780   -1.1460    0.7550 c3        1 564     -0.085600
     15 C24        11.3220   -2.6520    2.2750 c3        1 564     -0.085600
     16 C25         9.5700    0.7760    5.1570 c3        1 564     -0.084600
     17 C26        11.2790    2.1530    3.9980 c3        1 564     -0.084600
     18 O1         -0.6700    0.3880   -1.1230 o         1 564     -0.822800
     19 O2         -0.7380   -0.2060    1.0320 o         1 564     -0.822800
     20 C6          5.6280   -0.3420    0.1280 ca        1 564     -0.065000
     21 C7          6.3810   -0.0680   -0.9970 ca        1 564     -0.196600
     22 C8          5.7290    0.2820   -2.2110 ca        1 564     -0.114000
     23 C9          4.3620    0.3740   -2.2640 ca        1 564     -0.123000
     24 C13         8.5540    0.0960    0.2940 ca        1 564     -0.159600
     25 C14         9.7240   -0.6100    0.5810 ca        1 564     -0.085000
     26 C21         8.7810    1.2560    2.3950 ca        1 564     -0.145000
     27 C22         8.0900    1.0480    1.2080 ca        1 564     -0.091000
     28 C12         7.8510   -0.1520   -0.9910 c         1 564      0.596300
     29 O3          8.5020   -0.4150   -2.0150 o         1 564     -0.557100
     30 H3          1.4150   -0.6390    2.0620 ha        1 564      0.160000
     31 H4          3.9300   -0.8270    2.1750 ha        1 564      0.112000
     32 H11         1.6350    0.4960   -2.0730 ha        1 564      0.157000
     33 H171       13.2760   -1.3890    3.4670 hc        1 564      0.040200
     34 H172       13.0470    0.2840    2.8230 hc        1 564      0.040200
     35 H181       11.1060   -1.2200    4.7060 hc        1 564      0.041200
     36 H182       12.2870    0.0590    5.1980 hc        1 564      0.041200
     37 H231       12.7010   -0.0930    0.4090 hc        1 564      0.036533
     38 H232       12.1370   -1.7460   -0.0760 hc        1 564      0.036533
     39 H233       13.5850   -1.5670    0.9930 hc        1 564      0.036533
     40 H241       10.7170   -2.7340    3.2080 hc        1 564      0.036533
     41 H242       10.7240   -3.0650    1.4270 hc        1 564      0.036533
     42 H243       12.2480   -3.2650    2.3920 hc        1 564      0.036533
     43 H251       10.0880    0.7720    6.1460 hc        1 564      0.036200
     44 H252        8.9200    1.6820    5.1070 hc        1 564      0.036200
     45 H253        8.9240   -0.1310    5.0840 hc        1 564      0.036200
     46 H261       10.5280    2.9440    3.7590 hc        1 564      0.036200
     47 H262       11.7350    2.3790    4.9910 hc        1 564      0.036200
     48 H263       12.0790    2.1780    3.2200 hc        1 564      0.036200
     49 H6          6.1160   -0.6370    1.0710 ha        1 564      0.127000
     50 H8          6.3500    0.4700   -3.1000 ha        1 564      0.134000
     51 H9          3.8520    0.6510   -3.1990 ha        1 564      0.131000
     52 H14        10.0900   -1.3410   -0.1590 ha        1 564      0.147000
     53 H21         8.4060    2.0090    3.1050 ha        1 564      0.133000
     54 H22         7.1790    1.6260    0.9850 ha        1 564      0.152000
@<TRIPOS>BOND
     1    1    2 1   
     2    1   18 1   
     3    1   19 1   
     4    2    3 ar  
     5    2    7 ar  
     6    3    4 ar  
     7    3   30 1   
     8    4    5 ar  
     9    4   31 1   
    10    5    6 ar  
    11    5   20 ar  
    12    6    7 ar  
    13    6   23 ar  
    14    7   32 1   
    15    8    9 1   
    16    8   13 ar  
    17    8   25 ar  
    18    9   10 1   
    19    9   14 1   
    20    9   15 1   
    21   10   11 1   
    22   10   33 1   
    23   10   34 1   
    24   11   12 1   
    25   11   35 1   
    26   11   36 1   
    27   12   13 1   
    28   12   16 1   
    29   12   17 1   
    30   13   26 ar  
    31   14   37 1   
    32   14   38 1   
    33   14   39 1   
    34   15   40 1   
    35   15   41 1   
    36   15   42 1   
    37   16   43 1   
    38   16   44 1   
    39   16   45 1   
    40   17   46 1   
    41   17   47 1   
    42   17   48 1   
    43   20   21 ar  
    44   20   49 1   
    45   21   22 ar  
    46   21   28 1   
    47   22   23 ar  
    48   22   50 1   
    49   23   51 1   
    50   24   25 ar  
    51   24   27 ar  
    52   24   28 1   
    53   25   52 1   
    54   26   27 ar  
    55   26   53 1   
    56   27   54 1   
    57   28   29 2   
@<TRIPOS>SUBSTRUCTURE
     1 564         1 TEMP              0 ****  ****    0 ROOT
