@<TRIPOS>MOLECULE
564
   54    57     1     0     0
SMALL
bcc


@<TRIPOS>ATOM
      1 C1          1.1420   -0.2900    7.0050 c         1 564      0.907200
      2 C2          0.6990   -0.2800    5.5460 ca        1 564     -0.106600
      3 C3          1.5680   -0.8050    4.5530 ca        1 564     -0.085000
      4 C4          1.2040   -0.8070    3.2290 ca        1 564     -0.163000
      5 C5         -0.0530   -0.2780    2.8270 ca        1 564     -0.066000
      6 C10        -0.9300    0.2430    3.8170 ca        1 564     -0.022000
      7 C11        -0.5260    0.2310    5.1770 ca        1 564     -0.122000
      8 C15        -0.3180   -0.2200   -3.6100 ca        1 564     -0.077300
      9 C16        -0.6240   -0.9420   -4.8950 c3        1 564     -0.002700
     10 C17         0.3400   -0.5260   -6.0080 c3        1 564     -0.069400
     11 C18         1.7700   -0.4640   -5.5350 c3        1 564     -0.069400
     12 C19         1.9710    0.5710   -4.4270 c3        1 564     -0.006700
     13 C20         0.8740    0.4930   -3.4000 ca        1 564     -0.045300
     14 C23        -2.0390   -0.6090   -5.3670 c3        1 564     -0.085600
     15 C24        -0.5290   -2.4470   -4.6620 c3        1 564     -0.085600
     16 C25         3.3260    0.2910   -3.7790 c3        1 564     -0.084600
     17 C26         1.9980    1.9740   -5.0270 c3        1 564     -0.084600
     18 O1          0.3490    0.1850    7.8640 o         1 564     -0.822800
     19 O2          2.2800   -0.7720    7.2670 o         1 564     -0.822800
     20 C6         -0.4500   -0.2540    1.4660 ca        1 564     -0.065000
     21 C7         -1.6740    0.2670    1.0930 ca        1 564     -0.196600
     22 C8         -2.5580    0.7680    2.0890 ca        1 564     -0.114000
     23 C9         -2.1910    0.7600    3.4100 ca        1 564     -0.123000
     24 C13        -1.0670    0.3760   -1.3630 ca        1 564     -0.159600
     25 C14        -1.2700   -0.2750   -2.5810 ca        1 564     -0.085000
     26 C21         1.0550    1.1730   -2.1850 ca        1 564     -0.145000
     27 C22         0.1040    1.1180   -1.1740 ca        1 564     -0.091000
     28 C12        -2.1130    0.2970   -0.3120 c         1 564      0.596300
     29 O3         -3.3130    0.2650   -0.6300 o         1 564     -0.557100
     30 H3          2.5370   -1.2060    4.8940 ha        1 564      0.160000
     31 H4          1.8740   -1.2130    2.4580 ha        1 564      0.112000
     32 H11        -1.1950    0.6340    5.9560 ha        1 564      0.157000
     33 H171        0.0310    0.4780   -6.4030 hc        1 564      0.040200
     34 H172        0.2570   -1.2580   -6.8540 hc        1 564      0.040200
     35 H181        2.4390   -0.2090   -6.3980 hc        1 564      0.041200
     36 H182        2.0830   -1.4730   -5.1540 hc        1 564      0.041200
     37 H231       -2.8020   -1.0900   -4.7100 hc        1 564      0.036533
     38 H232       -2.2030    0.4940   -5.3550 hc        1 564      0.036533
     39 H233       -2.1880   -0.9850   -6.4080 hc        1 564      0.036533
     40 H241       -1.2270   -2.7530   -3.8460 hc        1 564      0.036533
     41 H242       -0.8030   -2.9970   -5.5940 hc        1 564      0.036533
     42 H243        0.5080   -2.7340   -4.3670 hc        1 564      0.036533
     43 H251        3.6390    1.1380   -3.1230 hc        1 564      0.036200
     44 H252        3.2770   -0.6380   -3.1630 hc        1 564      0.036200
     45 H253        4.1030    0.1570   -4.5700 hc        1 564      0.036200
     46 H261        2.1410    2.7340   -4.2210 hc        1 564      0.036200
     47 H262        2.8390    2.0620   -5.7560 hc        1 564      0.036200
     48 H263        1.0400    2.1950   -5.5550 hc        1 564      0.036200
     49 H6          0.2370   -0.6670    0.7110 ha        1 564      0.127000
     50 H8         -3.5380    1.1530    1.7690 ha        1 564      0.134000
     51 H9         -2.8690    1.1530    4.1840 ha        1 564      0.131000
     52 H14        -2.2070   -0.8380   -2.7240 ha        1 564      0.147000
     53 H21         1.9720    1.7620   -2.0230 ha        1 564      0.133000
     54 H22         0.2690    1.6530   -0.2240 ha        1 564      0.152000
@<TRIPOS>BOND
     1    1    2 1   
     2    1   18 1   
     3    1   19 1   
     4    2    3 ar  
     5    2    7 ar  
     6    3    4 ar  
     7    3   30 1   
     8    4    5 ar  
     9    4   31 1   
    10    5    6 ar  
    11    5   20 ar  
    12    6    7 ar  
    13    6   23 ar  
    14    7   32 1   
    15    8    9 1   
    16    8   13 ar  
    17    8   25 ar  
    18    9   10 1   
    19    9   14 1   
    20    9   15 1   
    21   10   11 1   
    22   10   33 1   
    23   10   34 1   
    24   11   12 1   
    25   11   35 1   
    26   11   36 1   
    27   12   13 1   
    28   12   16 1   
    29   12   17 1   
    30   13   26 ar  
    31   14   37 1   
    32   14   38 1   
    33   14   39 1   
    34   15   40 1   
    35   15   41 1   
    36   15   42 1   
    37   16   43 1   
    38   16   44 1   
    39   16   45 1   
    40   17   46 1   
    41   17   47 1   
    42   17   48 1   
    43   20   21 ar  
    44   20   49 1   
    45   21   22 ar  
    46   21   28 1   
    47   22   23 ar  
    48   22   50 1   
    49   23   51 1   
    50   24   25 ar  
    51   24   27 ar  
    52   24   28 1   
    53   25   52 1   
    54   26   27 ar  
    55   26   53 1   
    56   27   54 1   
    57   28   29 2   
@<TRIPOS>SUBSTRUCTURE
     1 564         1 TEMP              0 ****  ****    0 ROOT
