@<TRIPOS>MOLECULE
564
   54    57     1     0     0
SMALL
bcc


@<TRIPOS>ATOM
      1 C1         -0.1200    0.0320   -0.0340 c         1 564      0.907200
      2 C2          1.4010   -0.0720   -0.0130 ca        1 564     -0.106600
      3 C3          2.0550   -0.4440    1.1910 ca        1 564     -0.085000
      4 C4          3.4230   -0.5420    1.2480 ca        1 564     -0.163000
      5 C5          4.2130   -0.2690    0.0980 ca        1 564     -0.066000
      6 C10         3.5640    0.0990   -1.1130 ca        1 564     -0.022000
      7 C11         2.1490    0.1910   -1.1400 ca        1 564     -0.122000
      8 C15        10.4320   -0.3970    1.7740 ca        1 564     -0.077300
      9 C16        11.6910   -1.1910    1.9980 c3        1 564     -0.002700
     10 C17        12.5030   -0.6250    3.1640 c3        1 564     -0.069400
     11 C18        11.6400   -0.2850    4.3530 c3        1 564     -0.069400
     12 C19        10.6050    0.7930    4.0290 c3        1 564     -0.006700
     13 C20         9.9390    0.5320    2.7050 ca        1 564     -0.045300
     14 C23        12.5790   -1.1410    0.7550 c3        1 564     -0.085600
     15 C24        11.3250   -2.6460    2.2780 c3        1 564     -0.085600
     16 C25         9.5700    0.7870    5.1540 c3        1 564     -0.084600
     17 C26        11.2770    2.1630    3.9920 c3        1 564     -0.084600
     18 O1         -0.6720    0.3660   -1.1190 o         1 564     -0.822800
     19 O2         -0.7380   -0.2220    1.0380 o         1 564     -0.822800
     20 C6          5.6280   -0.3470    0.1300 ca        1 564     -0.065000
     21 C7          6.3800   -0.0750   -0.9960 ca        1 564     -0.196600
     22 C8          5.7260    0.2710   -2.2110 ca        1 564     -0.114000
     23 C9          4.3590    0.3610   -2.2630 ca        1 564     -0.123000
     24 C13         8.5540    0.0960    0.2930 ca        1 564     -0.159600
     25 C14         9.7240   -0.6090    0.5810 ca        1 564     -0.085000
     26 C21         8.7800    1.2600    2.3920 ca        1 564     -0.145000
     27 C22         8.0890    1.0490    1.2050 ca        1 564     -0.091000
     28 C12         7.8510   -0.1560   -0.9910 c         1 564      0.596300
     29 O3          8.5010   -0.4190   -2.0150 o         1 564     -0.557100
     30 H3          1.4170   -0.6490    2.0670 ha        1 564      0.160000
     31 H4          3.9320   -0.8300    2.1790 ha        1 564      0.112000
     32 H11         1.6320    0.4770   -2.0710 ha        1 564      0.157000
     33 H171       13.0470    0.2940    2.8200 hc        1 564      0.040200
     34 H172       13.2780   -1.3780    3.4680 hc        1 564      0.040200
     35 H181       12.2870    0.0720    5.1960 hc        1 564      0.041200
     36 H182       11.1080   -1.2080    4.7070 hc        1 564      0.041200
     37 H231       13.5860   -1.5610    0.9940 hc        1 564      0.036533
     38 H232       12.1380   -1.7430   -0.0750 hc        1 564      0.036533
     39 H233       12.7010   -0.0890    0.4070 hc        1 564      0.036533
     40 H241       10.7200   -2.7270    3.2120 hc        1 564      0.036533
     41 H242       12.2520   -3.2570    2.3960 hc        1 564      0.036533
     42 H243       10.7270   -3.0610    1.4310 hc        1 564      0.036533
     43 H251       10.0880    0.7850    6.1430 hc        1 564      0.036200
     44 H252        8.9190    1.6920    5.1030 hc        1 564      0.036200
     45 H253        8.9250   -0.1210    5.0830 hc        1 564      0.036200
     46 H261       10.5250    2.9530    3.7520 hc        1 564      0.036200
     47 H262       11.7330    2.3920    4.9850 hc        1 564      0.036200
     48 H263       12.0770    2.1870    3.2140 hc        1 564      0.036200
     49 H6          6.1170   -0.6390    1.0730 ha        1 564      0.127000
     50 H8          6.3460    0.4580   -3.1010 ha        1 564      0.134000
     51 H9          3.8490    0.6340   -3.1990 ha        1 564      0.131000
     52 H14        10.0910   -1.3410   -0.1570 ha        1 564      0.147000
     53 H21         8.4040    2.0140    3.1000 ha        1 564      0.133000
     54 H22         7.1770    1.6250    0.9810 ha        1 564      0.152000
@<TRIPOS>BOND
     1    1    2 1   
     2    1   18 1   
     3    1   19 1   
     4    2    3 ar  
     5    2    7 ar  
     6    3    4 ar  
     7    3   30 1   
     8    4    5 ar  
     9    4   31 1   
    10    5    6 ar  
    11    5   20 ar  
    12    6    7 ar  
    13    6   23 ar  
    14    7   32 1   
    15    8    9 1   
    16    8   13 ar  
    17    8   25 ar  
    18    9   10 1   
    19    9   14 1   
    20    9   15 1   
    21   10   11 1   
    22   10   33 1   
    23   10   34 1   
    24   11   12 1   
    25   11   35 1   
    26   11   36 1   
    27   12   13 1   
    28   12   16 1   
    29   12   17 1   
    30   13   26 ar  
    31   14   37 1   
    32   14   38 1   
    33   14   39 1   
    34   15   40 1   
    35   15   41 1   
    36   15   42 1   
    37   16   43 1   
    38   16   44 1   
    39   16   45 1   
    40   17   46 1   
    41   17   47 1   
    42   17   48 1   
    43   20   21 ar  
    44   20   49 1   
    45   21   22 ar  
    46   21   28 1   
    47   22   23 ar  
    48   22   50 1   
    49   23   51 1   
    50   24   25 ar  
    51   24   27 ar  
    52   24   28 1   
    53   25   52 1   
    54   26   27 ar  
    55   26   53 1   
    56   27   54 1   
    57   28   29 2   
@<TRIPOS>SUBSTRUCTURE
     1 564         1 TEMP              0 ****  ****    0 ROOT
