@<TRIPOS>MOLECULE
565
   45    46     1     0     0
SMALL
bcc


@<TRIPOS>ATOM
      1 C1         -0.4050    1.1870    0.9800 ca        1 565     -0.165000
      2 C2          0.9740    1.1920    0.7110 ca        1 565      0.104900
      3 C3          1.8330    0.2180    1.2650 ca        1 565     -0.163300
      4 C4          1.2830   -0.7530    2.1080 ca        1 565     -0.120000
      5 C5         -0.0880   -0.7720    2.4000 ca        1 565      0.108900
      6 C6         -0.9460    0.2070    1.8220 ca        1 565      0.149900
      7 F9         -0.5940   -1.7150    3.2200 f         1 565     -0.094900
      8 F10         1.4710    2.1730   -0.0880 f         1 565     -0.145900
      9 C11         3.2720    0.0910    0.9090 c3        1 565     -0.060100
     10 C12         4.0590    1.3980    0.7850 c3        1 565      0.126500
     11 C15         5.5670    1.1160    0.7310 c3        1 565     -0.191400
     12 C16         5.9180    0.5540   -0.6520 c         1 565      0.664100
     13 N19         7.2190    0.1490   -0.8930 n         1 565     -0.433800
     14 N20         3.7270    2.3520    1.9020 n4        1 565     -0.840600
     15 O22         5.0290    0.5450   -1.5250 o         1 565     -0.583100
     16 C25         8.1900    0.0450    0.1760 c3        1 565      0.077000
     17 C26         8.2390   -1.3020    0.8930 c3        1 565     -0.128400
     18 C27         8.5780   -2.4520   -0.0570 c3        1 565      0.097000
     19 N28         7.5260   -2.8360   -0.9510 n         1 565     -0.578900
     20 C29         7.0970   -2.0720   -2.0210 c         1 565      0.661500
     21 C30         7.5490   -0.5950   -2.1070 c3        1 565      0.045700
     22 C37         7.0180    0.0120   -3.4020 c3        1 565     -0.097100
     23 O42         6.3470   -2.5760   -2.8720 o         1 565     -0.598500
     24 F44        -2.2660    0.1900    2.0860 f         1 565     -0.088900
     25 H1         -1.0620    1.9420    0.5170 ha        1 565      0.192000
     26 H4          1.9230   -1.5390    2.5430 ha        1 565      0.171000
     27 H111        3.3500   -0.4040   -0.1080 hc        1 565      0.110200
     28 H112        3.7840   -0.5860    1.6470 hc        1 565      0.110200
     29 H12         3.7510    1.9190   -0.1820 hx        1 565      0.158700
     30 H151        6.1570    2.0600    0.8830 hc        1 565      0.085200
     31 H152        5.8540    0.3780    1.5240 hc        1 565      0.085200
     32 H201        4.2830    3.2060    1.8120 hn        1 565      0.458800
     33 H202        2.7280    2.5890    1.8460 hn        1 565      0.458800
     34 H251        9.2070    0.2510   -0.2720 h1        1 565      0.060200
     35 H252        8.0020    0.8570    0.9340 h1        1 565      0.060200
     36 H261        7.2730   -1.5040    1.4220 hc        1 565      0.059700
     37 H262        9.0490   -1.2460    1.6690 hc        1 565      0.059700
     38 H271        8.8410   -3.3530    0.5710 h1        1 565      0.056700
     39 H272        9.5020   -2.1650   -0.6410 h1        1 565      0.056700
     40 HN28        7.2610   -3.7960   -0.9510 hn        1 565      0.328500
     41 H30         8.6820   -0.6030   -2.1810 h1        1 565      0.079700
     42 H371        7.5200   -0.5040   -4.2570 hc        1 565      0.068700
     43 H372        5.9150   -0.1460   -3.4990 hc        1 565      0.068700
     44 H373        7.2390    1.1040   -3.4470 hc        1 565      0.068700
     45 H203        3.9150    1.9180    2.8090 hn        1 565      0.458800
@<TRIPOS>BOND
     1    1    2 ar  
     2    1    6 ar  
     3    1   25 1   
     4    2    3 ar  
     5    2    8 1   
     6    3    4 ar  
     7    3    9 1   
     8    4    5 ar  
     9    4   26 1   
    10    5    6 ar  
    11    5    7 1   
    12    6   24 1   
    13    9   10 1   
    14    9   27 1   
    15    9   28 1   
    16   10   11 1   
    17   10   14 1   
    18   10   29 1   
    19   11   12 1   
    20   11   30 1   
    21   11   31 1   
    22   12   13 1   
    23   12   15 2   
    24   13   16 1   
    25   13   21 1   
    26   14   32 1   
    27   14   33 1   
    28   14   45 1   
    29   16   17 1   
    30   16   34 1   
    31   16   35 1   
    32   17   18 1   
    33   17   36 1   
    34   17   37 1   
    35   18   19 1   
    36   18   38 1   
    37   18   39 1   
    38   19   20 1   
    39   19   40 1   
    40   20   21 1   
    41   20   23 2   
    42   21   22 1   
    43   21   41 1   
    44   22   42 1   
    45   22   43 1   
    46   22   44 1   
@<TRIPOS>SUBSTRUCTURE
     1 565         1 TEMP              0 ****  ****    0 ROOT
