@<TRIPOS>MOLECULE
565
   45    46     1     0     0
SMALL
bcc


@<TRIPOS>ATOM
      1 C1         -0.6250    0.0030    1.2440 ca        1 565     -0.167000
      2 C2          0.7570   -0.1700    1.0690 ca        1 565      0.111900
      3 C3          1.6750    0.2010    2.0760 ca        1 565     -0.174300
      4 C4          1.1830    0.7570    3.2600 ca        1 565     -0.117000
      5 C5         -0.1930    0.9470    3.4560 ca        1 565      0.105900
      6 C6         -1.1100    0.5590    2.4360 ca        1 565      0.153900
      7 F9         -0.6470    1.4890    4.6030 f         1 565     -0.093900
      8 F10         1.2050   -0.6940   -0.1000 f         1 565     -0.138900
      9 C11         3.1330   -0.0760    1.9710 c3        1 565     -0.055100
     10 C12         3.7860    0.3360    0.6440 c3        1 565      0.134500
     11 C15         5.3090    0.3230    0.8130 c3        1 565     -0.188400
     12 C16         6.0320    0.5340   -0.5160 c         1 565      0.663100
     13 N19         7.3610    0.1960   -0.6320 n         1 565     -0.418800
     14 N20         3.2680    1.6550    0.1530 nz        1 565     -0.844600
     15 O22         5.3960    1.0820   -1.4500 o         1 565     -0.647100
     16 C25         8.0610   -0.4990    0.4310 c3        1 565      0.072000
     17 C26         8.0230   -2.0230    0.3490 c3        1 565     -0.128400
     18 C27         8.6450   -2.5510   -0.9450 c3        1 565      0.096000
     19 N28         7.8600   -2.3530   -2.1280 ns        1 565     -0.576900
     20 C29         7.6390   -1.1270   -2.7220 c         1 565      0.663500
     21 C30         8.0170    0.1540   -1.9390 c3        1 565      0.041700
     22 C37         7.7790    1.3700   -2.8260 c3        1 565     -0.095100
     23 O42         7.1280   -1.0690   -3.8520 o         1 565     -0.599500
     24 F44        -2.4330    0.7280    2.6180 f         1 565     -0.086900
     25 H1         -1.3280   -0.3080    0.4540 ha        1 565      0.194000
     26 H4          1.8730    1.0410    4.0730 ha        1 565      0.170000
     27 H111        3.6760    0.4220    2.8210 hc        1 565      0.093700
     28 H112        3.2940   -1.1870    2.0790 hc        1 565      0.093700
     29 H12         3.5080   -0.4140   -0.1640 hx        1 565      0.136700
     30 H151        5.5700   -0.6830    1.2440 hc        1 565      0.102200
     31 H152        5.6450    1.1100    1.5390 hc        1 565      0.102200
     32 H201        3.7130    1.8680   -0.7620 hn        1 565      0.468467
     33 H202        2.2520    1.5940    0.0360 hn        1 565      0.468467
     34 H251        9.1400   -0.1620    0.3970 h1        1 565      0.065200
     35 H252        7.6540   -0.1700    1.4280 h1        1 565      0.065200
     36 H261        6.9740   -2.3990    0.4610 hc        1 565      0.064200
     37 H262        8.6230   -2.4250    1.2080 hc        1 565      0.064200
     38 H271        8.8050   -3.6620   -0.8220 h1        1 565      0.058700
     39 H272        9.6610   -2.0730   -1.0690 h1        1 565      0.058700
     40 HN28        7.6450   -3.1610   -2.6710 hn        1 565      0.331500
     41 H30         9.1330    0.1010   -1.7360 h1        1 565      0.082700
     42 H371        8.5100    1.3300   -3.6710 hc        1 565      0.067367
     43 H372        6.7480    1.3580   -3.2590 hc        1 565      0.067367
     44 H373        7.9290    2.3150   -2.2530 hc        1 565      0.067367
     45 H203        3.4880    2.3980    0.8180 hn        1 565      0.468467
@<TRIPOS>BOND
     1    1    2 ar  
     2    1    6 ar  
     3    1   25 1   
     4    2    3 ar  
     5    2    8 1   
     6    3    4 ar  
     7    3    9 1   
     8    4    5 ar  
     9    4   26 1   
    10    5    6 ar  
    11    5    7 1   
    12    6   24 1   
    13    9   10 1   
    14    9   27 1   
    15    9   28 1   
    16   10   11 1   
    17   10   14 1   
    18   10   29 1   
    19   11   12 1   
    20   11   30 1   
    21   11   31 1   
    22   12   13 1   
    23   12   15 2   
    24   13   16 1   
    25   13   21 1   
    26   14   32 1   
    27   14   33 1   
    28   14   45 1   
    29   16   17 1   
    30   16   34 1   
    31   16   35 1   
    32   17   18 1   
    33   17   36 1   
    34   17   37 1   
    35   18   19 1   
    36   18   38 1   
    37   18   39 1   
    38   19   20 1   
    39   19   40 1   
    40   20   21 1   
    41   20   23 2   
    42   21   22 1   
    43   21   41 1   
    44   22   42 1   
    45   22   43 1   
    46   22   44 1   
@<TRIPOS>SUBSTRUCTURE
     1 565         1 TEMP              0 ****  ****    0 ROOT
