@<TRIPOS>MOLECULE
565
   44    42     1     0     0
SMALL
bcc


@<TRIPOS>ATOM
      1 C1         -2.0600   -1.3600   -5.5800 c1        1 565     -0.183000
      2 C2         -1.3380   -0.7000   -4.5740 c1        1 565      0.124000
      3 C3         -2.0000   -0.1980   -3.4530 c1        1 565     -0.074000
      4 C4         -3.3910   -0.3540   -3.3320 c2        1 565     -0.120000
      5 C5         -4.1130   -1.0140   -4.3380 c1        1 565      0.046000
      6 C6         -3.4460   -1.5160   -5.4610 c1        1 565      0.084000
      7 F9         -5.4580   -1.0860   -4.2650 f         1 565     -0.089000
      8 F10        -0.0080   -0.5790   -4.6750 f         1 565     -0.099000
      9 C11        -1.2230    0.6220   -2.4070 c2        1 565     -0.121000
     10 C12        -0.4570   -0.3090   -1.5130 c3        1 565     -0.005000
     11 C15        -0.2030    0.3720   -0.1660 c3        1 565     -0.226000
     12 C16         0.9650   -0.3080    0.5350 c2        1 565      0.306000
     13 N19         1.4800    0.2370    1.8070 n         1 565     -0.343000
     14 N20         0.8120   -0.6530   -2.1320 n3        1 565     -0.347000
     15 O22         1.5320   -1.2720    0.0010 o         1 565     -0.367000
     16 C25         2.7920   -0.3470    2.6110 c3        1 565     -0.031000
     17 C26         2.3050   -1.1870    4.1580 c3        1 565     -0.219000
     18 C27         1.1010   -0.4700    4.8250 c3        1 565     -0.069000
     19 N28         0.5220    0.0760    4.0730 n         1 565     -0.311000
     20 C29         1.0950    1.1450    3.7630 c2        1 565      0.265000
     21 C30         0.8860    1.3790    2.5350 c3        1 565     -0.025000
     22 C37         1.4760    2.8390    2.0440 c3        1 565     -0.224000
     23 O42         2.1360    1.4860    4.2940 o         1 565     -0.260000
     24 F44        -4.1310   -2.1600   -6.4160 f         1 565     -0.086000
     25 H1         -1.6060   -1.7030   -6.3480 ha        1 565      0.169000
     26 H4         -3.8460   -0.0100   -2.5610 ha        1 565      0.156000
     27 H111       -0.5940    1.2330   -2.8670 ha        1 565      0.095000
     28 H112       -1.8500    1.1430   -1.8730 ha        1 565      0.095000
     29 H12        -0.9770   -1.1210   -1.3710 h1        1 565      0.119000
     30 H151        0.0100    1.3170   -0.3130 hc        1 565      0.108500
     31 H152       -1.0100    0.3000    0.3960 hc        1 565      0.108500
     32 H201        1.4790   -0.1170   -1.7890 hn        1 565      0.162500
     33 H202        1.0100   -1.5400   -1.9560 hn        1 565      0.162500
     34 H251        3.3960    0.4000    2.8270 h1        1 565      0.106500
     35 H252        3.2650   -0.9840    2.0340 h1        1 565      0.106500
     36 H261        2.0560   -2.1120    3.9570 hc        1 565      0.103000
     37 H262        3.0560   -1.1850    4.7710 hc        1 565      0.103000
     38 H271        1.4290    0.1550    5.4940 h1        1 565      0.107500
     39 H272        0.5260   -1.1360    5.2570 h1        1 565      0.107500
     40 HN28       -0.3250   -0.1460    3.8150 hn        1 565      0.175000
     41 H30        -0.0680    1.4760    2.3420 h1        1 565      0.110000
     42 H371        2.1480    2.7010    1.3500 hc        1 565      0.093667
     43 H372        0.7430    3.3840    1.6870 hc        1 565      0.093667
     44 H373        1.8860    3.3020    2.8130 hc        1 565      0.093667
@<TRIPOS>BOND
     1    1    6 1   
     2    1   25 1   
     3    2    3 1   
     4    2    8 1   
     5    3    4 1   
     6    4    5 1   
     7    4   26 1   
     8    5    7 1   
     9    6   24 1   
    10    9   10 1   
    11    9   27 1   
    12    9   28 1   
    13   10   11 1   
    14   10   14 1   
    15   10   29 1   
    16   11   12 1   
    17   11   30 1   
    18   11   31 1   
    19   12   13 1   
    20   12   15 1   
    21   13   16 1   
    22   13   21 1   
    23   14   32 1   
    24   14   33 1   
    25   16   17 1   
    26   16   34 1   
    27   16   35 1   
    28   17   18 1   
    29   17   36 1   
    30   17   37 1   
    31   18   19 1   
    32   18   38 1   
    33   18   39 1   
    34   19   20 1   
    35   19   40 1   
    36   20   21 1   
    37   20   23 1   
    38   21   22 1   
    39   21   41 1   
    40   22   42 1   
    41   22   43 1   
    42   22   44 1   
@<TRIPOS>SUBSTRUCTURE
     1 565         1 TEMP              0 ****  ****    0 ROOT
