@<TRIPOS>MOLECULE
565
   44    45     1     0     0
SMALL
bcc


@<TRIPOS>ATOM
      1 C1          9.0330    1.1740   -0.7910 ca        1 565     -0.189000
      2 C2          7.6780    1.2050   -0.4180 ca        1 565      0.145900
      3 C3          6.6570    1.2230   -1.3960 ca        1 565     -0.087300
      4 C4          7.0150    1.2030   -2.7440 ca        1 565     -0.101000
      5 C5          8.3610    1.1720   -3.1360 ca        1 565      0.073900
      6 C6          9.3810    1.1580   -2.1470 ca        1 565      0.117900
      7 F9          8.6900    1.1540   -4.4480 f         1 565     -0.127900
      8 F10         7.3690    1.2120    0.8990 f         1 565     -0.120900
      9 C11         5.2220    1.2440   -1.0060 c3        1 565     -0.032100
     10 C12         4.6280    2.6660   -1.0090 c3        1 565      0.176500
     11 C15         3.1790    2.5840   -0.4790 c3        1 565     -0.195400
     12 C16         3.1360    2.4020    1.0280 c         1 565      0.660100
     13 N19         1.8900    2.2040    1.6380 n         1 565     -0.463800
     14 N20         4.7380    3.3010   -2.3050 n3        1 565     -0.906800
     15 O22         4.1730    2.4940    1.7080 o         1 565     -0.571100
     16 C25         0.7140    1.9350    0.8460 c3        1 565      0.085000
     17 C26         0.4630    0.4640    0.5180 c3        1 565     -0.132400
     18 C27         0.2300   -0.3680    1.7780 c3        1 565      0.106000
     19 N28         1.3870   -0.6240    2.5810 n         1 565     -0.583900
     20 C29         2.0940    0.3320    3.2850 c         1 565      0.667500
     21 C30         1.7900    1.8290    3.0400 c3        1 565      0.057700
     22 C37         2.6420    2.6610    3.9940 c3        1 565     -0.091100
     23 O42         2.9480   -0.0400    4.1090 o         1 565     -0.620500
     24 F44        10.6810    1.1290   -2.5150 f         1 565     -0.123900
     25 H1          9.8170    1.1630   -0.0200 ha        1 565      0.169000
     26 H4          6.2350    1.2270   -3.5210 ha        1 565      0.157000
     27 H111        5.1080    0.8430    0.0390 hc        1 565      0.063700
     28 H112        4.6370    0.5850   -1.7000 hc        1 565      0.063700
     29 H12         5.2310    3.2890   -0.2790 h1        1 565      0.098700
     30 H151        2.6310    3.5340   -0.7260 hc        1 565      0.062700
     31 H152        2.6500    1.7310   -0.9800 hc        1 565      0.062700
     32 H201        4.4380    4.2540   -2.2600 hn        1 565      0.349800
     33 H202        4.2030    2.8150   -2.9960 hn        1 565      0.349800
     34 H251        0.7680    2.5180   -0.1170 h1        1 565      0.053700
     35 H252       -0.1810    2.3300    1.4120 h1        1 565      0.053700
     36 H261        1.3120    0.0430   -0.0790 hc        1 565      0.058200
     37 H262       -0.4630    0.4030   -0.1130 hc        1 565      0.058200
     38 H271       -0.5550    0.1540    2.4030 h1        1 565      0.043700
     39 H272       -0.1950   -1.3650    1.4640 h1        1 565      0.043700
     40 HN28        1.6340   -1.5750    2.7360 hn        1 565      0.320500
     41 H30         0.7050    1.9820    3.3410 h1        1 565      0.061700
     42 H371        3.7200    2.3740    3.9210 hc        1 565      0.061700
     43 H372        2.5380    3.7480    3.7700 hc        1 565      0.061700
     44 H373        2.2940    2.4610    5.0370 hc        1 565      0.061700
@<TRIPOS>BOND
     1    1    2 ar  
     2    1    6 ar  
     3    1   25 1   
     4    2    3 ar  
     5    2    8 1   
     6    3    4 ar  
     7    3    9 1   
     8    4    5 ar  
     9    4   26 1   
    10    5    6 ar  
    11    5    7 1   
    12    6   24 1   
    13    9   10 1   
    14    9   27 1   
    15    9   28 1   
    16   10   11 1   
    17   10   14 1   
    18   10   29 1   
    19   11   12 1   
    20   11   30 1   
    21   11   31 1   
    22   12   13 1   
    23   12   15 2   
    24   13   16 1   
    25   13   21 1   
    26   14   32 1   
    27   14   33 1   
    28   16   17 1   
    29   16   34 1   
    30   16   35 1   
    31   17   18 1   
    32   17   36 1   
    33   17   37 1   
    34   18   19 1   
    35   18   38 1   
    36   18   39 1   
    37   19   20 1   
    38   19   40 1   
    39   20   21 1   
    40   20   23 2   
    41   21   22 1   
    42   21   41 1   
    43   22   42 1   
    44   22   43 1   
    45   22   44 1   
@<TRIPOS>SUBSTRUCTURE
     1 565         1 TEMP              0 ****  ****    0 ROOT
