@<TRIPOS>MOLECULE
566
   43    45     1     0     0
SMALL
bcc


@<TRIPOS>ATOM
      1 C1          0.0820    0.3490   -0.6380 c3        1 566     -0.073900
      2 C2          1.5650    0.1670   -0.3940 c3        1 566     -0.096900
      3 C3          1.8390   -0.0150    1.1090 c3        1 566      0.120700
      4 C4          1.0490   -1.2330    1.6210 c3        1 566     -0.096900
      5 C5         -0.4320   -1.0490    1.3670 c3        1 566     -0.073900
      6 C6         -0.7170   -0.8220   -0.1030 c3        1 566     -0.080400
      7 C15         4.1220   -1.0620    0.9190 c         1 566      0.695500
      8 C16         5.3930   -1.0970    1.7680 c3        1 566     -0.168400
      9 C17         5.1860   -0.0450    2.8600 c3        1 566     -0.157700
     10 C18         3.7420    0.4820    2.6550 c3        1 566      0.088000
     11 N19         3.2560   -0.0800    1.4060 n         1 566     -0.465800
     12 C24         8.4000   -2.3320    5.6760 ca        1 566     -0.168000
     13 C25         8.9180   -2.9080    6.8290 ca        1 566     -0.104000
     14 C26         8.1910   -2.8950    8.0180 ca        1 566     -0.154000
     15 C27         6.9340   -2.2960    8.0450 ca        1 566     -0.104000
     16 C28         6.3940   -1.7100    6.9020 ca        1 566     -0.168000
     17 C29         7.1220   -1.7190    5.6940 ca        1 566      0.065600
     18 C33         5.3940   -0.5970    4.2660 c         1 566      0.671100
     19 N35         6.6480   -1.1400    4.5040 ns        1 566     -0.470100
     20 O37         4.5040   -0.5280    5.1310 o         1 566     -0.584100
     21 O38         3.9260   -1.7810   -0.0710 o         1 566     -0.616500
     22 H11        -0.2680    1.2960   -0.1480 hc        1 566      0.040200
     23 H12        -0.0980    0.4540   -1.7400 hc        1 566      0.040200
     24 H21         1.9410   -0.7320   -0.9520 hc        1 566      0.056950
     25 H22         2.1190    1.0630   -0.7760 hc        1 566      0.056950
     26 H3          1.4470    0.9040    1.6450 h1        1 566      0.053700
     27 H41         1.2240   -1.3670    2.7200 hc        1 566      0.056950
     28 H42         1.4140   -2.1550    1.0980 hc        1 566      0.056950
     29 H51        -0.8100   -0.1750    1.9610 hc        1 566      0.040200
     30 H52        -0.9830   -1.9590    1.7200 hc        1 566      0.040200
     31 H61        -0.4560   -1.7470   -0.6810 hc        1 566      0.043200
     32 H62        -1.8110   -0.6290   -0.2490 hc        1 566      0.043200
     33 H161        5.5120   -2.1300    2.1770 hc        1 566      0.085200
     34 H162        6.2770   -0.8610    1.1270 hc        1 566      0.085200
     35 H17         5.9040    0.8080    2.7170 hc        1 566      0.084700
     36 H181        3.7490    1.6030    2.5730 h1        1 566      0.069200
     37 H182        3.0800    0.1920    3.5190 h1        1 566      0.069200
     38 H25         9.9120   -3.3800    6.7970 ha        1 566      0.134500
     39 H26         8.6070   -3.3540    8.9260 ha        1 566      0.134000
     40 H27         6.3520   -2.2800    8.9790 ha        1 566      0.134500
     41 H28         5.3960   -1.2440    6.9570 ha        1 566      0.150000
     42 HN35        7.2750   -1.1790    3.7310 hn        1 566      0.316500
     43 H24         8.9950   -2.3570    4.7500 ha        1 566      0.150000
@<TRIPOS>BOND
     1    1    2 1   
     2    1    6 1   
     3    1   22 1   
     4    1   23 1   
     5    2    3 1   
     6    2   24 1   
     7    2   25 1   
     8    3    4 1   
     9    3   11 1   
    10    3   26 1   
    11    4    5 1   
    12    4   27 1   
    13    4   28 1   
    14    5    6 1   
    15    5   29 1   
    16    5   30 1   
    17    6   31 1   
    18    6   32 1   
    19    7    8 1   
    20    7   11 1   
    21    7   21 2   
    22    8    9 1   
    23    8   33 1   
    24    8   34 1   
    25    9   10 1   
    26    9   18 1   
    27    9   35 1   
    28   10   11 1   
    29   10   36 1   
    30   10   37 1   
    31   12   13 ar  
    32   12   17 ar  
    33   12   43 1   
    34   13   14 ar  
    35   13   38 1   
    36   14   15 ar  
    37   14   39 1   
    38   15   16 ar  
    39   15   40 1   
    40   16   17 ar  
    41   16   41 1   
    42   17   19 1   
    43   18   19 1   
    44   18   20 2   
    45   19   42 1   
@<TRIPOS>SUBSTRUCTURE
     1 566         1 TEMP              0 ****  ****    0 ROOT
