@<TRIPOS>MOLECULE
566
   43    45     1     0     0
SMALL
bcc


@<TRIPOS>ATOM
      1 C1         -5.7690   -0.0420   -0.3740 c3        1 566     -0.073900
      2 C2         -4.5050   -0.8130   -0.0580 c3        1 566     -0.096900
      3 C3         -3.2680   -0.0050   -0.4860 c3        1 566      0.120700
      4 C4         -3.2750    1.3510    0.2430 c3        1 566     -0.096900
      5 C5         -4.5450    2.1130   -0.0700 c3        1 566     -0.073900
      6 C6         -5.7760    1.3140    0.3020 c3        1 566     -0.080400
      7 C15        -1.5640   -1.2140    0.9220 c         1 566      0.695500
      8 C16        -0.0740   -1.5360    0.8140 c3        1 566     -0.168400
      9 C17         0.3210   -1.1770   -0.6200 c3        1 566     -0.157700
     10 C18        -0.9500   -0.5520   -1.2520 c3        1 566      0.088000
     11 N19        -2.0370   -0.7500   -0.3070 n         1 566     -0.465800
     12 C24         4.9330   -0.6580    0.7770 ca        1 566     -0.168000
     13 C25         6.1830   -0.0620    0.8900 ca        1 566     -0.104000
     14 C26         6.4550    1.1450    0.2480 ca        1 566     -0.154000
     15 C27         5.4600    1.7530   -0.5140 ca        1 566     -0.104000
     16 C28         4.2000    1.1740   -0.6440 ca        1 566     -0.168000
     17 C29         3.9150   -0.0460    0.0030 ca        1 566      0.065600
     18 C33         1.5130   -0.2280   -0.6890 c         1 566      0.671100
     19 N35         2.6720   -0.6960   -0.0900 n         1 566     -0.470100
     20 O37         1.4410    0.8690   -1.2720 o         1 566     -0.584100
     21 O38        -2.2400   -1.3810    1.9470 o         1 566     -0.616500
     22 H11        -5.8620    0.0930   -1.4840 hc        1 566      0.040200
     23 H12        -6.6560   -0.6360   -0.0320 hc        1 566      0.040200
     24 H21        -4.5230   -1.7960   -0.5970 hc        1 566      0.056950
     25 H22        -4.4480   -1.0270    1.0420 hc        1 566      0.056950
     26 H3         -3.3540    0.1980   -1.5970 h1        1 566      0.053700
     27 H41        -3.1980    1.1750    1.3490 hc        1 566      0.056950
     28 H42        -2.3880    1.9590   -0.0720 hc        1 566      0.056950
     29 H51        -4.5750    2.3610   -1.1630 hc        1 566      0.040200
     30 H52        -4.5420    3.0820    0.4940 hc        1 566      0.040200
     31 H61        -6.6960    1.8790    0.0020 hc        1 566      0.043200
     32 H62        -5.8100    1.1760    1.4140 hc        1 566      0.043200
     33 H161        0.4720   -0.9320    1.5800 hc        1 566      0.085200
     34 H162        0.0910   -2.6200    1.0300 hc        1 566      0.085200
     35 H17         0.5900   -2.1050   -1.1930 hc        1 566      0.084700
     36 H181       -0.7950    0.5410   -1.4750 h1        1 566      0.069200
     37 H182       -1.2010   -1.0800   -2.2130 h1        1 566      0.069200
     38 H25         6.9620   -0.5500    1.4950 ha        1 566      0.134500
     39 H26         7.4450    1.6120    0.3430 ha        1 566      0.134000
     40 H27         5.6660    2.7070   -1.0250 ha        1 566      0.134500
     41 H28         3.4350    1.6820   -1.2540 ha        1 566      0.150000
     42 HN35        2.6120   -1.5720    0.3820 hn        1 566      0.316500
     43 H24         4.7450   -1.6110    1.2950 ha        1 566      0.150000
@<TRIPOS>BOND
     1    1    2 1   
     2    1    6 1   
     3    1   22 1   
     4    1   23 1   
     5    2    3 1   
     6    2   24 1   
     7    2   25 1   
     8    3    4 1   
     9    3   11 1   
    10    3   26 1   
    11    4    5 1   
    12    4   27 1   
    13    4   28 1   
    14    5    6 1   
    15    5   29 1   
    16    5   30 1   
    17    6   31 1   
    18    6   32 1   
    19    7    8 1   
    20    7   11 1   
    21    7   21 2   
    22    8    9 1   
    23    8   33 1   
    24    8   34 1   
    25    9   10 1   
    26    9   18 1   
    27    9   35 1   
    28   10   11 1   
    29   10   36 1   
    30   10   37 1   
    31   12   13 ar  
    32   12   17 ar  
    33   12   43 1   
    34   13   14 ar  
    35   13   38 1   
    36   14   15 ar  
    37   14   39 1   
    38   15   16 ar  
    39   15   40 1   
    40   16   17 ar  
    41   16   41 1   
    42   17   19 1   
    43   18   19 1   
    44   18   20 2   
    45   19   42 1   
@<TRIPOS>SUBSTRUCTURE
     1 566         1 TEMP              0 ****  ****    0 ROOT
