@<TRIPOS>MOLECULE
566
   43    41     1     0     0
SMALL
bcc


@<TRIPOS>ATOM
      1 C1         -2.6970   -0.4040   -4.1040 c3        1 566     -0.157000
      2 C2         -1.1090   -0.7350   -3.3340 c3        1 566     -0.170000
      3 C3         -1.2640   -1.1650   -1.6490 c3        1 566      0.056000
      4 C4         -1.5610   -1.4590   -1.5990 c3        1 566     -0.170000
      5 C5         -2.9970   -0.9760   -2.2860 c3        1 566     -0.157000
      6 C6         -2.7700   -0.3210   -4.0310 c3        1 566     -0.154000
      7 C15        -1.5930    1.5350   -1.1560 c1        1 566      0.311000
      8 C16        -0.6480    2.3160   -0.0910 c2        1 566     -0.196000
      9 C17        -0.6360    1.3210    1.1440 c3        1 566     -0.147000
     10 C18        -1.6840    0.3680    0.7790 c3        1 566     -0.018000
     11 N19        -1.7130    0.3020   -0.7100 n3        1 566     -0.338000
     12 C24         3.7820   -0.3310    2.1650 c1        1 566     -0.153000
     13 C25         4.8480   -0.9900    2.8050 c1        1 566     -0.136250
     14 C26         4.9980   -0.9000    4.2210 c1        1 566     -0.136250
     15 C27         4.0970   -0.1700    4.9580 c1        1 566     -0.136250
     16 C28         3.0200    0.4940    4.3040 c1        1 566     -0.136250
     17 C29         2.8800    0.4000    2.9000 c1        1 566      0.073000
     18 C33         0.7160    0.6800    1.3950 c2        1 566      0.317000
     19 N35         1.4300    0.9060    2.7100 n         1 566     -0.324000
     20 O37         1.2400    0.1470    0.5600 o         1 566     -0.344000
     21 O38        -1.9240    1.9160   -2.1580 o         1 566     -0.350000
     22 H11        -3.2400   -1.3720   -4.2310 hc        1 566      0.085500
     23 H12        -2.5170    0.0680   -5.1420 hc        1 566      0.085500
     24 H21        -0.5720    0.0270   -3.4090 hc        1 566      0.091000
     25 H22        -0.6400   -1.5310   -3.8480 hc        1 566      0.091000
     26 H3         -0.4910   -1.4810   -1.3530 h1        1 566      0.088000
     27 H41        -1.6990   -1.6090   -0.6380 hc        1 566      0.091000
     28 H42        -1.2760   -2.2530   -1.9950 hc        1 566      0.091000
     29 H51        -3.5910   -1.7040   -2.3090 hc        1 566      0.085500
     30 H52        -3.4130   -0.2210   -1.6910 hc        1 566      0.085500
     31 H61        -2.3010    0.6360   -3.9860 hc        1 566      0.078500
     32 H62        -3.8260   -0.2050   -4.5350 hc        1 566      0.078500
     33 H161       -0.8410    3.2720    0.1920 ha        1 566      0.124500
     34 H162        0.2730    2.4180   -0.5210 ha        1 566      0.124500
     35 H17        -0.8170    1.7870    2.0270 hc        1 566      0.122000
     36 H181       -1.4810   -0.4890    1.1370 h1        1 566      0.107000
     37 H182       -2.4810    0.6500    1.0890 h1        1 566      0.107000
     38 H24         3.6970   -0.3830    1.3460 ha        1 566      0.172000
     39 H25         5.4580   -1.4840    2.3010 ha        1 566      0.132750
     40 H26         5.7460   -1.3630    4.6690 ha        1 566      0.132750
     41 H27         4.1920   -0.1070    5.9110 ha        1 566      0.132750
     42 H28         2.3310    1.0530    4.8640 ha        1 566      0.132750
     43 HN35        1.0720    1.3580    3.2990 hn        1 566      0.230000
@<TRIPOS>BOND
     1    1    2 1   
     2    1    6 1   
     3    1   22 1   
     4    1   23 1   
     5    2    3 1   
     6    2   24 1   
     7    2   25 1   
     8    3    4 1   
     9    3   11 1   
    10    3   26 1   
    11    4    5 1   
    12    4   27 1   
    13    4   28 1   
    14    5    6 1   
    15    5   29 1   
    16    5   30 1   
    17    6   31 1   
    18    6   32 1   
    19    7   11 1   
    20    7   21 1   
    21    8    9 1   
    22    8   33 1   
    23    8   34 1   
    24    9   10 1   
    25    9   18 1   
    26    9   35 1   
    27   10   11 1   
    28   10   36 1   
    29   10   37 1   
    30   12   17 1   
    31   12   38 1   
    32   13   14 1   
    33   13   39 1   
    34   14   40 1   
    35   15   16 1   
    36   15   41 1   
    37   16   42 1   
    38   17   19 1   
    39   18   19 1   
    40   18   20 1   
    41   19   43 1   
@<TRIPOS>SUBSTRUCTURE
     1 566         1 TEMP              0 ****  ****    0 ROOT
