@<TRIPOS>MOLECULE
566
   44    46     1     0     0
SMALL
bcc


@<TRIPOS>ATOM
      1 C1          0.3570    0.2150   -0.2010 c3        1 566     -0.075900
      2 C2          1.7460   -0.2510    0.1850 c3        1 566     -0.093900
      3 C3          1.9470   -0.1210    1.7050 c3        1 566      0.112700
      4 C4          0.8800   -0.9590    2.4310 c3        1 566     -0.093900
      5 C5         -0.5040   -0.4860    2.0360 c3        1 566     -0.075900
      6 C6         -0.7120   -0.5620    0.5380 c3        1 566     -0.083400
      7 C15         3.8730   -1.7210    2.0120 c         1 566      0.696500
      8 C16         5.3960   -1.6100    2.1610 c3        1 566     -0.192400
      9 C17         5.6870   -0.1160    2.3050 c3        1 566     -0.150700
     10 C18         4.3010    0.5870    2.1580 c3        1 566      0.092000
     11 N19         3.2960   -0.4570    2.1390 n         1 566     -0.459800
     12 C24         6.8620   -1.1070    6.2990 ca        1 566     -0.101500
     13 C25         6.6220   -2.0620    7.2840 ca        1 566     -0.099500
     14 C26         6.8140   -3.4190    7.0170 ca        1 566     -0.066000
     15 C27         7.2520   -3.8300    5.7560 ca        1 566     -0.099500
     16 C28         7.4980   -2.8940    4.7540 ca        1 566     -0.101500
     17 C29         7.3000   -1.5290    5.0310 ca        1 566     -0.068400
     18 C33         6.3330    0.2630    3.6070 c         1 566      0.564100
     19 N35         7.5790   -0.5300    3.9920 n4        1 566     -0.548200
     20 O37         6.0370    1.1610    4.3770 o         1 566     -0.402100
     21 O38         3.2860   -2.7970    1.8590 o         1 566     -0.567500
     22 H11         0.2210    0.0840   -1.3070 hc        1 566      0.049200
     23 H12         0.2510    1.3090    0.0230 hc        1 566      0.049200
     24 H21         1.8850   -1.3220   -0.1180 hc        1 566      0.055450
     25 H22         2.5090    0.3650   -0.3580 hc        1 566      0.055450
     26 H3          1.7900    0.9640    1.9900 h1        1 566      0.061700
     27 H41         1.0070   -2.0420    2.1640 hc        1 566      0.055450
     28 H42         1.0060   -0.8610    3.5400 hc        1 566      0.055450
     29 H51        -0.6570    0.5690    2.3840 hc        1 566      0.049200
     30 H52        -1.2670   -1.1250    2.5530 hc        1 566      0.049200
     31 H61        -1.7210   -0.1510    0.2770 hc        1 566      0.052700
     32 H62        -0.6900   -1.6350    0.2100 hc        1 566      0.052700
     33 H161        5.8760   -2.0300    1.2420 hc        1 566      0.095200
     34 H162        5.7090   -2.2220    3.0420 hc        1 566      0.095200
     35 H17         6.3690    0.2430    1.4840 hc        1 566      0.112700
     36 H181        4.0970    1.2840    3.0170 h1        1 566      0.080200
     37 H182        4.2930    1.1840    1.2030 h1        1 566      0.080200
     38 H26         6.6210   -4.1690    7.8040 ha        1 566      0.174000
     39 H27         7.4040   -4.9020    5.5450 ha        1 566      0.174500
     40 H28         7.8470   -3.2390    3.7670 ha        1 566      0.161000
     41 HN35        7.9540   -1.0010    3.1620 hn        1 566      0.461800
     42 H24         6.6980   -0.0380    6.5200 ha        1 566      0.161000
     43 H352        8.2860    0.1200    4.3620 hn        1 566      0.461800
     44 H25         6.2760   -1.7370    8.2800 ha        1 566      0.174500
@<TRIPOS>BOND
     1    1    2 1   
     2    1    6 1   
     3    1   22 1   
     4    1   23 1   
     5    2    3 1   
     6    2   24 1   
     7    2   25 1   
     8    3    4 1   
     9    3   11 1   
    10    3   26 1   
    11    4    5 1   
    12    4   27 1   
    13    4   28 1   
    14    5    6 1   
    15    5   29 1   
    16    5   30 1   
    17    6   31 1   
    18    6   32 1   
    19    7    8 1   
    20    7   11 1   
    21    7   21 2   
    22    8    9 1   
    23    8   33 1   
    24    8   34 1   
    25    9   10 1   
    26    9   18 1   
    27    9   35 1   
    28   10   11 1   
    29   10   36 1   
    30   10   37 1   
    31   12   13 ar  
    32   12   17 ar  
    33   12   42 1   
    34   13   14 ar  
    35   13   44 1   
    36   14   15 ar  
    37   14   38 1   
    38   15   16 ar  
    39   15   39 1   
    40   16   17 ar  
    41   16   40 1   
    42   17   19 1   
    43   18   19 1   
    44   18   20 2   
    45   19   41 1   
    46   19   43 1   
@<TRIPOS>SUBSTRUCTURE
     1 566         1 TEMP              0 ****  ****    0 ROOT
