@<TRIPOS>MOLECULE
567
   71    59     1     0     0
SMALL
bcc


@<TRIPOS>ATOM
      1 C4         -1.7290    0.3600    5.9420 c1        1 567     -0.039000
      2 C14        -1.2280    0.1000    1.0620 c1        1 567      0.288000
      3 C5         -1.1430   -0.4060    2.5160 c3        1 567      0.044000
      4 C6         -0.5860    1.8690    7.4290 c1        1 567     -0.129750
      5 C11        -0.8850    1.4570    6.1460 c1        1 567     -0.115500
      6 C7         -1.9590    0.1100    8.3200 c1        1 567     -0.115500
      7 C8          1.3960   -4.9430    1.3560 c1        1 567      0.362000
      8 C13        -2.9840   -1.3130    5.1810 c1        1 567     -0.059000
      9 N1          4.4190   -2.9950   -7.9130 n3        1 567     -0.391000
     10 N2          2.5680   -2.0010   -8.9390 n1        1 567     -0.301000
     11 N3         -3.3860    5.1190   -3.1570 n         1 567     -0.434000
     12 O1         -1.8080   -0.5470    0.2340 o         1 567     -0.401000
     13 N5         -0.6380    1.3600    0.7050 n2        1 567     -0.369000
     14 C15        -0.5550    1.7450   -0.6790 c3        1 567      0.018000
     15 C18        -0.9720    3.1810   -0.8220 c3        1 567     -0.172000
     16 C19        -2.1470    3.2770   -1.7860 c3        1 567     -0.183000
     17 C20         0.8650    1.5840   -1.1650 c2        1 567      0.290000
     18 O5          1.7900    1.8540   -0.4350 o         1 567     -0.438000
     19 N6          1.1150    1.1750   -2.5190 n         1 567     -0.356000
     20 C21         2.4590    0.8120   -2.9260 c3        1 567      0.011000
     21 C16         1.8580   -1.3190   -4.4230 c1        1 567     -0.115000
     22 C17         2.1360   -1.9910   -5.6090 c1        1 567     -0.123000
     23 C22         2.9670   -1.3930   -6.5790 c1        1 567     -0.067000
     24 C23         3.5030   -0.1460   -6.3520 c1        1 567     -0.129750
     25 C24         3.2220    0.5290   -5.1580 c1        1 567     -0.129750
     26 C25         2.3980   -0.0630   -4.1950 c1        1 567     -0.086000
     27 C26         3.3130   -2.1520   -7.8750 c2        1 567      0.130000
     28 C2         -2.3250    4.7690   -2.2480 c2        1 567      0.304000
     29 O2         -1.6180    5.6110   -1.8120 o         1 567     -0.408000
     30 C1         -2.3820   -0.0100    3.2580 c3        1 567     -0.100000
     31 N4         -1.0260   -1.8300    2.5240 n3        1 567     -0.894000
     32 S1          0.4320   -2.5450    2.1760 s4        1 567      2.041800
     33 O4          0.9270   -2.1100    0.9150 o         1 567     -0.572400
     34 O3          1.4620   -2.0800    3.0590 o         1 567     -0.572400
     35 C9          0.2930   -4.3210    2.2340 c1        1 567     -0.954000
     36 O7          2.4560   -5.4470    1.9090 o         1 567     -0.566000
     37 O6          1.2280   -5.0370    0.0810 o         1 567     -0.566000
     38 C10        -1.1260    1.1920    8.5200 c1        1 567     -0.129750
     39 C3         -2.2610   -0.3080    7.0240 c1        1 567     -0.039000
     40 N7         -3.0340   -1.3380    6.5510 n1        1 567     -0.212000
     41 C12        -2.1750   -0.2610    4.8020 c1        1 567     -0.162000
     42 H5         -0.3770   -0.0190    2.9420 h1        1 567      0.141000
     43 H6         -0.0920    2.6960    7.5690 ha        1 567      0.126750
     44 H11        -0.5130    1.9250    5.3910 ha        1 567      0.132000
     45 H7         -2.3690   -0.3500    9.0970 ha        1 567      0.132000
     46 H13        -3.4600   -1.9160    4.5780 DU        1 567      0.190000
     47 HN1         4.6150   -3.4350   -8.6570 hn        1 567      0.187500
     48 HN1A        4.9370   -3.0920   -7.1820 hn        1 567      0.187500
     49 HN2         2.7770   -2.4590   -9.7230 DU        1 567      0.190000
     50 HN3        -3.6090    6.0300   -3.2950 hn        1 567      0.231000
     51 HN3A       -3.8850    4.4580   -3.5580 hn        1 567      0.231000
     52 HN5        -0.4180    1.9410    1.3400 hn        1 567      0.268000
     53 H15        -1.1450    1.1790   -1.2100 h1        1 567      0.150000
     54 H18        -1.2330    3.5240    0.0330 hc        1 567      0.109000
     55 H18A       -0.1910    3.7270   -1.1830 hc        1 567      0.109000
     56 H19        -1.9770    2.7170   -2.5590 hc        1 567      0.115500
     57 H19A       -2.9850    2.9660   -1.3230 hc        1 567      0.115500
     58 HN6         0.4250    1.2490   -3.1700 hn        1 567      0.289000
     59 H21         2.8970    0.3080   -2.1990 h1        1 567      0.098500
     60 H21A        2.9750    1.6280   -3.1160 h1        1 567      0.098500
     61 H16         1.3050   -1.7390   -3.7450 ha        1 567      0.205000
     62 H17         1.7780   -2.9000   -5.7560 ha        1 567      0.132000
     63 H23         4.1300    0.2310   -6.9830 ha        1 567      0.126750
     64 H24         3.6030    1.4290   -4.9970 ha        1 567      0.126750
     65 H1         -3.1180   -0.5340    2.9470 hc        1 567      0.110000
     66 H1A        -2.5640    0.9160    3.1070 hc        1 567      0.110000
     67 HN4        -1.7530   -2.3530    2.7730 hn        1 567      0.271000
     68 H9          0.4000   -4.6300    3.1660 ha        1 567      0.169000
     69 H9A        -0.5800   -4.5910    1.9010 ha        1 567      0.169000
     70 H10        -0.9210    1.4760    9.4020 ha        1 567      0.126750
     71 HN7        -3.4950   -1.9290    7.0560 DU        1 567      0.190000
@<TRIPOS>BOND
     1    1    5 1   
     2    2    3 1   
     3    2   12 1   
     4    3   30 1   
     5    3   31 1   
     6    3   42 1   
     7    4   38 1   
     8    4   43 1   
     9    5   44 1   
    10    6   39 1   
    11    6   45 1   
    12    7   36 1   
    13    7   37 1   
    14    8   40 1   
    15    8   41 1   
    16    9   27 1   
    17    9   47 1   
    18    9   48 1   
    19   10   27 1   
    20   11   28 1   
    21   11   50 1   
    22   11   51 1   
    23   13   14 1   
    24   13   52 1   
    25   14   15 1   
    26   14   17 1   
    27   14   53 1   
    28   15   16 1   
    29   15   54 1   
    30   15   55 1   
    31   16   28 1   
    32   16   56 1   
    33   16   57 1   
    34   17   18 1   
    35   17   19 1   
    36   19   20 1   
    37   19   58 1   
    38   20   26 1   
    39   20   59 1   
    40   20   60 1   
    41   21   26 1   
    42   21   61 1   
    43   22   23 1   
    44   22   62 1   
    45   23   27 1   
    46   24   25 1   
    47   24   63 1   
    48   25   64 1   
    49   28   29 1   
    50   30   41 1   
    51   30   65 1   
    52   30   66 1   
    53   31   32 1   
    54   31   67 1   
    55   32   33 1   
    56   32   34 1   
    57   35   68 1   
    58   35   69 1   
    59   38   70 1   
@<TRIPOS>SUBSTRUCTURE
     1 567         1 TEMP              0 ****  ****    0 ROOT
