@<TRIPOS>MOLECULE
567
   71    73     1     0     0
SMALL
bcc


@<TRIPOS>ATOM
      1 C4          3.4220   -0.5470   -1.9570 ca        1 567     -0.075800
      2 C14        -0.5900   -2.4290   -0.0480 c         1 567      0.644100
      3 C5          0.4860   -1.3170   -0.2030 c3        1 567      0.185500
      4 C6          5.5730   -1.5980   -2.0920 ca        1 567     -0.162000
      5 C11         4.1910   -1.7080   -2.0170 ca        1 567     -0.097000
      6 C7          5.4760    0.8370   -2.0630 ca        1 567     -0.136000
      7 C13         1.8520    1.1100   -1.8820 cc        1 567     -0.062100
      8 N1         -1.9030    3.5590   -2.5170 nh        1 567     -0.947800
      9 N2         -4.1710    4.3330   -2.9210 n2        1 567     -0.863100
     10 N5         -1.1940   -2.5330    1.1920 n         1 567     -0.580900
     11 C15        -2.3120   -3.3900    1.4720 c3        1 567      0.035700
     12 C18        -2.2910   -3.9370    2.9090 c3        1 567     -0.086400
     13 C19        -1.0630   -4.7750    3.2040 c3        1 567     -0.150400
     14 C20        -3.6920   -2.7030    1.2710 c         1 567      0.630100
     15 O5         -4.6250   -3.3680    0.7770 o         1 567     -0.620100
     16 N6         -3.8660   -1.4130    1.7260 n         1 567     -0.544900
     17 C21        -4.9930   -0.6150    1.3040 c3        1 567      0.128300
     18 C16        -3.6640    1.4480    0.7840 ca        1 567     -0.131000
     19 C17        -3.2440    2.4480   -0.0900 ca        1 567     -0.102000
     20 C22        -3.7970    2.5270   -1.3730 ca        1 567     -0.134900
     21 C23        -4.7870    1.6220   -1.7660 ca        1 567     -0.102000
     22 C24        -5.1880    0.6100   -0.8940 ca        1 567     -0.131000
     23 C25        -4.6180    0.5090    0.3770 ca        1 567     -0.117300
     24 C2         -0.2910   -4.2580    4.4060 c         1 567      0.651100
     25 O2         -0.3130   -4.8790    5.4930 o         1 567     -0.650100
     26 N4          0.0370   -0.0510    0.3010 n3        1 567     -0.909100
     27 S1          0.1050    0.3940    1.8470 s6        1 567      1.462900
     28 O4         -1.2120    0.4640    2.3880 o         1 567     -0.707800
     29 O3          0.8670   -0.5800    2.5750 o         1 567     -0.707800
     30 C9          0.8640    1.8910    1.8930 c3        1 567     -0.473600
     31 O7         -0.1770    2.7550   -0.0950 o         1 567     -0.833800
     32 O6          1.9660    3.2750    0.2450 o         1 567     -0.833800
     33 C10         6.2040   -0.3440   -2.1110 ca        1 567     -0.134000
     34 C3          4.0790    0.7450   -1.9890 ca        1 567     -0.059200
     35 N7          3.0940    1.7440   -1.9940 na        1 567     -0.162400
     36 C12         2.0010   -0.2780   -1.8650 cd        1 567     -0.195400
     37 H5          1.3760   -1.6600    0.4150 h1        1 567      0.086700
     38 H6          6.1900   -2.5060   -2.1360 ha        1 567      0.117000
     39 H11         3.7030   -2.6930   -2.0060 ha        1 567      0.127000
     40 H7          5.9760    1.8140   -2.0790 ha        1 567      0.128000
     41 H13         0.9430    1.7250   -1.8140 h4        1 567      0.203000
     42 HN1        -1.3710    3.0820   -1.8160 hn        1 567      0.414300
     43 HN1A       -1.4930    4.4190   -2.8020 hn        1 567      0.414300
     44 HN2        -3.7940    5.0240   -3.5360 hn        1 567      0.366400
     45 HN3         0.4850   -2.5840    3.4490 hn        1 567      0.324500
     46 HN3A        0.9310   -2.7640    5.0740 hn        1 567      0.324500
     47 HN5        -0.9440   -1.9050    1.9210 hn        1 567      0.314500
     48 H15        -2.2910   -4.2520    0.7360 h1        1 567      0.111700
     49 H18        -2.3720   -3.0860    3.6360 hc        1 567      0.066700
     50 H18A       -3.2130   -4.5640    3.0330 hc        1 567      0.066700
     51 H19        -1.3760   -5.8260    3.4460 hc        1 567      0.071700
     52 H19A       -0.3810   -4.8300    2.3160 hc        1 567      0.071700
     53 HN6        -3.0650   -0.8870    2.0140 hn        1 567      0.334500
     54 H21        -5.7580   -1.2840    0.8140 h1        1 567      0.062700
     55 H21A       -5.4580   -0.1700    2.2330 h1        1 567      0.062700
     56 H16        -3.2090    1.3830    1.7880 ha        1 567      0.147000
     57 H17        -2.4470    3.1440    0.2250 ha        1 567      0.155500
     58 H23        -5.2390    1.7010   -2.7660 ha        1 567      0.155500
     59 H24        -5.9440   -0.1210   -1.2180 ha        1 567      0.147000
     60 H1          1.2770   -2.2900   -1.9690 hc        1 567      0.067200
     61 H1A         0.0420   -1.0150   -2.3250 hc        1 567      0.067200
     62 HN4        -0.2830    0.5860   -0.4020 hn        1 567      0.486800
     63 H9          1.9320    1.8000    2.2270 h1        1 567      0.134200
     64 H9A         0.3590    2.5720    2.6290 h1        1 567      0.134200
     65 H10         7.3020   -0.2980   -2.1630 ha        1 567      0.116000
     66 HN7         3.2340    2.6570   -1.6190 hn        1 567      0.323700
     67 C1          0.9280   -1.2620   -1.6820 c3        1 567      0.007800
     68 C26        -3.2970    3.5750   -2.3210 ce        1 567      0.656800
     69 O1         -0.8480   -3.2240   -0.9690 o         1 567     -0.600100
     70 C8          0.8960    2.7160    0.5810 c         1 567      0.963600
     71 N3          0.4480   -3.1150    4.2850 n         1 567     -0.660000
@<TRIPOS>BOND
     1    1    5 ar  
     2    1   34 ar  
     3    1   36 1   
     4    2    3 1   
     5    2   10 1   
     6    2   69 2   
     7    3   26 1   
     8    3   37 1   
     9    3   67 1   
    10    4    5 ar  
    11    4   33 ar  
    12    4   38 1   
    13    5   39 1   
    14    6   33 ar  
    15    6   34 ar  
    16    6   40 1   
    17    7   35 1   
    18    7   36 2   
    19    7   41 1   
    20    8   42 1   
    21    8   43 1   
    22    8   68 1   
    23    9   44 1   
    24    9   68 2   
    25   10   11 1   
    26   10   47 1   
    27   11   12 1   
    28   11   14 1   
    29   11   48 1   
    30   12   13 1   
    31   12   49 1   
    32   12   50 1   
    33   13   24 1   
    34   13   51 1   
    35   13   52 1   
    36   14   15 2   
    37   14   16 1   
    38   16   17 1   
    39   16   53 1   
    40   17   23 1   
    41   17   54 1   
    42   17   55 1   
    43   18   19 ar  
    44   18   23 ar  
    45   18   56 1   
    46   19   20 ar  
    47   19   57 1   
    48   20   21 ar  
    49   20   68 1   
    50   21   22 ar  
    51   21   58 1   
    52   22   23 ar  
    53   22   59 1   
    54   24   25 2   
    55   24   71 1   
    56   26   27 1   
    57   26   62 1   
    58   27   28 2   
    59   27   29 2   
    60   27   30 1   
    61   30   63 1   
    62   30   64 1   
    63   30   70 1   
    64   31   70 1   
    65   32   70 1   
    66   33   65 1   
    67   34   35 1   
    68   35   66 1   
    69   36   67 1   
    70   45   71 1   
    71   46   71 1   
    72   60   67 1   
    73   61   67 1   
@<TRIPOS>SUBSTRUCTURE
     1 567         1 TEMP              0 ****  ****    0 ROOT
