@<TRIPOS>MOLECULE
569
   48    51     1     0     0
SMALL
bcc


@<TRIPOS>ATOM
      1 C1         -0.2380   -0.3530    0.3510 c3        1 569      0.057300
      2 F1          7.6860    5.1680    0.1680 f         1 569     -0.202633
      3 N1          1.1450   -0.0240    0.2430 n         1 569     -0.433300
      4 O1          1.7860   -0.1270    2.4880 o         1 569     -0.496500
      5 C2          2.1110   -0.0720    1.3110 c         1 569      0.691500
      6 F2          7.8740    6.2580    2.0880 f         1 569     -0.202633
      7 N2          3.2140   -0.0070   -0.8420 n2        1 569     -0.528900
      8 O2          6.3030    4.7590    1.9400 os        1 569     -0.363900
      9 C3          3.5320   -0.0150    0.6290 c3        1 569      0.209800
     10 F3          8.5070    4.1380    1.9450 f         1 569     -0.202633
     11 N3          1.2210    0.0140   -2.2750 nz        1 569     -0.780600
     12 C4          1.9010   -0.0260   -0.9610 c2        1 569      0.477800
     13 F4          6.6000   -4.4800    2.2900 f         1 569     -0.113900
     14 N4          6.8650   -4.6190   -2.7470 nb        1 569     -0.682000
     15 C5          4.2660    1.2560    0.9850 ca        1 569     -0.143300
     16 N5          8.7290   -4.8130   -1.1970 nb        1 569     -0.682000
     17 C6          3.7190    2.2200    1.8390 ca        1 569     -0.070000
     18 C7          4.4290    3.3740    2.1460 ca        1 569     -0.156000
     19 C8          5.7030    3.5640    1.5790 ca        1 569      0.163100
     20 C9          6.2640    2.6080    0.7260 ca        1 569     -0.156000
     21 C10         5.5400    1.4550    0.4360 ca        1 569     -0.070000
     22 C11         7.6120    5.0610    1.5180 c3        1 569      0.829700
     23 C12         4.3380   -1.2280    1.0370 ca        1 569     -0.134300
     24 C13         4.3470   -1.6160    2.3840 ca        1 569     -0.078000
     25 C14         5.1060   -2.7020    2.7960 ca        1 569     -0.155000
     26 C15         5.8800   -3.4210    1.8620 ca        1 569      0.170900
     27 C16         5.8940   -3.0300    0.5020 cp        1 569     -0.056000
     28 C17         5.1210   -1.9250    0.1150 ca        1 569     -0.082000
     29 C18         6.6780   -3.7330   -0.4980 cp        1 569     -0.292600
     30 C19         6.1580   -3.9910   -1.7890 ca        1 569      0.447700
     31 C20         8.1270   -5.0010   -2.4040 ca        1 569      0.647900
     32 C21         8.0000   -4.1840   -0.2570 ca        1 569      0.447700
     33 H1         -0.5110   -0.3550    1.4450 h1        1 569      0.073367
     34 H1A        -0.8600    0.4210   -0.1730 h1        1 569      0.073367
     35 H1B        -0.4590   -1.3690   -0.0770 h1        1 569      0.073367
     36 HN3         1.9170   -0.0780   -3.0300 hn        1 569      0.485800
     37 HN3A        0.7310    0.9140   -2.3680 hn        1 569      0.485800
     38 H6          2.7280    2.0770    2.3010 ha        1 569      0.151000
     39 H7          4.0150    4.1360    2.8240 ha        1 569      0.171500
     40 H9          7.2660    2.7550    0.2920 ha        1 569      0.171500
     41 H10         5.9800    0.6900   -0.2250 ha        1 569      0.151000
     42 H13         3.7600   -1.0580    3.1340 ha        1 569      0.168000
     43 H14         5.1140   -3.0110    3.8530 ha        1 569      0.173000
     44 H17         5.1730   -1.6130   -0.9410 ha        1 569      0.147000
     45 H19         5.1300   -3.6910   -2.0580 h4        1 569      0.030100
     46 H20         8.7220   -5.5210   -3.1840 h5        1 569      0.070100
     47 H21         8.4830   -4.0380    0.7280 h4        1 569      0.030100
     48 H33         0.5440   -0.7570   -2.3320 hn        1 569      0.485800
@<TRIPOS>BOND
     1    1    3 1   
     2    1   33 1   
     3    1   34 1   
     4    1   35 1   
     5    2   22 1   
     6    3    5 1   
     7    3   12 1   
     8    4    5 2   
     9    5    9 1   
    10    6   22 1   
    11    7    9 1   
    12    7   12 2   
    13    8   19 1   
    14    8   22 1   
    15    9   15 1   
    16    9   23 1   
    17   10   22 1   
    18   11   12 1   
    19   11   36 1   
    20   11   37 1   
    21   11   48 1   
    22   13   26 1   
    23   14   30 ar  
    24   14   31 ar  
    25   15   17 ar  
    26   15   21 ar  
    27   16   31 ar  
    28   16   32 ar  
    29   17   18 ar  
    30   17   38 1   
    31   18   19 ar  
    32   18   39 1   
    33   19   20 ar  
    34   20   21 ar  
    35   20   40 1   
    36   21   41 1   
    37   23   24 ar  
    38   23   28 ar  
    39   24   25 ar  
    40   24   42 1   
    41   25   26 ar  
    42   25   43 1   
    43   26   27 ar  
    44   27   28 ar  
    45   27   29 1   
    46   28   44 1   
    47   29   30 ar  
    48   29   32 ar  
    49   30   45 1   
    50   31   46 1   
    51   32   47 1   
@<TRIPOS>SUBSTRUCTURE
     1 569         1 TEMP              0 ****  ****    0 ROOT
