@<TRIPOS>MOLECULE
569
   48    51     1     0     0
SMALL
bcc


@<TRIPOS>ATOM
      1 C1         -0.2380   -0.3480    0.3150 c3        1 569      0.057300
      2 F1          7.7030    5.1540    0.1690 f         1 569     -0.202633
      3 N1          1.1470   -0.0230    0.2150 n         1 569     -0.433300
      4 O1          1.7700   -0.1160    2.4660 o         1 569     -0.495500
      5 C2          2.1040   -0.0680    1.2910 c         1 569      0.691500
      6 F2          7.8750    6.2540    2.0850 f         1 569     -0.202633
      7 N2          3.2240   -0.0160   -0.8540 n2        1 569     -0.528900
      8 O2          6.3010    4.7580    1.9290 os        1 569     -0.363900
      9 C3          3.5310   -0.0170    0.6200 c3        1 569      0.209800
     10 F3          8.5030    4.1300    1.9600 f         1 569     -0.202633
     11 N3          1.2420    0.0030   -2.3010 n4        1 569     -0.780600
     12 C4          1.9120   -0.0330   -0.9820 c2        1 569      0.477800
     13 F4          6.5770   -4.4800    2.3260 f         1 569     -0.113900
     14 N4          6.8850   -4.6400   -2.7080 nb        1 569     -0.682000
     15 C5          4.2650    1.2540    0.9750 ca        1 569     -0.143300
     16 N5          8.7350   -4.8320   -1.1420 nb        1 569     -0.682000
     17 C6          3.7120    2.2240    1.8200 ca        1 569     -0.070000
     18 C7          4.4220    3.3790    2.1260 ca        1 569     -0.156000
     19 C8          5.7020    3.5630    1.5690 ca        1 569      0.163100
     20 C9          6.2670    2.6010    0.7260 ca        1 569     -0.156000
     21 C10         5.5430    1.4480    0.4360 ca        1 569     -0.070000
     22 C11         7.6150    5.0540    1.5190 c3        1 569      0.829700
     23 C12         4.3310   -1.2290    1.0400 ca        1 569     -0.134300
     24 C13         4.3280   -1.6110    2.3890 ca        1 569     -0.078000
     25 C14         5.0810   -2.6970    2.8110 ca        1 569     -0.155000
     26 C15         5.8620   -3.4210    1.8880 ca        1 569      0.170900
     27 C16         5.8880   -3.0360    0.5260 cp        1 569     -0.056000
     28 C17         5.1210   -1.9320    0.1270 ca        1 569     -0.082000
     29 C18         6.6800   -3.7450   -0.4650 cp        1 569     -0.292600
     30 C19         6.1700   -4.0080   -1.7590 ca        1 569      0.447700
     31 C20         8.1420   -5.0230   -2.3520 ca        1 569      0.647900
     32 C21         7.9990   -4.1970   -0.2110 ca        1 569      0.447700
     33 H1         -0.4580   -1.3650   -0.1100 h1        1 569      0.073367
     34 H1A        -0.8550    0.4250   -0.2180 h1        1 569      0.073367
     35 H1B        -0.5200   -0.3450    1.4060 h1        1 569      0.073367
     36 HN3         0.7550    0.9030   -2.4040 hn        1 569      0.485800
     37 HN3A        1.9440   -0.0950   -3.0510 hn        1 569      0.485800
     38 H6          2.7170    2.0860    2.2740 ha        1 569      0.151000
     39 H7          4.0040    4.1450    2.7970 ha        1 569      0.171500
     40 H9          7.2730    2.7430    0.3000 ha        1 569      0.171500
     41 H10         5.9870    0.6780   -0.2170 ha        1 569      0.151000
     42 H13         3.7360   -1.0490    3.1310 ha        1 569      0.168000
     43 H14         5.0800   -3.0020    3.8700 ha        1 569      0.173000
     44 H17         5.1820   -1.6250   -0.9290 ha        1 569      0.147000
     45 H19         5.1450   -3.7070   -2.0380 h4        1 569      0.030100
     46 H20         8.7430   -5.5470   -3.1260 h5        1 569      0.070100
     47 H21         8.4740   -4.0480    0.7780 h4        1 569      0.030100
     48 H33         0.5640   -0.7670   -2.3600 hn        1 569      0.485800
@<TRIPOS>BOND
     1    1    3 1   
     2    1   33 1   
     3    1   34 1   
     4    1   35 1   
     5    2   22 1   
     6    3    5 1   
     7    3   12 1   
     8    4    5 2   
     9    5    9 1   
    10    6   22 1   
    11    7    9 1   
    12    7   12 2   
    13    8   19 1   
    14    8   22 1   
    15    9   15 1   
    16    9   23 1   
    17   10   22 1   
    18   11   12 1   
    19   11   36 1   
    20   11   37 1   
    21   11   48 1   
    22   13   26 1   
    23   14   30 ar  
    24   14   31 ar  
    25   15   17 ar  
    26   15   21 ar  
    27   16   31 ar  
    28   16   32 ar  
    29   17   18 ar  
    30   17   38 1   
    31   18   19 ar  
    32   18   39 1   
    33   19   20 ar  
    34   20   21 ar  
    35   20   40 1   
    36   21   41 1   
    37   23   24 ar  
    38   23   28 ar  
    39   24   25 ar  
    40   24   42 1   
    41   25   26 ar  
    42   25   43 1   
    43   26   27 ar  
    44   27   28 ar  
    45   27   29 1   
    46   28   44 1   
    47   29   30 ar  
    48   29   32 ar  
    49   30   45 1   
    50   31   46 1   
    51   32   47 1   
@<TRIPOS>SUBSTRUCTURE
     1 569         1 TEMP              0 ****  ****    0 ROOT
