@<TRIPOS>MOLECULE
569
   47    41     1     0     0
SMALL
bcc


@<TRIPOS>ATOM
      1 C1         -4.6590    0.3990   -0.6000 c3        1 569     -0.070000
      2 F1          1.4360    6.5420    0.2610 f         1 569     -0.145667
      3 N1         -3.3160    0.0530   -0.5380 n         1 569     -0.328000
      4 O1         -2.7580    0.5320    1.8080 o         1 569     -0.314000
      5 C2         -2.4160    0.1330    0.7190 c2        1 569      0.295000
      6 F2          0.0640    6.0430    1.8490 f         1 569     -0.145667
      7 N2         -1.1190    0.1560   -1.2460 n1        1 569     -0.269000
      8 O2          1.9540    4.8940    1.6520 os        1 569     -0.252000
      9 C3         -0.9390    0.1990    0.1280 c2        1 569      0.092000
     10 F3          1.9210    6.9920    2.2820 f         1 569     -0.145667
     11 N3         -2.7960    0.5770   -2.9120 n3        1 569     -0.312000
     12 C4         -2.3910    0.0760   -1.6210 c2        1 569      0.189000
     13 F4          1.8940   -4.4640    1.8060 f         1 569     -0.100000
     14 N4          2.0550   -5.2870   -2.5250 n1        1 569     -0.165000
     15 C5         -0.2520    1.5190    0.5400 c2        1 569     -0.075500
     16 N5          4.0370   -4.1430   -1.9960 n1        1 569     -0.165000
     17 C6         -0.3200    1.9710    1.8180 c2        1 569     -0.101000
     18 C7          0.3710    3.1110    2.1870 c1        1 569     -0.141500
     19 C8          1.1400    3.7980    1.2430 c1        1 569      0.044000
     20 C9          1.2100    3.3410   -0.0520 c1        1 569     -0.141000
     21 C10         0.5280    2.2160   -0.4160 c1        1 569     -0.074500
     22 C11         1.3400    6.1400    1.5140 c3        1 569      0.535000
     23 C12        -0.1040   -1.0260    0.6060 c2        1 569     -0.075500
     24 C13        -0.2260   -1.4790    1.9130 c2        1 569     -0.101000
     25 C14         0.4340   -2.6460    2.3110 c1        1 569     -0.141500
     26 C15         1.2060   -3.3460    1.4040 c1        1 569      0.111000
     27 C16         1.3270   -2.8910    0.0960 c1        1 569     -0.075000
     28 C17         0.6720   -1.7310   -0.3010 c1        1 569     -0.074500
     29 C18         2.0380   -3.6620   -0.8570 c1        1 569     -0.136000
     30 C19         1.3910   -4.5850   -1.5910 c1        1 569     -0.029000
     31 C20         3.3890   -5.0640   -2.7290 c1        1 569     -0.027500
     32 C21         3.3780   -3.4400   -1.0640 c1        1 569     -0.027500
     33 H1         -4.7590    1.1810   -1.1180 h1        1 569      0.094333
     34 H1A        -5.1740   -0.3420   -1.0160 h1        1 569      0.094333
     35 H1B        -4.9960    0.5630    0.3080 h1        1 569      0.094333
     36 HN3        -3.5220    1.1000   -2.9840 hn        1 569      0.214500
     37 HN3A       -2.3400    0.3460   -3.6430 hn        1 569      0.214500
     38 H6         -0.8630    1.4880    2.4830 ha        1 569      0.163500
     39 H7          0.3220    3.4420    3.1220 ha        1 569      0.156500
     40 H9          1.7620    3.8330   -0.7290 ha        1 569      0.157000
     41 H10         0.5760    1.9040   -1.3030 ha        1 569      0.159500
     42 H13        -0.7780   -0.9780    2.5600 ha        1 569      0.163500
     43 H14         0.3470   -2.9750    3.2550 ha        1 569      0.156500
     44 H17         0.7600   -1.4060   -1.2390 ha        1 569      0.159500
     45 H19         0.4610   -4.7410   -1.4500 ha        1 569      0.170000
     46 H20         3.8650   -5.5680   -3.3990 ha        1 569      0.185000
     47 H21         3.8480   -2.7760   -0.5370 ha        1 569      0.185000
@<TRIPOS>BOND
     1    1    3 1   
     2    1   33 1   
     3    1   34 1   
     4    1   35 1   
     5    2   22 1   
     6    3    5 1   
     7    3   12 1   
     8    4    5 1   
     9    5    9 1   
    10    6   22 1   
    11    7   12 1   
    12    8   19 1   
    13    8   22 1   
    14    9   15 1   
    15    9   23 1   
    16   10   22 1   
    17   11   12 1   
    18   11   36 1   
    19   11   37 1   
    20   13   26 1   
    21   14   31 1   
    22   15   17 1   
    23   15   21 1   
    24   16   32 1   
    25   17   18 1   
    26   17   38 1   
    27   18   39 1   
    28   19   20 1   
    29   20   40 1   
    30   21   41 1   
    31   23   24 1   
    32   23   28 1   
    33   24   25 1   
    34   24   42 1   
    35   25   43 1   
    36   26   27 1   
    37   28   44 1   
    38   29   30 1   
    39   30   45 1   
    40   31   46 1   
    41   32   47 1   
@<TRIPOS>SUBSTRUCTURE
     1 569         1 TEMP              0 ****  ****    0 ROOT
