@<TRIPOS>MOLECULE
569
   48    51     1     0     0
SMALL
bcc


@<TRIPOS>ATOM
      1 C1         -0.2370   -0.3480    0.3040 c3        1 569      0.057300
      2 F1          7.6960    5.1640    0.1910 f         1 569     -0.202633
      3 N1          1.1480   -0.0200    0.2080 n         1 569     -0.433300
      4 O1          1.7670   -0.1200    2.4600 o         1 569     -0.495500
      5 C2          2.1030   -0.0680    1.2860 c         1 569      0.691500
      6 F2          7.8650    6.2580    2.1100 f         1 569     -0.202633
      7 N2          3.2270   -0.0070   -0.8560 n2        1 569     -0.528900
      8 O2          6.2930    4.7600    1.9480 os        1 569     -0.363900
      9 C3          3.5310   -0.0130    0.6170 c3        1 569      0.209800
     10 F3          8.4960    4.1370    1.9790 f         1 569     -0.202633
     11 N3          1.2480    0.0140   -2.3080 n4        1 569     -0.780600
     12 C4          1.9150   -0.0250   -0.9880 c2        1 569      0.477800
     13 F4          6.5770   -4.4790    2.3160 f         1 569     -0.113900
     14 N4          6.8880   -4.6280   -2.7180 nb        1 569     -0.682000
     15 C5          4.2620    1.2570    0.9780 ca        1 569     -0.143300
     16 N5          8.7380   -4.8220   -1.1510 nb        1 569     -0.682000
     17 C6          3.7070    2.2240    1.8250 ca        1 569     -0.070000
     18 C7          4.4150    3.3780    2.1360 ca        1 569     -0.156000
     19 C8          5.6960    3.5660    1.5830 ca        1 569      0.163100
     20 C9          6.2640    2.6070    0.7380 ca        1 569     -0.156000
     21 C10         5.5420    1.4540    0.4430 ca        1 569     -0.070000
     22 C11         7.6070    5.0590    1.5400 c3        1 569      0.829700
     23 C12         4.3310   -1.2260    1.0350 ca        1 569     -0.134300
     24 C13         4.3280   -1.6110    2.3830 ca        1 569     -0.078000
     25 C14         5.0810   -2.6980    2.8040 ca        1 569     -0.155000
     26 C15         5.8620   -3.4190    1.8790 ca        1 569      0.170900
     27 C16         5.8890   -3.0310    0.5180 cp        1 569     -0.056000
     28 C17         5.1220   -1.9270    0.1220 ca        1 569     -0.082000
     29 C18         6.6820   -3.7370   -0.4730 cp        1 569     -0.292600
     30 C19         6.1730   -3.9980   -1.7680 ca        1 569      0.447700
     31 C20         8.1460   -5.0120   -2.3620 ca        1 569      0.647900
     32 C21         8.0010   -4.1900   -0.2190 ca        1 569      0.447700
     33 H1         -0.4550   -1.3640   -0.1250 h1        1 569      0.073367
     34 H1A        -0.8540    0.4250   -0.2280 h1        1 569      0.073367
     35 H1B        -0.5210   -0.3490    1.3950 h1        1 569      0.073367
     36 HN3         0.7600    0.9150   -2.4080 hn        1 569      0.485800
     37 HN3A        0.5700   -0.7560   -2.3700 hn        1 569      0.485800
     38 H6          2.7110    2.0830    2.2760 ha        1 569      0.151000
     39 H7          3.9950    4.1420    2.8090 ha        1 569      0.171500
     40 H9          7.2710    2.7520    0.3150 ha        1 569      0.171500
     41 H10         5.9880    0.6870   -0.2110 ha        1 569      0.151000
     42 H13         3.7340   -1.0510    3.1260 ha        1 569      0.168000
     43 H14         5.0780   -3.0050    3.8620 ha        1 569      0.173000
     44 H17         5.1840   -1.6170   -0.9340 ha        1 569      0.147000
     45 H19         5.1480   -3.6970   -2.0470 h4        1 569      0.030100
     46 H20         8.7480   -5.5340   -3.1370 h5        1 569      0.070100
     47 H21         8.4750   -4.0420    0.7700 h4        1 569      0.030100
     48 H33         1.9510   -0.0800   -3.0570 hn        1 569      0.485800
@<TRIPOS>BOND
     1    1    3 1   
     2    1   33 1   
     3    1   34 1   
     4    1   35 1   
     5    2   22 1   
     6    3    5 1   
     7    3   12 1   
     8    4    5 2   
     9    5    9 1   
    10    6   22 1   
    11    7    9 1   
    12    7   12 2   
    13    8   19 1   
    14    8   22 1   
    15    9   15 1   
    16    9   23 1   
    17   10   22 1   
    18   11   12 1   
    19   11   36 1   
    20   11   37 1   
    21   11   48 1   
    22   13   26 1   
    23   14   30 ar  
    24   14   31 ar  
    25   15   17 ar  
    26   15   21 ar  
    27   16   31 ar  
    28   16   32 ar  
    29   17   18 ar  
    30   17   38 1   
    31   18   19 ar  
    32   18   39 1   
    33   19   20 ar  
    34   20   21 ar  
    35   20   40 1   
    36   21   41 1   
    37   23   24 ar  
    38   23   28 ar  
    39   24   25 ar  
    40   24   42 1   
    41   25   26 ar  
    42   25   43 1   
    43   26   27 ar  
    44   27   28 ar  
    45   27   29 1   
    46   28   44 1   
    47   29   30 ar  
    48   29   32 ar  
    49   30   45 1   
    50   31   46 1   
    51   32   47 1   
@<TRIPOS>SUBSTRUCTURE
     1 569         1 TEMP              0 ****  ****    0 ROOT
