@<TRIPOS>MOLECULE
569
   47    50     1     0     0
SMALL
bcc


@<TRIPOS>ATOM
      1 C1         -0.3570    5.3810    0.1730 c3        1 569      0.085300
      2 F1         -5.6600   -1.1030    1.2320 f         1 569     -0.214633
      3 N1          0.0220    4.0110    0.2710 n         1 569     -0.439300
      4 O1         -0.5670    3.2650   -1.8620 o         1 569     -0.589500
      5 C2         -0.2060    3.0200   -0.7080 c         1 569      0.687500
      6 F2         -6.3300   -2.7080   -0.1350 f         1 569     -0.214633
      7 N2          0.4570    2.0090    1.3800 n2        1 569     -0.682900
      8 O2         -4.4150   -1.7650   -0.5880 os        1 569     -0.366900
      9 C3          0.1080    1.6360   -0.0180 c3        1 569      0.183800
     10 F3         -4.6610   -3.0730    1.2640 f         1 569     -0.214633
     11 N3          0.5040    4.0560    2.6940 nh        1 569     -0.873800
     12 C4          0.3630    3.3370    1.4990 c2        1 569      0.635800
     13 F4          4.4190   -1.0500   -2.5540 f         1 569     -0.135900
     14 N4          4.9040   -2.1790    2.3460 nb        1 569     -0.691000
     15 C5         -1.1170    0.7490   -0.1070 ca        1 569     -0.098300
     16 N5          5.0140   -3.7310    0.4760 nb        1 569     -0.691000
     17 C6         -1.7790    0.6190   -1.3370 ca        1 569     -0.080500
     18 C7         -2.8940   -0.2010   -1.4650 ca        1 569     -0.156000
     19 C8         -3.3390   -0.9150   -0.3410 ca        1 569      0.121100
     20 C9         -2.6870   -0.8100    0.8890 ca        1 569     -0.156000
     21 C10        -1.5750    0.0250    0.9990 ca        1 569     -0.080500
     22 C11        -5.2530   -2.1470    0.4680 c3        1 569      0.824700
     23 C12         1.2660    0.9360   -0.7040 ca        1 569     -0.087300
     24 C13         1.5610    1.1610   -2.0530 ca        1 569     -0.094000
     25 C14         2.6140    0.4930   -2.6640 ca        1 569     -0.167000
     26 C15         3.3920   -0.4230   -1.9320 ca        1 569      0.143900
     27 C16         3.1000   -0.6730   -0.5710 cp        1 569     -0.073000
     28 C17         2.0290    0.0150    0.0190 ca        1 569     -0.063000
     29 C18         3.8710   -1.6090    0.2280 cp        1 569     -0.266600
     30 C19         4.2050   -1.3240    1.5750 ca        1 569      0.440200
     31 C20         5.2740   -3.3490    1.7560 ca        1 569      0.629900
     32 C21         4.3160   -2.8570   -0.2740 ca        1 569      0.440200
     33 H1         -1.1980    5.6200    0.8780 h1        1 569      0.054700
     34 H1A         0.5210    6.0360    0.4180 h1        1 569      0.054700
     35 H1B        -0.6880    5.5900   -0.8810 h1        1 569      0.054700
     36 HN3         0.9240    3.5350    3.4350 hn        1 569      0.418800
     37 HN3A        0.8680    4.9770    2.5850 hn        1 569      0.418800
     38 H6         -1.4190    1.1800   -2.2170 ha        1 569      0.160500
     39 H7         -3.4190   -0.3050   -2.4250 ha        1 569      0.155500
     40 H9         -3.0460   -1.3720    1.7640 ha        1 569      0.155500
     41 H10        -1.0650    0.0910    1.9730 ha        1 569      0.160500
     42 H13         0.9590    1.8650   -2.6530 ha        1 569      0.164000
     43 H14         2.8500    0.6730   -3.7240 ha        1 569      0.155000
     44 H17         1.7880   -0.1970    1.0740 ha        1 569      0.159000
     45 H19         3.9030   -0.3700    2.0460 h4        1 569      0.036100
     46 H20         5.8480   -4.0620    2.3820 h5        1 569      0.056100
     47 H21         4.1070   -3.1560   -1.3180 h4        1 569      0.036100
@<TRIPOS>BOND
     1    1    3 1   
     2    1   33 1   
     3    1   34 1   
     4    1   35 1   
     5    2   22 1   
     6    3    5 1   
     7    3   12 1   
     8    4    5 2   
     9    5    9 1   
    10    6   22 1   
    11    7    9 1   
    12    7   12 2   
    13    8   19 1   
    14    8   22 1   
    15    9   15 1   
    16    9   23 1   
    17   10   22 1   
    18   11   12 1   
    19   11   36 1   
    20   11   37 1   
    21   13   26 1   
    22   14   30 ar  
    23   14   31 ar  
    24   15   17 ar  
    25   15   21 ar  
    26   16   31 ar  
    27   16   32 ar  
    28   17   18 ar  
    29   17   38 1   
    30   18   19 ar  
    31   18   39 1   
    32   19   20 ar  
    33   20   21 ar  
    34   20   40 1   
    35   21   41 1   
    36   23   24 ar  
    37   23   28 ar  
    38   24   25 ar  
    39   24   42 1   
    40   25   26 ar  
    41   25   43 1   
    42   26   27 ar  
    43   27   28 ar  
    44   27   29 1   
    45   28   44 1   
    46   29   30 ar  
    47   29   32 ar  
    48   30   45 1   
    49   31   46 1   
    50   32   47 1   
@<TRIPOS>SUBSTRUCTURE
     1 569         1 TEMP              0 ****  ****    0 ROOT
