@<TRIPOS>MOLECULE
56A
   53    54     1     0     0
SMALL
bcc


@<TRIPOS>ATOM
      1 C           3.0830    2.1120    0.9890 c         1 56A      0.884600
      2 N           4.6280    2.4880   -0.9870 n3        1 56A     -0.881800
      3 O           2.9190    3.3620    1.0160 o         1 56A     -0.843300
      4 CA          4.0810    1.5110   -0.0550 c3        1 56A      0.021500
      5 CB          5.1730    0.7290    0.6950 c3        1 56A      0.002900
      6 CG          5.3870   -0.6330    0.1600 cc        1 56A     -0.157900
      7 C28         2.0180   -1.7440   -0.1800 c3        1 56A     -0.081400
      8 C29         0.7310   -1.3020    0.4860 c3        1 56A     -0.096400
      9 C30        -0.4230   -1.3170   -0.4920 c3        1 56A     -0.071400
     10 C31        -1.7060   -0.8680    0.1740 c3        1 56A     -0.080400
     11 C32        -2.8530   -0.8260   -0.8120 c3        1 56A     -0.078400
     12 C33        -4.1390   -0.3930   -0.1410 c3        1 56A     -0.076400
     13 C34        -5.2750   -0.3110   -1.1430 c3        1 56A     -0.040100
     14 C35        -6.5460    0.1380   -0.5100 ca        1 56A     -0.069300
     15 C36        -7.6270   -0.7410   -0.3810 ca        1 56A     -0.128000
     16 C37        -8.8190   -0.3110    0.2030 ca        1 56A     -0.131000
     17 C38        -8.9400    1.0000    0.6620 ca        1 56A     -0.140000
     18 C39        -7.8660    1.8810    0.5360 ca        1 56A     -0.131000
     19 C40        -6.6750    1.4540   -0.0470 ca        1 56A     -0.128000
     20 ND1         4.4780   -1.6950    0.2660 na        1 56A     -0.181900
     21 CD2         6.5190   -1.1670   -0.5000 cd        1 56A      0.251200
     22 CE1         5.0830   -2.8060   -0.3390 cc        1 56A      0.348400
     23 NE2         6.3180   -2.5110   -0.8010 nd        1 56A     -0.693000
     24 OXT         2.4660    1.2990    1.7410 o         1 56A     -0.843300
     25 HN          3.8560    3.0220   -1.3480 hn        1 56A      0.331800
     26 HNA         5.1980    3.1350   -0.4700 hn        1 56A      0.331800
     27 HA          3.4750    0.7850   -0.6750 h1        1 56A      0.048700
     28 HB          6.1570    1.2670    0.6580 hc        1 56A      0.058700
     29 HBA         4.8680    0.6570    1.7770 hc        1 56A      0.058700
     30 H27         3.0570   -0.6410    1.3810 h1        1 56A      0.094200
     31 H27A        3.0630   -2.4740    1.5800 h1        1 56A      0.094200
     32 H28         2.2200   -1.0850   -1.0650 hc        1 56A      0.036700
     33 H28A        1.9280   -2.7950   -0.5550 hc        1 56A      0.036700
     34 H29         0.5020   -1.9780    1.3510 hc        1 56A      0.069200
     35 H29A        0.8740   -0.2620    0.9000 hc        1 56A      0.069200
     36 H30        -0.1910   -0.6380   -1.3540 hc        1 56A      0.030700
     37 H30A       -0.5570   -2.3500   -0.9100 hc        1 56A      0.030700
     38 H31        -1.9580   -1.5650    1.0160 hc        1 56A      0.045700
     39 H31A       -1.5550    0.1510    0.6220 hc        1 56A      0.045700
     40 H32        -2.6040   -0.1160   -1.6450 hc        1 56A      0.035200
     41 H32A       -2.9920   -1.8400   -1.2730 hc        1 56A      0.035200
     42 H33        -4.4030   -1.1180    0.6720 hc        1 56A      0.045200
     43 H33A       -3.9920    0.6090    0.3430 hc        1 56A      0.045200
     44 H34        -4.9970    0.4090   -1.9590 hc        1 56A      0.046700
     45 H34A       -5.4180   -1.3160   -1.6230 hc        1 56A      0.046700
     46 H36        -7.5360   -1.7770   -0.7390 ha        1 56A      0.133000
     47 H37        -9.6620   -1.0080    0.3020 ha        1 56A      0.126000
     48 H38        -9.8790    1.3380    1.1230 ha        1 56A      0.124000
     49 H39        -7.9570    2.9150    0.9000 ha        1 56A      0.126000
     50 H40        -5.8260    2.1480   -0.1430 ha        1 56A      0.133000
     51 HD2         7.4350   -0.6480   -0.7690 h4        1 56A      0.028100
     52 HE1         4.5870   -3.7760   -0.4040 h5        1 56A      0.041100
     53 C27         3.1610   -1.6360    0.8330 c3        1 56A     -0.004700
@<TRIPOS>BOND
     1    1    3 1   
     2    1    4 1   
     3    1   24 1   
     4    2    4 1   
     5    2   25 1   
     6    2   26 1   
     7    4    5 1   
     8    4   27 1   
     9    5    6 1   
    10    5   28 1   
    11    5   29 1   
    12    6   20 1   
    13    6   21 2   
    14    7    8 1   
    15    7   32 1   
    16    7   33 1   
    17    7   53 1   
    18    8    9 1   
    19    8   34 1   
    20    8   35 1   
    21    9   10 1   
    22    9   36 1   
    23    9   37 1   
    24   10   11 1   
    25   10   38 1   
    26   10   39 1   
    27   11   12 1   
    28   11   40 1   
    29   11   41 1   
    30   12   13 1   
    31   12   42 1   
    32   12   43 1   
    33   13   14 1   
    34   13   44 1   
    35   13   45 1   
    36   14   15 ar  
    37   14   19 ar  
    38   15   16 ar  
    39   15   46 1   
    40   16   17 ar  
    41   16   47 1   
    42   17   18 ar  
    43   17   48 1   
    44   18   19 ar  
    45   18   49 1   
    46   19   50 1   
    47   20   22 1   
    48   20   53 1   
    49   21   23 1   
    50   21   51 1   
    51   22   23 2   
    52   22   52 1   
    53   30   53 1   
    54   31   53 1   
@<TRIPOS>SUBSTRUCTURE
     1 56A         1 TEMP              0 ****  ****    0 ROOT
