@<TRIPOS>MOLECULE
56D
   22    22     1     0     0
SMALL
bcc


@<TRIPOS>ATOM
      1 OAL         1.0150   -0.9270    0.5810 o         1 56D     -0.810800
      2 CAI         1.4560    0.1680    0.1480 c         1 56D      0.857600
      3 OAM         1.5320    1.2460    0.7960 o         1 56D     -0.810800
      4 CAH         2.0050    0.1870   -1.2910 c         1 56D      0.476100
      5 OAK         1.3300    0.4260   -2.2960 o         1 56D     -0.582100
      6 CAG         3.5050   -0.0830   -1.3530 c3        1 56D     -0.146400
      7 CAJ         4.2290    1.2010   -0.9840 c3        1 56D     -0.082100
      8 CAD         3.9990   -0.6190   -2.6550 ca        1 56D     -0.041300
      9 CAC         3.7100    0.0300   -3.8630 ca        1 56D     -0.120000
     10 CAB         4.2010   -0.4690   -5.0680 ca        1 56D     -0.143000
     11 CAA         4.9870   -1.6210   -5.0830 ca        1 56D     -0.153000
     12 CAF         5.2730   -2.2780   -3.8870 ca        1 56D     -0.143000
     13 CAE         4.7810   -1.7820   -2.6810 ca        1 56D     -0.120000
     14 H2          3.7060   -0.8490   -0.5470 hc        1 56D      0.076700
     15 H3          3.7660    1.6290   -0.0570 hc        1 56D      0.040367
     16 H4          4.1420    1.9480   -1.8080 hc        1 56D      0.040367
     17 H5          5.3100    0.9970   -0.7990 hc        1 56D      0.040367
     18 H6          3.0620    0.9210   -3.8480 ha        1 56D      0.142000
     19 H7          3.9620    0.0440   -6.0100 ha        1 56D      0.114000
     20 H8          5.3750   -2.0130   -6.0340 ha        1 56D      0.110000
     21 H9          5.8840   -3.1910   -3.8940 ha        1 56D      0.114000
     22 H10         5.0020   -2.3100   -1.7420 ha        1 56D      0.142000
@<TRIPOS>BOND
     1    1    2 1   
     2    2    3 1   
     3    2    4 1   
     4    4    5 2   
     5    4    6 1   
     6    6    7 1   
     7    6    8 1   
     8    6   14 1   
     9    7   15 1   
    10    7   16 1   
    11    7   17 1   
    12    8    9 ar  
    13    8   13 ar  
    14    9   10 ar  
    15    9   18 1   
    16   10   11 ar  
    17   10   19 1   
    18   11   12 ar  
    19   11   20 1   
    20   12   13 ar  
    21   12   21 1   
    22   13   22 1   
@<TRIPOS>SUBSTRUCTURE
     1 56D         1 TEMP              0 ****  ****    0 ROOT
