@<TRIPOS>MOLECULE
56D
   22    22     1     0     0
SMALL
bcc


@<TRIPOS>ATOM
      1 OAL         1.0290   -0.9570    0.5880 o         1 56D     -0.810800
      2 CAI         1.4280    0.1440    0.1280 c         1 56D      0.857600
      3 OAM         1.4590    1.2410    0.7470 o         1 56D     -0.810800
      4 CAH         1.9820    0.1470   -1.3100 c         1 56D      0.476100
      5 OAK         1.3020    0.3330   -2.3230 o         1 56D     -0.582100
      6 CAG         3.4910   -0.0660   -1.3610 c3        1 56D     -0.146400
      7 CAJ         4.1630    1.2540   -1.0220 c3        1 56D     -0.082100
      8 CAD         4.0110   -0.6160   -2.6470 ca        1 56D     -0.041300
      9 CAC         3.7010   -0.0090   -3.8720 ca        1 56D     -0.120000
     10 CAB         4.2170   -0.5190   -5.0620 ca        1 56D     -0.143000
     11 CAA         5.0480   -1.6400   -5.0460 ca        1 56D     -0.153000
     12 CAF         5.3530   -2.2540   -3.8320 ca        1 56D     -0.143000
     13 CAE         4.8380   -1.7470   -2.6410 ca        1 56D     -0.120000
     14 H2          3.7180   -0.8030   -0.5340 hc        1 56D      0.076700
     15 H3          4.0510    1.9760   -1.8650 hc        1 56D      0.040367
     16 H4          5.2510    1.0970   -0.8280 hc        1 56D      0.040367
     17 H5          3.6800    1.6870   -0.1080 hc        1 56D      0.040367
     18 H6          3.0190    0.8560   -3.8820 ha        1 56D      0.142000
     19 H7          3.9610   -0.0400   -6.0170 ha        1 56D      0.114000
     20 H8          5.4540   -2.0400   -5.9840 ha        1 56D      0.110000
     21 H9          6.0000   -3.1430   -3.8140 ha        1 56D      0.114000
     22 H10         5.0750   -2.2430   -1.6880 ha        1 56D      0.142000
@<TRIPOS>BOND
     1    1    2 1   
     2    2    3 1   
     3    2    4 1   
     4    4    5 2   
     5    4    6 1   
     6    6    7 1   
     7    6    8 1   
     8    6   14 1   
     9    7   15 1   
    10    7   16 1   
    11    7   17 1   
    12    8    9 ar  
    13    8   13 ar  
    14    9   10 ar  
    15    9   18 1   
    16   10   11 ar  
    17   10   19 1   
    18   11   12 ar  
    19   11   20 1   
    20   12   13 ar  
    21   12   21 1   
    22   13   22 1   
@<TRIPOS>SUBSTRUCTURE
     1 56D         1 TEMP              0 ****  ****    0 ROOT
