@<TRIPOS>MOLECULE
56G
   58    61     1     0     0
SMALL
bcc


@<TRIPOS>ATOM
      1 C4         -0.0510    0.3350   -0.0440 ca        1 56G      0.689200
      2 C5          1.3620    0.4780   -0.1840 ca        1 56G     -0.411600
      3 C6          2.1650    0.3560    0.9760 ca        1 56G      0.689200
      4 N1          1.6170    0.0910    2.2080 nb        1 56G     -0.798000
      5 N3         -0.6230    0.0980    1.1830 nb        1 56G     -0.756000
      6 CAN        -0.6280    1.4780   -2.1110 c3        1 56G      0.188800
      7 CAL        -1.3630    1.3050   -3.4560 c3        1 56G      0.162800
      8 NBE        -2.7800    1.0170   -3.2950 n3        1 56G     -0.732600
      9 CAC        -3.4580    0.8480   -4.5590 c3        1 56G      0.158100
     10 CAM        -3.0110   -0.0950   -2.3840 c3        1 56G      0.162800
     11 CAO        -2.2830    0.0640   -1.0340 c3        1 56G      0.188800
     12 NBF        -0.8670    0.3650   -1.2030 nh        1 56G     -0.734300
     13 NAT         3.5610    0.6090    0.9140 nu        1 56G     -0.780600
     14 CBA         4.3520   -0.0730   -0.0250 cc        1 56G      0.504200
     15 CAI         5.7920    0.1410   -0.1470 cc        1 56G     -0.308300
     16 CAX         6.1860   -0.6760   -1.2160 cd        1 56G     -0.082600
     17 CAB         7.5230   -0.8710   -1.7980 c3        1 56G     -0.037800
     18 NAU         5.0250   -1.3150   -1.6710 na        1 56G     -0.018600
     19 NAP         3.9380   -0.9820   -0.9770 nd        1 56G     -0.536800
     20 C2          0.2580   -0.0190    2.2220 ca        1 56G      0.888300
     21 OAV        -0.3970   -0.3420    3.4120 os        1 56G     -0.344400
     22 CAZ         0.2980   -0.1050    4.6030 ca        1 56G      0.136100
     23 CAH         0.7140    1.1840    4.9440 ca        1 56G     -0.160000
     24 CAG         0.4290   -1.1940    5.4720 ca        1 56G     -0.154000
     25 CAE         0.9830   -0.9650    6.7290 ca        1 56G     -0.094000
     26 CAF         1.4050    0.3040    7.1060 ca        1 56G     -0.195000
     27 CAY         1.2780    1.4030    6.2170 ca        1 56G      0.084600
     28 NAS         1.7290    2.6590    6.6520 ns        1 56G     -0.469100
     29 CAW         1.6140    3.8780    5.9930 c         1 56G      0.665300
     30 OAD         1.0790    3.9930    4.8740 o         1 56G     -0.588100
     31 CAK         2.1770    5.0580    6.7090 ce        1 56G     -0.245200
     32 CAA         2.0780    6.2810    6.1860 c2        1 56G     -0.126000
     33 H1          1.8230    0.6570   -1.1620 ha        1 56G      0.171000
     34 H2          0.4710    1.5490   -2.3380 h1        1 56G      0.057200
     35 H3         -0.9550    2.4520   -1.6420 h1        1 56G      0.057200
     36 H4         -0.8380    0.5040   -4.0550 h1        1 56G      0.039450
     37 H5         -1.2700    2.2760   -4.0190 h1        1 56G      0.039450
     38 H7         -3.3100    1.7740   -5.1750 h1        1 56G      0.032700
     39 H8         -4.5540    0.7150   -4.3650 h1        1 56G      0.032700
     40 H9         -3.0900   -0.0360   -5.1500 h1        1 56G      0.032700
     41 H10        -2.7110   -1.0810   -2.8450 h1        1 56G      0.039450
     42 H11        -4.1150   -0.1370   -2.1670 h1        1 56G      0.039450
     43 H12        -2.3800   -0.9120   -0.4830 h1        1 56G      0.057200
     44 H13        -2.8000    0.8650   -0.4310 h1        1 56G      0.057200
     45 H14         4.0130    0.6400    1.8120 hn        1 56G      0.429800
     46 H15         6.4050    0.7980    0.4570 ha        1 56G      0.170000
     47 H16         8.2630   -0.2420   -1.2450 hc        1 56G      0.055367
     48 H17         7.5370   -0.5730   -2.8760 hc        1 56G      0.055367
     49 H18         7.8400   -1.9420   -1.7230 hc        1 56G      0.055367
     50 H19         4.9540   -1.9660   -2.4150 hn        1 56G      0.322700
     51 H20         0.5970    2.0020    4.2150 ha        1 56G      0.187000
     52 H21         0.0910   -2.1930    5.1650 ha        1 56G      0.152000
     53 H22         1.0910   -1.8030    7.4350 ha        1 56G      0.135000
     54 H23         1.8420    0.4450    8.1070 ha        1 56G      0.128000
     55 H24         2.1500    2.6690    7.5540 hn        1 56G      0.315500
     56 H25         2.6740    4.8830    7.6750 ha        1 56G      0.130000
     57 H27         1.5840    6.4660    5.2200 ha        1 56G      0.131500
     58 H28         2.4860    7.1660    6.6930 ha        1 56G      0.131500
@<TRIPOS>BOND
     1    1    2 ar  
     2    1    5 ar  
     3    1   12 1   
     4    2    3 ar  
     5    2   33 1   
     6    3    4 ar  
     7    3   13 1   
     8    4   20 ar  
     9    5   20 ar  
    10    6    7 1   
    11    6   12 1   
    12    6   34 1   
    13    6   35 1   
    14    7    8 1   
    15    7   36 1   
    16    7   37 1   
    17    8    9 1   
    18    8   10 1   
    19    9   38 1   
    20    9   39 1   
    21    9   40 1   
    22   10   11 1   
    23   10   41 1   
    24   10   42 1   
    25   11   12 1   
    26   11   43 1   
    27   11   44 1   
    28   13   14 1   
    29   13   45 1   
    30   14   15 1   
    31   14   19 2   
    32   15   16 2   
    33   15   46 1   
    34   16   17 1   
    35   16   18 1   
    36   17   47 1   
    37   17   48 1   
    38   17   49 1   
    39   18   19 1   
    40   18   50 1   
    41   20   21 1   
    42   21   22 1   
    43   22   23 ar  
    44   22   24 ar  
    45   23   27 ar  
    46   23   51 1   
    47   24   25 ar  
    48   24   52 1   
    49   25   26 ar  
    50   25   53 1   
    51   26   27 ar  
    52   26   54 1   
    53   27   28 1   
    54   28   29 1   
    55   28   55 1   
    56   29   30 2   
    57   29   31 1   
    58   31   32 2   
    59   31   56 1   
    60   32   57 1   
    61   32   58 1   
@<TRIPOS>SUBSTRUCTURE
     1 56G         1 TEMP              0 ****  ****    0 ROOT
