@<TRIPOS>MOLECULE
56G
   58    61     1     0     0
SMALL
bcc


@<TRIPOS>ATOM
      1 C4         -0.0520    0.3350   -0.0430 ca        1 56G      0.689200
      2 C5          1.3610    0.4770   -0.1830 ca        1 56G     -0.411600
      3 C6          2.1640    0.3550    0.9770 ca        1 56G      0.689200
      4 N1          1.6160    0.0910    2.2090 nb        1 56G     -0.798000
      5 N3         -0.6240    0.1000    1.1840 nb        1 56G     -0.756000
      6 CAN        -0.6280    1.4790   -2.1110 c3        1 56G      0.188800
      7 CAL        -1.3630    1.3060   -3.4550 c3        1 56G      0.162800
      8 NBE        -2.7810    1.0200   -3.2940 n3        1 56G     -0.732600
      9 CAC        -3.4590    0.8520   -4.5580 c3        1 56G      0.158100
     10 CAM        -3.0130   -0.0910   -2.3820 c3        1 56G      0.162800
     11 CAO        -2.2840    0.0670   -1.0330 c3        1 56G      0.188800
     12 NBF        -0.8680    0.3660   -1.2020 nh        1 56G     -0.734300
     13 NAT         3.5600    0.6060    0.9140 nh        1 56G     -0.780600
     14 CBA         4.3510   -0.0770   -0.0250 cc        1 56G      0.504200
     15 CAI         5.7900    0.1350   -0.1470 cc        1 56G     -0.308300
     16 CAX         6.1840   -0.6840   -1.2160 cd        1 56G     -0.082600
     17 CAB         7.5200   -0.8810   -1.7980 c3        1 56G     -0.037800
     18 NAU         5.0210   -1.3210   -1.6700 na        1 56G     -0.018600
     19 NAP         3.9350   -0.9870   -0.9770 nd        1 56G     -0.536800
     20 C2          0.2570   -0.0180    2.2230 ca        1 56G      0.888300
     21 OAV        -0.3970   -0.3400    3.4140 os        1 56G     -0.344400
     22 CAZ         0.2980   -0.1030    4.6040 ca        1 56G      0.136100
     23 CAH         0.7150    1.1860    4.9440 ca        1 56G     -0.160000
     24 CAG         0.4260   -1.1910    5.4740 ca        1 56G     -0.154000
     25 CAE         0.9810   -0.9610    6.7310 ca        1 56G     -0.094000
     26 CAF         1.4050    0.3070    7.1070 ca        1 56G     -0.195000
     27 CAY         1.2800    1.4050    6.2170 ca        1 56G      0.084600
     28 NAS         1.7330    2.6610    6.6500 n         1 56G     -0.469100
     29 CAW         1.6190    3.8800    5.9900 c         1 56G      0.665300
     30 OAD         1.0840    3.9940    4.8710 o         1 56G     -0.588100
     31 CAK         2.1840    5.0600    6.7040 ce        1 56G     -0.245200
     32 CAA         2.0860    6.2830    6.1810 c2        1 56G     -0.126000
     33 H1          1.8230    0.6550   -1.1620 ha        1 56G      0.171000
     34 H2          0.4710    1.5480   -2.3380 h1        1 56G      0.057200
     35 H3         -0.9530    2.4530   -1.6410 h1        1 56G      0.057200
     36 H4         -0.8390    0.5050   -4.0540 h1        1 56G      0.039450
     37 H5         -1.2690    2.2770   -4.0180 h1        1 56G      0.039450
     38 H7         -3.0930   -0.0330   -5.1490 h1        1 56G      0.032700
     39 H8         -3.3100    1.7770   -5.1730 h1        1 56G      0.032700
     40 H9         -4.5560    0.7200   -4.3630 h1        1 56G      0.032700
     41 H10        -4.1170   -0.1320   -2.1650 h1        1 56G      0.039450
     42 H11        -2.7140   -1.0780   -2.8440 h1        1 56G      0.039450
     43 H12        -2.8000    0.8690   -0.4300 h1        1 56G      0.057200
     44 H13        -2.3820   -0.9090   -0.4810 h1        1 56G      0.057200
     45 H14         4.0130    0.6360    1.8120 hn        1 56G      0.429800
     46 H15         6.4040    0.7910    0.4560 ha        1 56G      0.170000
     47 H16         7.8350   -1.9520   -1.7240 hc        1 56G      0.055367
     48 H17         7.5350   -0.5810   -2.8760 hc        1 56G      0.055367
     49 H18         8.2620   -0.2530   -1.2440 hc        1 56G      0.055367
     50 H19         4.9500   -1.9730   -2.4140 hn        1 56G      0.322700
     51 H20         0.6000    2.0040    4.2140 ha        1 56G      0.187000
     52 H21         0.0870   -2.1890    5.1680 ha        1 56G      0.152000
     53 H22         1.0880   -1.7990    7.4380 ha        1 56G      0.135000
     54 H23         1.8420    0.4480    8.1070 ha        1 56G      0.128000
     55 H24         2.1530    2.6720    7.5520 hn        1 56G      0.315500
     56 H25         2.6830    4.8840    7.6700 ha        1 56G      0.130000
     57 H27         1.5910    6.4670    5.2150 ha        1 56G      0.131500
     58 H28         2.4950    7.1680    6.6870 ha        1 56G      0.131500
@<TRIPOS>BOND
     1    1    2 ar  
     2    1    5 ar  
     3    1   12 1   
     4    2    3 ar  
     5    2   33 1   
     6    3    4 ar  
     7    3   13 1   
     8    4   20 ar  
     9    5   20 ar  
    10    6    7 1   
    11    6   12 1   
    12    6   34 1   
    13    6   35 1   
    14    7    8 1   
    15    7   36 1   
    16    7   37 1   
    17    8    9 1   
    18    8   10 1   
    19    9   38 1   
    20    9   39 1   
    21    9   40 1   
    22   10   11 1   
    23   10   41 1   
    24   10   42 1   
    25   11   12 1   
    26   11   43 1   
    27   11   44 1   
    28   13   14 1   
    29   13   45 1   
    30   14   15 1   
    31   14   19 2   
    32   15   16 2   
    33   15   46 1   
    34   16   17 1   
    35   16   18 1   
    36   17   47 1   
    37   17   48 1   
    38   17   49 1   
    39   18   19 1   
    40   18   50 1   
    41   20   21 1   
    42   21   22 1   
    43   22   23 ar  
    44   22   24 ar  
    45   23   27 ar  
    46   23   51 1   
    47   24   25 ar  
    48   24   52 1   
    49   25   26 ar  
    50   25   53 1   
    51   26   27 ar  
    52   26   54 1   
    53   27   28 1   
    54   28   29 1   
    55   28   55 1   
    56   29   30 2   
    57   29   31 1   
    58   31   32 2   
    59   31   56 1   
    60   32   57 1   
    61   32   58 1   
@<TRIPOS>SUBSTRUCTURE
     1 56G         1 TEMP              0 ****  ****    0 ROOT
