@<TRIPOS>MOLECULE
56H
   49    63     1     0     0
SMALL
bcc


@<TRIPOS>ATOM
      1 C18         0.0000    0.0000    0.0000 c3        1 56H      0.444000
      2 C15        -2.0670   -0.0010   -1.1660 c3        1 56H      0.028000
      3 C19         1.5070    0.0000    0.0000 DU        1 56H     -0.193000
      4 C21         2.0190    0.0000    1.4430 c3        1 56H     -0.500000
      5 C22         2.0180    1.2550   -0.7140 c3        1 56H     -0.127000
      6 C23         3.5490    0.0610    1.4360 c3        1 56H     -0.160000
      7 C24         3.5470    1.2810   -0.6580 DU        1 56H     -0.209000
      8 C11       -11.6360   -1.3130   -5.2000 c3        1 56H     -0.354000
      9 C12       -10.5760   -1.3140   -7.4620 c3        1 56H     -0.354000
     10 C1         -7.3790   -0.0290   -4.5860 DU        1 56H     -0.101000
     11 O2         -8.0810   -1.1210   -4.9160 os        1 56H     -0.021000
     12 N3         -8.0730    1.0270   -4.9050 n7        1 56H     -0.009000
     13 C4         -6.0140   -0.0220   -3.9470 c3        1 56H     -0.261000
     14 C5         -9.2440   -0.7130   -5.4590 c2        1 56H     -0.355000
     15 C6         -9.2380    0.6300   -5.4460 c2        1 56H     -0.162000
     16 C8        -10.3490   -1.5980   -5.9770 DU        1 56H      0.309000
     17 C9         -4.5220   -0.0120   -1.5790 c3        1 56H     -0.495000
     18 C10        -9.9560   -3.0660   -5.7920 c3        1 56H     -0.401000
     19 S13        -3.0870   -0.0070   -2.6020 ss        1 56H      0.324000
     20 C14        -4.1240   -0.0030   -0.2990 c2        1 56H     -0.064000
     21 N16        -2.8170   -0.0020   -0.1080 n2        1 56H     -0.141000
     22 N17        -0.6740   -0.0000   -1.1670 n7        1 56H     -0.424000
     23 O20        -0.6060   -0.0070    1.0510 o         1 56H     -0.255000
     24 N25         3.9870    1.2800    0.7430 ny        1 56H     -0.099000
     25 H1          0.4760   -0.0610   -0.3290 DU        1 56H      0.180000
     26 H2          1.9470   -0.4460    0.4580 DU        1 56H      0.259000
     27 H3          1.6260    0.8640    1.9650 hc        1 56H      0.110000
     28 H4          1.9160    0.5730    0.1220 DU        1 56H     -0.020000
     29 H5          1.6240    2.1350   -0.2210 hc        1 56H      0.092000
     30 H6          3.0300    0.3910    0.5440 hx        1 56H      0.073000
     31 H7          3.9120    0.0770    2.4560 hx        1 56H      0.073000
     32 H8          3.7090    0.4250   -0.0130 DU        1 56H      0.123000
     33 H9          3.9400    0.4050   -1.1590 hx        1 56H      0.101000
     34 H10       -10.6120   -1.0830   -4.9330 DU        1 56H      0.119000
     35 H11       -11.9930   -0.3200   -5.4440 hc        1 56H      0.110250
     36 H12       -11.4380   -1.3750   -4.1370 hc        1 56H      0.110250
     37 H13       -11.2810   -1.5990   -6.6900 DU        1 56H      0.119000
     38 H14       -11.0080   -0.3280   -7.5800 hc        1 56H      0.110250
     39 H15       -11.2520   -2.0550   -7.8720 hc        1 56H      0.110250
     40 H16        -6.7140   -0.2810   -4.7320 DU        1 56H      0.181000
     41 H17        -5.5950    0.9750   -4.0100 h1        1 56H      0.146000
     42 H18        -8.2420    0.2830   -5.1970 DU        1 56H      0.288000
     43 H19        -9.9740   -1.9820   -5.7980 hc        1 56H      0.125000
     44 H20        -9.7550   -3.2570   -4.7450 hc        1 56H      0.125000
     45 H21       -10.7670   -3.7010   -6.1270 hc        1 56H      0.125000
     46 H22        -4.7540   -0.4210   -1.0750 DU        1 56H      0.253000
     47 H23        -1.6010   -0.0010   -0.7890 DU        1 56H      0.297000
     48 H24         3.1820    1.0240    0.2060 DU        1 56H      0.123000
     49 S7         -6.1920   -0.0200   -2.1420 ss        1 56H      0.250000
@<TRIPOS>BOND
     1    1    3 1   
     2    1   22 1   
     3    1   23 1   
     4    1   25 1   
     5    2   19 1   
     6    2   21 1   
     7    2   22 1   
     8    2   47 1   
     9    3    4 1   
    10    3    5 1   
    11    3   25 1   
    12    3   26 1   
    13    3   28 1   
    14    4    6 1   
    15    4   26 1   
    16    4   27 1   
    17    5    7 1   
    18    5   28 1   
    19    5   29 1   
    20    6   24 1   
    21    6   30 1   
    22    6   31 1   
    23    7   24 1   
    24    7   32 1   
    25    7   33 1   
    26    7   48 1   
    27    8   16 1   
    28    8   34 1   
    29    8   35 1   
    30    8   36 1   
    31    9   16 1   
    32    9   37 1   
    33    9   38 1   
    34    9   39 1   
    35   10   11 1   
    36   10   12 1   
    37   10   13 1   
    38   10   40 1   
    39   10   42 1   
    40   11   14 1   
    41   12   15 1   
    42   12   42 1   
    43   13   40 1   
    44   13   41 1   
    45   13   49 1   
    46   14   15 1   
    47   14   16 1   
    48   15   42 1   
    49   16   18 1   
    50   16   34 1   
    51   16   37 1   
    52   17   19 1   
    53   17   20 1   
    54   17   46 1   
    55   17   49 1   
    56   18   43 1   
    57   18   44 1   
    58   18   45 1   
    59   20   21 1   
    60   20   46 1   
    61   22   47 1   
    62   24   32 1   
    63   24   48 1   
@<TRIPOS>SUBSTRUCTURE
     1 56H         1 TEMP              0 ****  ****    0 ROOT
