@<TRIPOS>MOLECULE
56N
   34    35     1     0     0
SMALL
bcc


@<TRIPOS>ATOM
      1 O2          0.1790   -0.0030   -0.0490 oh        1 56N     -0.604800
      2 O3          1.6150   -1.2640    2.0790 oh        1 56N     -0.605800
      3 O4          4.1710   -1.0480    1.1250 oh        1 56N     -0.589800
      4 O5          3.5680    1.3590   -0.4860 os        1 56N     -0.431600
      5 C1          2.1560    1.2990   -0.6220 c3        1 56N      0.309900
      6 C2          1.5930    0.0090    0.0080 c3        1 56N      0.084100
      7 C3          1.9800   -0.0260    1.4930 c3        1 56N      0.112100
      8 C4          3.5080    0.0940    1.6370 c3        1 56N      0.124100
      9 C5          4.0070    1.3290    0.8740 c3        1 56N      0.108100
     10 C6          5.5380    1.3610    0.7990 c3        1 56N      0.143400
     11 O6          5.9800    2.5390    0.1620 oh        1 56N     -0.600800
     12 O1'         1.9800    1.1670   -2.0220 os        1 56N     -0.329900
     13 C1'         2.0410    2.3400   -2.7650 ca        1 56N      0.114100
     14 C2'         1.3210    2.3170   -3.9720 ca        1 56N     -0.163500
     15 C3'         1.3670    3.4320   -4.8030 ca        1 56N     -0.104500
     16 C4'         2.1100    4.5570   -4.4390 ca        1 56N     -0.152000
     17 C5'         2.8220    4.5660   -3.2410 ca        1 56N     -0.104500
     18 C6'         2.7970    3.4570   -2.3960 ca        1 56N     -0.163500
     19 H1         -0.0590    0.0060   -0.9860 ho        1 56N      0.426000
     20 H2          0.6840   -1.4090    1.8650 ho        1 56N      0.431000
     21 H3          3.7300   -1.8200    1.5070 ho        1 56N      0.426000
     22 H4          1.6690    2.2250   -0.2120 h2        1 56N      0.062700
     23 H5          2.0210   -0.8870   -0.5230 h1        1 56N      0.088700
     24 H6          1.4700    0.8140    2.0400 h1        1 56N      0.058700
     25 H7          3.7610    0.2070    2.7290 h1        1 56N      0.058700
     26 H8          3.6190    2.2500    1.3950 h1        1 56N      0.052700
     27 H9          5.9070    0.4480    0.2620 h1        1 56N      0.068700
     28 H10         5.9640    1.4030    1.8360 h1        1 56N      0.068700
     29 H11         5.6530    2.5080   -0.7480 ho        1 56N      0.415000
     30 H12         0.7450    1.4230   -4.2480 ha        1 56N      0.148000
     31 H13         0.8120    3.4240   -5.7530 ha        1 56N      0.135500
     32 H14         2.1360    5.4340   -5.1010 ha        1 56N      0.135000
     33 H15         3.4130    5.4490   -2.9580 ha        1 56N      0.135500
     34 H16         3.3800    3.4500   -1.4610 ha        1 56N      0.148000
@<TRIPOS>BOND
     1    1    6 1   
     2    1   19 1   
     3    2    7 1   
     4    2   20 1   
     5    3    8 1   
     6    3   21 1   
     7    4    5 1   
     8    4    9 1   
     9    5    6 1   
    10    5   12 1   
    11    5   22 1   
    12    6    7 1   
    13    6   23 1   
    14    7    8 1   
    15    7   24 1   
    16    8    9 1   
    17    8   25 1   
    18    9   10 1   
    19    9   26 1   
    20   10   11 1   
    21   10   27 1   
    22   10   28 1   
    23   11   29 1   
    24   12   13 1   
    25   13   14 ar  
    26   13   18 ar  
    27   14   15 ar  
    28   14   30 1   
    29   15   16 ar  
    30   15   31 1   
    31   16   17 ar  
    32   16   32 1   
    33   17   18 ar  
    34   17   33 1   
    35   18   34 1   
@<TRIPOS>SUBSTRUCTURE
     1 56N         1 TEMP              0 ****  ****    0 ROOT
