@<TRIPOS>MOLECULE
56P
   54    53     1     0     0
SMALL
bcc


@<TRIPOS>ATOM
      1 C1        -77.1030   93.8120  221.9620 c3        1 56P      0.209500
      2 C2        -77.8090   93.6590  220.5690 c         1 56P      0.460100
      3 C20       -77.7040   89.3820  224.1280 c3        1 56P     -0.078400
      4 O5        -78.9510   94.8830  218.7930 oh        1 56P     -0.354300
      5 N6        -76.5830   92.5910  222.4480 n3        1 56P     -0.840200
      6 C10       173.1010 -189.1450 -487.8300 ca        1 56P     -0.666500
      7 C11       173.1360 -190.4510 -487.2530 ca        1 56P      0.048000
      8 C12       174.0650 -191.4030 -487.6200 ca        1 56P     -0.123300
      9 C13       175.0300 -191.0660 -488.6170 ca        1 56P      0.314900
     10 C14       175.0220 -189.7760 -489.2100 ca        1 56P     -0.195000
     11 C15       174.0830 -188.8510 -488.8220 ca        1 56P      0.062000
     12 C19       -76.7300   90.3530  223.4920 c3        1 56P     -0.087400
     13 C18       -77.4790   91.5810  222.9700 c3        1 56P      0.177800
     14 C28       -78.1200   94.5010  222.8750 c3        1 56P     -0.125100
     15 N4        -78.0300   94.9660  219.7800 n4        1 56P     -0.471300
     16 O3        -78.2160   92.6570  220.0140 o         1 56P     -0.411100
     17 S7        172.0540 -188.1090 -487.4010 s4        1 56P      1.663300
     18 O8        172.0760 -186.8910 -487.9850 o         1 56P     -0.392400
     19 O9        171.1530 -188.4530 -486.4560 o         1 56P     -0.392400
     20 F16       175.9440 -191.9620 -488.9960 f         1 56P     -0.058900
     21 C17       174.0810 -192.7510 -487.0070 c3        1 56P     -0.076800
     22 H1        -76.2230   94.5070  221.7850 h1        1 56P      0.102700
     23 H2        -78.2600   89.8920  224.9590 hc        1 56P      0.055200
     24 H3        -78.4620   89.0510  223.3700 hc        1 56P      0.055200
     25 H5        -78.9230   93.9760  218.3990 ho        1 56P      0.483000
     26 H6        172.3830 -190.7070 -486.4790 ha        1 56P      0.184000
     27 H7        175.7770 -189.5340 -489.9800 ha        1 56P      0.203000
     28 H8        174.0850 -187.8450 -489.2910 ha        1 56P      0.185000
     29 H9        -76.1880   89.8470  222.6500 hc        1 56P      0.063200
     30 H10       -75.9630   90.6660  224.2490 hc        1 56P      0.063200
     31 H11       -78.0640   92.0430  223.8170 h1        1 56P      0.052700
     32 H12       -78.2160   91.2520  222.1780 h1        1 56P      0.052700
     33 H13       -79.1030   93.9720  222.8710 hc        1 56P      0.079033
     34 H14       -77.7300   94.5120  223.9260 hc        1 56P      0.079033
     35 H15       -78.2670   95.5610  222.5570 hc        1 56P      0.079033
     36 H16       -78.3850   95.7010  220.4250 hn        1 56P      0.479800
     37 H17       175.0680 -192.9350 -486.5080 hc        1 56P      0.082033
     38 H18       173.2710 -192.8680 -486.2470 hc        1 56P      0.082033
     39 H19       173.9440 -193.5340 -487.7970 hc        1 56P      0.082033
     40 C21       -76.9670   88.1740  224.6750 c3        1 56P     -0.079400
     41 C22       -77.9300   87.2110  225.3450 c3        1 56P     -0.109400
     42 C23       -77.1480   86.0210  225.8910 c3        1 56P      0.098800
     43 N24       -78.0150   85.0200  226.5800 n4        1 56P     -0.838600
     44 H4        -76.4290   87.6530  223.8390 hc        1 56P      0.062200
     45 H20       -76.1940   88.5120  225.4160 hc        1 56P      0.062200
     46 H21       -78.6960   86.8680  224.5990 hc        1 56P      0.071700
     47 H22       -78.4700   87.7390  226.1750 hc        1 56P      0.071700
     48 H23       -76.3770   86.3750  226.6360 hx        1 56P      0.116700
     49 H24       -76.6160   85.4890  225.0480 hx        1 56P      0.116700
     50 H25       -78.7180   84.6520  225.9300 hn        1 56P      0.465467
     51 H26       -78.5010   85.4560  227.3710 hn        1 56P      0.465467
     52 H61       -75.8110   92.2270  221.9280 hn        1 56P      0.423800
     53 H42       -77.1310   95.2890  219.3760 hn        1 56P      0.479800
     54 H243      -77.4440   84.2420  226.9280 hn        1 56P      0.465467
@<TRIPOS>BOND
     1    1    2 1   
     2    1    5 1   
     3    1   14 1   
     4    1   22 1   
     5    2   15 1   
     6    2   16 2   
     7    3   12 1   
     8    3   23 1   
     9    3   24 1   
    10    3   40 1   
    11    4   15 1   
    12    4   25 1   
    13    5   13 1   
    14    5   52 1   
    15    6    7 ar  
    16    6   11 ar  
    17    6   17 1   
    18    7    8 ar  
    19    7   26 1   
    20    8    9 ar  
    21    8   21 1   
    22    9   10 ar  
    23    9   20 1   
    24   10   11 ar  
    25   10   27 1   
    26   11   28 1   
    27   12   13 1   
    28   12   29 1   
    29   12   30 1   
    30   13   31 1   
    31   13   32 1   
    32   14   33 1   
    33   14   34 1   
    34   14   35 1   
    35   15   36 1   
    36   15   53 1   
    37   17   18 1   
    38   17   19 1   
    39   21   37 1   
    40   21   38 1   
    41   21   39 1   
    42   40   41 1   
    43   40   44 1   
    44   40   45 1   
    45   41   42 1   
    46   41   46 1   
    47   41   47 1   
    48   42   43 1   
    49   42   48 1   
    50   42   49 1   
    51   43   50 1   
    52   43   51 1   
    53   43   54 1   
@<TRIPOS>SUBSTRUCTURE
     1 56P         1 TEMP              0 ****  ****    0 ROOT
