@<TRIPOS>MOLECULE
56Q
   36    35     1     0     0
SMALL
bcc


@<TRIPOS>ATOM
      1 C1          0.7280    0.3840    0.5630 c3        1 56Q      0.127500
      2 C2          2.0640    0.0950    1.2480 c         1 56Q      0.569100
      3 O5          1.4570   -2.1710    1.4530 oh        1 56Q     -0.367300
      4 N6          0.8860    1.4360   -0.4520 n7        1 56Q     -0.906200
      5 C10         2.0200    0.8800   -3.4820 ca        1 56Q     -0.674500
      6 C11         1.4690   -0.3380   -3.9890 ca        1 56Q      0.035000
      7 C12         0.8430   -0.4260   -5.2130 ca        1 56Q     -0.116300
      8 C13         0.7350    0.7570   -6.0140 ca        1 56Q      0.333900
      9 C14         1.2680    1.9850   -5.5400 ca        1 56Q     -0.190000
     10 C15         1.8880    2.0370   -4.3160 ca        1 56Q      0.060000
     11 C18         1.1340    2.7670    0.0820 c3        1 56Q      0.083100
     12 C28        -0.2750    0.6670    1.6840 c3        1 56Q     -0.139100
     13 N4          2.5340   -1.3810    1.2470 ny        1 56Q     -0.463300
     14 O3          2.8310    0.8420    1.8180 o         1 56Q     -0.367100
     15 S7          2.7660    0.9560   -2.1530 s4        1 56Q      1.714300
     16 O8          3.3740    2.1050   -1.7840 o         1 56Q     -0.461400
     17 O9          2.9360   -0.1860   -1.4130 o         1 56Q     -0.461400
     18 F16         0.1380    0.7080   -7.2020 f         1 56Q     -0.038900
     19 C17         0.2940   -1.7030   -5.7230 c3        1 56Q     -0.081800
     20 H1          0.3860   -0.5480    0.0110 h1        1 56Q      0.109700
     21 H2          1.7570   -3.0540    1.7790 ho        1 56Q      0.491000
     22 H3          1.5640   -1.2530   -3.3720 ha        1 56Q      0.166000
     23 H4          1.1810    2.8900   -6.1730 ha        1 56Q      0.215000
     24 H5          2.3110    3.0010   -3.9650 ha        1 56Q      0.188000
     25 H6          1.2650    3.4740   -0.7820 h1        1 56Q      0.087700
     26 H7          0.2930    3.1450    0.7260 h1        1 56Q      0.087700
     27 H8          2.0790    2.7690    0.6900 h1        1 56Q      0.087700
     28 H9          0.0560    1.5200    2.3260 hc        1 56Q      0.092033
     29 H10        -0.3870   -0.2460    2.3210 hc        1 56Q      0.092033
     30 H11        -1.2740    0.9140    1.2450 hc        1 56Q      0.092033
     31 H12         3.2600   -1.5050    1.9790 hn        1 56Q      0.484300
     32 H13         0.8340   -2.0060   -6.6580 hc        1 56Q      0.087033
     33 H14         0.3960   -2.5250   -4.9730 hc        1 56Q      0.087033
     34 H15        -0.7910   -1.5840   -5.9790 hc        1 56Q      0.087033
     35 H61         0.0170    1.4560   -0.9730 hn        1 56Q      0.407800
     36 H42         2.9460   -1.5840    0.3110 hn        1 56Q      0.484300
@<TRIPOS>BOND
     1    1    2 1   
     2    1    4 1   
     3    1   12 1   
     4    1   20 1   
     5    2   13 1   
     6    2   14 2   
     7    3   13 1   
     8    3   21 1   
     9    4   11 1   
    10    4   35 1   
    11    5    6 ar  
    12    5   10 ar  
    13    5   15 1   
    14    6    7 ar  
    15    6   22 1   
    16    7    8 ar  
    17    7   19 1   
    18    8    9 ar  
    19    8   18 1   
    20    9   10 ar  
    21    9   23 1   
    22   10   24 1   
    23   11   25 1   
    24   11   26 1   
    25   11   27 1   
    26   12   28 1   
    27   12   29 1   
    28   12   30 1   
    29   13   31 1   
    30   13   36 1   
    31   15   16 1   
    32   15   17 1   
    33   19   32 1   
    34   19   33 1   
    35   19   34 1   
@<TRIPOS>SUBSTRUCTURE
     1 56Q         1 TEMP              0 ****  ****    0 ROOT
