@<TRIPOS>MOLECULE
56Q
   36    35     1     0     0
SMALL
bcc


@<TRIPOS>ATOM
      1 C1          0.6180    0.0710    0.7120 c3        1 56Q      0.126500
      2 C2          2.0130   -0.1750    1.2930 c         1 56Q      0.536100
      3 O5          3.1660   -1.2480    3.1280 oh        1 56Q     -0.338300
      4 N6          0.6660    1.1060   -0.3270 n3        1 56Q     -0.874200
      5 C10         1.9630    0.8990   -3.7850 ca        1 56Q     -0.678500
      6 C11         1.4940   -0.2700   -4.4630 ca        1 56Q      0.039000
      7 C12         0.9780   -0.2390   -5.7400 ca        1 56Q     -0.119300
      8 C13         0.9030    1.0190   -6.4180 ca        1 56Q      0.330900
      9 C14         1.3560    2.2010   -5.7730 ca        1 56Q     -0.192000
     10 C15         1.8690    2.1340   -4.5010 ca        1 56Q      0.060000
     11 C18         0.9380    2.4450    0.1650 c3        1 56Q      0.086100
     12 C28        -0.3570    0.3280    1.8630 c3        1 56Q     -0.161100
     13 N4          2.1030   -1.3350    2.2960 n4        1 56Q     -0.462300
     14 O3          3.0680    0.3920    1.0850 o         1 56Q     -0.386100
     15 S7          2.5790    0.8350   -2.3900 s4        1 56Q      1.694300
     16 O8          3.0660    1.9670   -1.8330 o         1 56Q     -0.430900
     17 O9          2.6750   -0.3690   -1.7650 o         1 56Q     -0.430900
     18 F16         0.4100    1.0870   -7.6530 f         1 56Q     -0.041900
     19 C17         0.5120   -1.4660   -6.4260 c3        1 56Q     -0.080800
     20 H1          0.3210   -0.8900    0.1830 h1        1 56Q      0.111700
     21 H2          3.9620   -0.9540    2.6180 ho        1 56Q      0.490000
     22 H3          1.5630   -1.2440   -3.9380 ha        1 56Q      0.174000
     23 H4          1.2960    3.1660   -6.3140 ha        1 56Q      0.212000
     24 H5          2.2300    3.0630   -4.0130 ha        1 56Q      0.186000
     25 H6          2.0030    2.5010    0.5210 h1        1 56Q      0.080700
     26 H7          0.8150    3.1690   -0.6860 h1        1 56Q      0.080700
     27 H8          0.2550    2.7640    0.9970 h1        1 56Q      0.080700
     28 H9         -1.3060    0.7790    1.4720 hc        1 56Q      0.088033
     29 H10         0.0670    1.0360    2.6170 hc        1 56Q      0.088033
     30 H11        -0.6380   -0.6300    2.3650 hc        1 56Q      0.088033
     31 H12         2.1320   -2.2400    1.7880 hn        1 56Q      0.492300
     32 H13        -0.5510   -1.3430   -6.7600 hc        1 56Q      0.086367
     33 H14         0.5760   -2.3610   -5.7600 hc        1 56Q      0.086367
     34 H15         1.1370   -1.6570   -7.3380 hc        1 56Q      0.086367
     35 H61        -0.2410    1.0940   -0.7750 hn        1 56Q      0.400800
     36 H42         1.2700   -1.3290    2.9250 hn        1 56Q      0.492300
@<TRIPOS>BOND
     1    1    2 1   
     2    1    4 1   
     3    1   12 1   
     4    1   20 1   
     5    2   13 1   
     6    2   14 2   
     7    3   13 1   
     8    3   21 1   
     9    4   11 1   
    10    4   35 1   
    11    5    6 ar  
    12    5   10 ar  
    13    5   15 1   
    14    6    7 ar  
    15    6   22 1   
    16    7    8 ar  
    17    7   19 1   
    18    8    9 ar  
    19    8   18 1   
    20    9   10 ar  
    21    9   23 1   
    22   10   24 1   
    23   11   25 1   
    24   11   26 1   
    25   11   27 1   
    26   12   28 1   
    27   12   29 1   
    28   12   30 1   
    29   13   31 1   
    30   13   36 1   
    31   15   16 1   
    32   15   17 1   
    33   19   32 1   
    34   19   33 1   
    35   19   34 1   
@<TRIPOS>SUBSTRUCTURE
     1 56Q         1 TEMP              0 ****  ****    0 ROOT
