@<TRIPOS>MOLECULE
56R
   52    52     1     0     0
SMALL
bcc


@<TRIPOS>ATOM
      1 C1       -120.0630  514.7680  671.9140 c3        1 56R      0.197500
      2 C2       -119.9840  516.3050  672.1470 c         1 56R      0.512100
      3 C3       -115.7420  510.2600  675.6110 c3        1 56R      0.168100
      4 O5       -122.1300  516.6580  671.2430 oh        1 56R     -0.363300
      5 N6       -119.5600  514.0170  673.0120 n3        1 56R     -0.836200
      6 C10       246.0820-1052.0090-1394.1980 ca        1 56R     -0.666500
      7 C11       245.4980-1052.4400-1392.9690 ca        1 56R      0.048000
      8 C12       245.7620-1053.6750-1392.4120 ca        1 56R     -0.123300
      9 C13       246.6560-1054.5540-1393.0950 ca        1 56R      0.314900
     10 C14       247.2530-1054.1560-1394.3190 ca        1 56R     -0.195000
     11 C15       246.9690-1052.9190-1394.8480 ca        1 56R      0.062000
     12 C19      -117.7480  513.2740  674.5020 ca        1 56R     -0.094300
     13 C20      -118.0690  513.8490  675.7360 ca        1 56R     -0.079000
     14 C21      -117.6580  513.2420  676.9240 ca        1 56R     -0.102000
     15 C22      -116.9160  512.0630  676.8840 ca        1 56R     -0.096000
     16 C24      -117.0240  512.0780  674.4600 ca        1 56R     -0.068000
     17 C23      -116.6000  511.4780  675.6510 ca        1 56R     -0.182300
     18 C18      -118.1280  513.9680  673.2250 c3        1 56R      0.215100
     19 C28      -119.3780  514.4950  670.5740 c3        1 56R     -0.120100
     20 N4       -120.8880  517.1880  671.2230 n4        1 56R     -0.474300
     21 O3       -119.3430  516.9580  672.9420 o         1 56R     -0.398100
     22 S7        245.7680-1050.6300-1394.7920 s4        1 56R      1.663300
     23 O8        246.3530-1050.2820-1395.9580 o         1 56R     -0.392400
     24 O9        244.9190-1049.8170-1394.1260 o         1 56R     -0.392400
     25 F16       246.9340-1055.7560-1392.5850 f         1 56R     -0.058900
     26 C17       245.1450-1054.1010-1391.1340 c3        1 56R     -0.076800
     27 N5       -116.4650  509.0470  676.1160 n4        1 56R     -0.842600
     28 H1       -121.1730  514.5310  671.8240 h1        1 56R      0.127700
     29 H2       -115.3990  510.0370  674.5580 hx        1 56R      0.120200
     30 H3       -114.8310  510.4040  676.2650 hx        1 56R      0.120200
     31 H4       -122.7570  517.2770  670.7990 ho        1 56R      0.482000
     32 H5        244.8050-1051.7520-1392.4430 ha        1 56R      0.184000
     33 H6        247.9420-1054.8500-1394.8330 ha        1 56R      0.203000
     34 H7        247.4400-1052.6160-1395.8050 ha        1 56R      0.185000
     35 H8       -118.6310  514.7970  675.7770 ha        1 56R      0.153000
     36 H9       -117.9060  513.7050  677.8940 ha        1 56R      0.174000
     37 H10      -116.5620  511.6130  677.8260 ha        1 56R      0.146000
     38 H11      -116.7700  511.6240  673.4890 ha        1 56R      0.149000
     39 H12      -117.6860  515.0120  673.2520 h1        1 56R      0.065200
     40 H13      -117.6730  513.4270  672.3440 h1        1 56R      0.065200
     41 H14      -119.9660  514.9600  669.7460 hc        1 56R      0.076033
     42 H15      -118.3330  514.8880  670.5560 hc        1 56R      0.076033
     43 H16      -119.3430  513.3900  670.3910 hc        1 56R      0.076033
     44 H17      -120.5030  517.1660  670.2630 hn        1 56R      0.463300
     45 H18       244.5470-1055.0360-1391.2900 hc        1 56R      0.082033
     46 H19       244.4710-1053.3120-1390.7200 hc        1 56R      0.082033
     47 H20       245.9410-1054.3240-1390.3780 hc        1 56R      0.082033
     48 H21      -117.2640  508.8320  675.5120 hn        1 56R      0.463467
     49 H22      -116.8160  509.2200  677.0650 hn        1 56R      0.463467
     50 H61      -120.0940  514.1170  673.8520 hn        1 56R      0.418800
     51 H42      -120.8840  518.1660  671.5710 hn        1 56R      0.463300
     52 H53      -115.8310  508.2410  676.1340 hn        1 56R      0.463467
@<TRIPOS>BOND
     1    1    2 1   
     2    1    5 1   
     3    1   19 1   
     4    1   28 1   
     5    2   20 1   
     6    2   21 2   
     7    3   17 1   
     8    3   27 1   
     9    3   29 1   
    10    3   30 1   
    11    4   20 1   
    12    4   31 1   
    13    5   18 1   
    14    5   50 1   
    15    6    7 ar  
    16    6   11 ar  
    17    6   22 1   
    18    7    8 ar  
    19    7   32 1   
    20    8    9 ar  
    21    8   26 1   
    22    9   10 ar  
    23    9   25 1   
    24   10   11 ar  
    25   10   33 1   
    26   11   34 1   
    27   12   13 ar  
    28   12   16 ar  
    29   12   18 1   
    30   13   14 ar  
    31   13   35 1   
    32   14   15 ar  
    33   14   36 1   
    34   15   17 ar  
    35   15   37 1   
    36   16   17 ar  
    37   16   38 1   
    38   18   39 1   
    39   18   40 1   
    40   19   41 1   
    41   19   42 1   
    42   19   43 1   
    43   20   44 1   
    44   20   51 1   
    45   22   23 1   
    46   22   24 1   
    47   26   45 1   
    48   26   46 1   
    49   26   47 1   
    50   27   48 1   
    51   27   49 1   
    52   27   52 1   
@<TRIPOS>SUBSTRUCTURE
     1 56R         1 TEMP              0 ****  ****    0 ROOT
