@<TRIPOS>MOLECULE
56R
   52    52     1     0     0
SMALL
bcc


@<TRIPOS>ATOM
      1 C1        -31.2990   87.5890  136.1410 c3        1 56R      0.205500
      2 C2        -31.4520   88.1810  137.5740 c         1 56R      0.513100
      3 C3        -25.9870   92.1760  133.9600 c3        1 56R      0.169100
      4 O5        -31.9980   86.0900  138.5080 oh        1 56R     -0.363300
      5 N6        -30.1160   88.0220  135.4910 n7        1 56R     -0.846200
      6 C10        63.1720 -180.5680 -285.3040 ca        1 56R     -0.666500
      7 C11        63.2440 -179.4690 -284.3950 ca        1 56R      0.048000
      8 C12        62.4260 -179.3630 -283.2890 ca        1 56R     -0.123300
      9 C13        61.4700 -180.3950 -283.0460 ca        1 56R      0.314900
     10 C14        61.3730 -181.5010 -283.9300 ca        1 56R     -0.195000
     11 C15        62.2030 -181.5770 -285.0230 ca        1 56R      0.062000
     12 C19       -28.7720   89.6180  134.1960 ca        1 56R     -0.102300
     13 C20       -28.4050   88.7310  133.1760 ca        1 56R     -0.061000
     14 C21       -27.2590   88.9710  132.4160 ca        1 56R     -0.107000
     15 C22       -26.4790   90.0970  132.6630 ca        1 56R     -0.098000
     16 C24       -27.9960   90.7570  134.4380 ca        1 56R     -0.079000
     17 C23       -26.8520   90.9980  133.6690 ca        1 56R     -0.186300
     18 C18       -30.0180   89.3800  135.0020 c3        1 56R      0.221100
     19 C28       -32.6070   87.9040  135.4110 c3        1 56R     -0.122100
     20 N4        -32.3840   87.3840  138.5490 ny        1 56R     -0.475300
     21 O3        -30.9670   89.1660  138.0870 o         1 56R     -0.402100
     22 S7         64.0950 -180.6560 -286.5260 s4        1 56R      1.663300
     23 O8         63.9770 -181.7220 -287.3480 o         1 56R     -0.392400
     24 O9         64.9910 -179.6660 -286.7330 o         1 56R     -0.392400
     25 F16        60.6630 -180.3260 -281.9850 f         1 56R     -0.058900
     26 C17        62.5190 -178.2130 -282.3590 c3        1 56R     -0.076800
     27 N5        -26.0410   93.1920  132.8580 nz        1 56R     -0.842600
     28 H1        -31.2110   86.4620  136.2810 h1        1 56R      0.126700
     29 H2        -26.3040   92.6910  134.9130 hx        1 56R      0.118200
     30 H3        -24.9080   91.8520  134.0650 hx        1 56R      0.118200
     31 H4        -32.4660   85.5860  139.2150 ho        1 56R      0.481000
     32 H5         63.9890 -178.6700 -284.5900 ha        1 56R      0.184000
     33 H6         60.6270 -182.2910 -283.7250 ha        1 56R      0.203000
     34 H7         62.1200 -182.4450 -285.7090 ha        1 56R      0.185000
     35 H8        -29.0190   87.8380  132.9700 ha        1 56R      0.169000
     36 H9        -26.9690   88.2620  131.6210 ha        1 56R      0.174000
     37 H10       -25.5600   90.2610  132.0770 ha        1 56R      0.145000
     38 H11       -28.2810   91.4560  135.2410 ha        1 56R      0.146000
     39 H12       -30.9090   89.5780  134.3340 h1        1 56R      0.062700
     40 H13       -30.0600   90.1180  135.8600 h1        1 56R      0.062700
     41 H14       -33.4460   87.3360  135.8810 hc        1 56R      0.076700
     42 H15       -32.8420   88.9950  135.4290 hc        1 56R      0.076700
     43 H16       -32.5260   87.5770  134.3430 hc        1 56R      0.076700
     44 H17       -33.3620   87.4770  138.2240 hn        1 56R      0.461800
     45 H18        63.3100 -177.4910 -282.6760 hc        1 56R      0.082033
     46 H19        62.7570 -178.5730 -281.3250 hc        1 56R      0.082033
     47 H20        61.5380 -177.6730 -282.3180 hc        1 56R      0.082033
     48 H21       -26.9900   93.5680  132.7680 hn        1 56R      0.463467
     49 H22       -25.7810   92.7530  131.9670 hn        1 56R      0.463467
     50 H61       -29.2710   87.6710  135.8940 hn        1 56R      0.425800
     51 H42       -32.3010   87.7760  139.5060 hn        1 56R      0.461800
     52 H53       -25.3920   93.9610  133.0550 hn        1 56R      0.463467
@<TRIPOS>BOND
     1    1    2 1   
     2    1    5 1   
     3    1   19 1   
     4    1   28 1   
     5    2   20 1   
     6    2   21 2   
     7    3   17 1   
     8    3   27 1   
     9    3   29 1   
    10    3   30 1   
    11    4   20 1   
    12    4   31 1   
    13    5   18 1   
    14    5   50 1   
    15    6    7 ar  
    16    6   11 ar  
    17    6   22 1   
    18    7    8 ar  
    19    7   32 1   
    20    8    9 ar  
    21    8   26 1   
    22    9   10 ar  
    23    9   25 1   
    24   10   11 ar  
    25   10   33 1   
    26   11   34 1   
    27   12   13 ar  
    28   12   16 ar  
    29   12   18 1   
    30   13   14 ar  
    31   13   35 1   
    32   14   15 ar  
    33   14   36 1   
    34   15   17 ar  
    35   15   37 1   
    36   16   17 ar  
    37   16   38 1   
    38   18   39 1   
    39   18   40 1   
    40   19   41 1   
    41   19   42 1   
    42   19   43 1   
    43   20   44 1   
    44   20   51 1   
    45   22   23 1   
    46   22   24 1   
    47   26   45 1   
    48   26   46 1   
    49   26   47 1   
    50   27   48 1   
    51   27   49 1   
    52   27   52 1   
@<TRIPOS>SUBSTRUCTURE
     1 56R         1 TEMP              0 ****  ****    0 ROOT
