@<TRIPOS>MOLECULE
56S
   47    46     1     0     0
SMALL
bcc


@<TRIPOS>ATOM
      1 C10        -0.0780    0.2460   -0.1100 c3        1 56S     -0.079400
      2 C15        -4.1150   -0.0940    2.4830 c3        1 56S      0.148100
      3 C17        -4.5960    1.2280    3.0460 c3        1 56S     -0.108100
      4 C01         9.7150   -0.2080   -5.6730 c3        1 56S     -0.092100
      5 C02         8.2130   -0.3220   -5.6600 c3        1 56S     -0.080400
      6 C03         7.6480   -0.0660   -4.2790 c3        1 56S     -0.079400
      7 C04         6.1390   -0.1810   -4.2710 c3        1 56S     -0.079400
      8 C05         5.5750    0.0760   -2.8900 c3        1 56S     -0.078400
      9 C06         4.0660   -0.0400   -2.8820 c3        1 56S     -0.079400
     10 C07         3.5030    0.2170   -1.5010 c3        1 56S     -0.079400
     11 C08         1.9940    0.1010   -1.4930 c3        1 56S     -0.079400
     12 C09         1.4310    0.3580   -0.1120 c3        1 56S     -0.078400
     13 C11        -0.6330    0.4860    1.2780 c3        1 56S     -0.128400
     14 C12        -2.1310    0.5150    1.2610 c         1 56S      0.634100
     15 O13        -2.8820    0.9970    0.4100 o         1 56S     -0.547000
     16 O14        -2.6750   -0.0740    2.3670 os        1 56S     -0.445900
     17 C16        -4.4280   -1.2550    3.4080 c3        1 56S     -0.108100
     18 H102       -0.5210    0.9920   -0.8230 hc        1 56S      0.057200
     19 H101       -0.3830   -0.7730   -0.4660 hc        1 56S      0.057200
     20 H151       -4.5590   -0.2660    1.4630 h1        1 56S      0.069700
     21 H172       -5.7020    1.1960    3.1830 hc        1 56S      0.047367
     22 H173       -4.3390    2.0540    2.3400 hc        1 56S      0.047367
     23 H171       -4.1130    1.4330    4.0310 hc        1 56S      0.047367
     24 H011       10.1730   -0.9490   -4.9740 hc        1 56S      0.032700
     25 H012       10.0360    0.8140   -5.3580 hc        1 56S      0.032700
     26 H013       10.1110   -0.4010   -6.6990 hc        1 56S      0.032700
     27 H022        7.7730    0.4120   -6.3860 hc        1 56S      0.038700
     28 H021        7.9100   -1.3470   -6.0030 hc        1 56S      0.038700
     29 H031        8.0860   -0.8000   -3.5520 hc        1 56S      0.039700
     30 H032        7.9490    0.9590   -3.9350 hc        1 56S      0.039700
     31 H042        5.8380   -1.2060   -4.6150 hc        1 56S      0.039700
     32 H041        5.7020    0.5530   -4.9980 hc        1 56S      0.039700
     33 H052        6.0130   -0.6580   -2.1630 hc        1 56S      0.039700
     34 H051        5.8760    1.1010   -2.5460 hc        1 56S      0.039700
     35 H062        3.6290    0.6940   -3.6090 hc        1 56S      0.040200
     36 H061        3.7660   -1.0650   -3.2260 hc        1 56S      0.040200
     37 H071        3.9410   -0.5170   -0.7730 hc        1 56S      0.039700
     38 H072        3.8030    1.2420   -1.1570 hc        1 56S      0.039700
     39 H081        1.6930   -0.9240   -1.8370 hc        1 56S      0.042700
     40 H082        1.5560    0.8350   -2.2200 hc        1 56S      0.042700
     41 H091        1.8660   -0.3780    0.6150 hc        1 56S      0.040700
     42 H092        1.7340    1.3820    0.2330 hc        1 56S      0.040700
     43 H112       -0.2790   -0.3080    1.9880 hc        1 56S      0.076700
     44 H111       -0.2840    1.4790    1.6720 hc        1 56S      0.076700
     45 H162       -3.9500   -1.1000    4.4040 hc        1 56S      0.047367
     46 H161       -5.5330   -1.3300    3.5380 hc        1 56S      0.047367
     47 H163       -4.0430   -2.2090    2.9750 hc        1 56S      0.047367
@<TRIPOS>BOND
     1    1   12 1   
     2    1   13 1   
     3    1   18 1   
     4    1   19 1   
     5    2    3 1   
     6    2   16 1   
     7    2   17 1   
     8    2   20 1   
     9    3   21 1   
    10    3   22 1   
    11    3   23 1   
    12    4    5 1   
    13    4   24 1   
    14    4   25 1   
    15    4   26 1   
    16    5    6 1   
    17    5   27 1   
    18    5   28 1   
    19    6    7 1   
    20    6   29 1   
    21    6   30 1   
    22    7    8 1   
    23    7   31 1   
    24    7   32 1   
    25    8    9 1   
    26    8   33 1   
    27    8   34 1   
    28    9   10 1   
    29    9   35 1   
    30    9   36 1   
    31   10   11 1   
    32   10   37 1   
    33   10   38 1   
    34   11   12 1   
    35   11   39 1   
    36   11   40 1   
    37   12   41 1   
    38   12   42 1   
    39   13   14 1   
    40   13   43 1   
    41   13   44 1   
    42   14   15 2   
    43   14   16 1   
    44   17   45 1   
    45   17   46 1   
    46   17   47 1   
@<TRIPOS>SUBSTRUCTURE
     1 56S         1 TEMP              0 ****  ****    0 ROOT
