@<TRIPOS>MOLECULE
56Z
   44    46     1     0     0
SMALL
bcc


@<TRIPOS>ATOM
      1 C1         -0.4320   -0.0440    0.3230 ca        1 56Z      0.159100
      2 N1          2.2590   -1.2440    7.0160 nc        1 56Z     -0.713000
      3 O1          0.3060   -1.5650   13.8200 o         1 56Z     -0.580800
      4 S1          0.5680   -1.2830    5.0390 ss        1 56Z      0.043700
      5 C2          0.9560   -0.1320    0.0910 ca        1 56Z     -0.185500
      6 N2          3.9440    0.2680    6.1500 nv        1 56Z     -0.922500
      7 O2         -0.6600   -3.7640   13.7180 o         1 56Z     -0.580800
      8 S2         -0.3880   -2.5420   13.1390 sy        1 56Z      1.519200
      9 C3          1.8310   -0.0190    1.1600 ca        1 56Z     -0.060500
     10 N3          0.2810   -2.6180    7.3830 nu        1 56Z     -0.679300
     11 O3          3.4040    0.8560    3.4250 o         1 56Z     -0.553100
     12 C4         -0.0320    0.2620    2.6820 ca        1 56Z     -0.060500
     13 N4         -2.1890   -1.7550   13.2720 nz        1 56Z     -0.779500
     14 C5         -0.9270    0.1610    1.6190 ca        1 56Z     -0.185500
     15 O6         -1.2150   -0.1730   -0.8000 os        1 56Z     -0.314900
     16 C7         -2.6190   -0.0110   -0.6210 c3        1 56Z      0.109700
     17 C10         1.3450    0.1610    2.4670 ca        1 56Z     -0.209600
     18 C11         2.3200    0.2680    3.5730 c         1 56Z      0.643300
     19 C12         1.9670   -0.3940    4.8190 cd        1 56Z     -0.401000
     20 C13         2.7850   -0.4340    5.9860 cc        1 56Z      0.693200
     21 C14         1.0760   -1.7510    6.6090 cd        1 56Z      0.563300
     22 C15         0.1510   -2.5670    8.7420 ca        1 56Z      0.321600
     23 C16         0.5080   -1.4260    9.5290 ca        1 56Z     -0.215000
     24 C17         0.3080   -1.4240   10.8840 ca        1 56Z      0.051500
     25 C18        -0.2650   -2.5270   11.5780 ca        1 56Z     -0.660500
     26 C19        -0.6310   -3.6480   10.7850 ca        1 56Z      0.051500
     27 C20        -0.4440   -3.6800    9.4290 ca        1 56Z     -0.215000
     28 H2          1.3240   -0.2800   -0.9360 ha        1 56Z      0.154500
     29 HN2         4.5480    0.0480    6.9050 hn        1 56Z      0.459800
     30 HN2A        4.3240    0.7160    5.3430 hn        1 56Z      0.459800
     31 H3          2.9210   -0.0630    0.9940 ha        1 56Z      0.145500
     32 HN3         0.0390   -3.4770    6.9260 hn        1 56Z      0.467800
     33 H4         -0.4280    0.4650    3.6920 ha        1 56Z      0.145500
     34 HN4        -2.5750   -1.5390   12.3620 hn        1 56Z      0.445467
     35 HN4A       -2.8170   -2.4000   13.7420 hn        1 56Z      0.445467
     36 H5         -2.0060    0.2540    1.8030 ha        1 56Z      0.154500
     37 H7         -3.0230   -0.8080    0.0500 h1        1 56Z      0.051033
     38 H7A        -2.8510    1.0030   -0.2140 h1        1 56Z      0.051033
     39 H7B        -3.0240   -0.1240   -1.6590 h1        1 56Z      0.051033
     40 H16         0.9590   -0.5390    9.0510 ha        1 56Z      0.178500
     41 H17         0.6210   -0.5390   11.4720 ha        1 56Z      0.164500
     42 H19        -1.0610   -4.5340   11.2920 ha        1 56Z      0.164500
     43 H20        -0.7360   -4.5810    8.8630 ha        1 56Z      0.178500
     44 H43        -2.1530   -0.8980   13.8160 hn        1 56Z      0.445467
@<TRIPOS>BOND
     1    1    5 ar  
     2    1   14 ar  
     3    1   15 1   
     4    2   20 1   
     5    2   21 2   
     6    3    8 2   
     7    4   19 1   
     8    4   21 1   
     9    5    9 ar  
    10    5   28 1   
    11    6   20 1   
    12    6   29 1   
    13    6   30 1   
    14    7    8 2   
    15    8   13 1   
    16    8   25 1   
    17    9   17 ar  
    18    9   31 1   
    19   10   21 1   
    20   10   22 1   
    21   10   32 1   
    22   11   18 2   
    23   12   14 ar  
    24   12   17 ar  
    25   12   33 1   
    26   13   34 1   
    27   13   35 1   
    28   13   44 1   
    29   14   36 1   
    30   15   16 1   
    31   16   37 1   
    32   16   38 1   
    33   16   39 1   
    34   17   18 1   
    35   18   19 1   
    36   19   20 2   
    37   22   23 ar  
    38   22   27 ar  
    39   23   24 ar  
    40   23   40 1   
    41   24   25 ar  
    42   24   41 1   
    43   25   26 ar  
    44   26   27 ar  
    45   26   42 1   
    46   27   43 1   
@<TRIPOS>SUBSTRUCTURE
     1 56Z         1 TEMP              0 ****  ****    0 ROOT
