@<TRIPOS>MOLECULE
56Z
   44    46     1     0     0
SMALL
bcc


@<TRIPOS>ATOM
      1 C1         -0.4360   -0.0160    0.3290 ca        1 56Z      0.159100
      2 N1          2.2570   -1.2610    7.0120 nc        1 56Z     -0.713000
      3 O1          0.3260   -1.6070   13.8220 o         1 56Z     -0.580800
      4 S1          0.5610   -1.2780    5.0380 ss        1 56Z      0.043700
      5 C2          0.9520   -0.1150    0.0930 ca        1 56Z     -0.185500
      6 N2          3.9530    0.2390    6.1490 nh        1 56Z     -0.922500
      7 O2         -0.6630   -3.7940   13.7090 o         1 56Z     -0.580800
      8 S2         -0.3810   -2.5720   13.1360 sy        1 56Z      1.519200
      9 C3          1.8290   -0.0120    1.1620 ca        1 56Z     -0.060500
     10 N3          0.2670   -2.6200    7.3780 nh        1 56Z     -0.679300
     11 O3          3.4120    0.8420    3.4270 o         1 56Z     -0.553100
     12 C4         -0.0290    0.2790    2.6880 ca        1 56Z     -0.060500
     13 N4         -2.1730   -1.7670   13.2810 n4        1 56Z     -0.779500
     14 C5         -0.9270    0.1880    1.6250 ca        1 56Z     -0.185500
     15 O6         -1.2210   -0.1360   -0.7940 os        1 56Z     -0.314900
     16 C7         -2.6240    0.0360   -0.6120 c3        1 56Z      0.109700
     17 C10         1.3470    0.1680    2.4700 ca        1 56Z     -0.209600
     18 C11         2.3240    0.2620    3.5750 c         1 56Z      0.643300
     19 C12         1.9670   -0.4000    4.8190 cd        1 56Z     -0.401000
     20 C13         2.7870   -0.4520    5.9840 cc        1 56Z      0.693200
     21 C14         1.0680   -1.7560    6.6050 cd        1 56Z      0.563300
     22 C15         0.1420   -2.5750    8.7380 ca        1 56Z      0.321600
     23 C16         0.5140   -1.4430    9.5300 ca        1 56Z     -0.215000
     24 C17         0.3190   -1.4470   10.8860 ca        1 56Z      0.051500
     25 C18        -0.2630   -2.5480   11.5750 ca        1 56Z     -0.660500
     26 C19        -0.6440   -3.6610   10.7770 ca        1 56Z      0.051500
     27 C20        -0.4620   -3.6870    9.4200 ca        1 56Z     -0.215000
     28 H2          1.3160   -0.2620   -0.9340 ha        1 56Z      0.154500
     29 HN2         4.3350    0.6870    5.3430 hn        1 56Z      0.459800
     30 HN2A        4.5560    0.0110    6.9020 hn        1 56Z      0.459800
     31 H3          2.9180   -0.0640    0.9930 ha        1 56Z      0.145500
     32 HN3         0.0150   -3.4730    6.9160 hn        1 56Z      0.467800
     33 H4         -0.4220    0.4810    3.6990 ha        1 56Z      0.145500
     34 HN4        -2.8060   -2.4090   13.7490 hn        1 56Z      0.445467
     35 HN4A       -2.5610   -1.5420   12.3740 hn        1 56Z      0.445467
     36 H5         -2.0050    0.2890    1.8120 ha        1 56Z      0.154500
     37 H7         -3.0320   -0.7600    0.0570 h1        1 56Z      0.051033
     38 H7A        -3.0320   -0.0710   -1.6500 h1        1 56Z      0.051033
     39 H7B        -2.8480    1.0500   -0.2010 h1        1 56Z      0.051033
     40 H16         0.9720   -0.5580    9.0560 ha        1 56Z      0.178500
     41 H17         0.6430   -0.5690   11.4780 ha        1 56Z      0.164500
     42 H19        -1.0810   -4.5460   11.2800 ha        1 56Z      0.164500
     43 H20        -0.7650   -4.5810    8.8490 ha        1 56Z      0.178500
     44 H43        -2.1270   -0.9140   13.8300 hn        1 56Z      0.445467
@<TRIPOS>BOND
     1    1    5 ar  
     2    1   14 ar  
     3    1   15 1   
     4    2   20 1   
     5    2   21 2   
     6    3    8 2   
     7    4   19 1   
     8    4   21 1   
     9    5    9 ar  
    10    5   28 1   
    11    6   20 1   
    12    6   29 1   
    13    6   30 1   
    14    7    8 2   
    15    8   13 1   
    16    8   25 1   
    17    9   17 ar  
    18    9   31 1   
    19   10   21 1   
    20   10   22 1   
    21   10   32 1   
    22   11   18 2   
    23   12   14 ar  
    24   12   17 ar  
    25   12   33 1   
    26   13   34 1   
    27   13   35 1   
    28   13   44 1   
    29   14   36 1   
    30   15   16 1   
    31   16   37 1   
    32   16   38 1   
    33   16   39 1   
    34   17   18 1   
    35   18   19 1   
    36   19   20 2   
    37   22   23 ar  
    38   22   27 ar  
    39   23   24 ar  
    40   23   40 1   
    41   24   25 ar  
    42   24   41 1   
    43   25   26 ar  
    44   26   27 ar  
    45   26   42 1   
    46   27   43 1   
@<TRIPOS>SUBSTRUCTURE
     1 56Z         1 TEMP              0 ****  ****    0 ROOT
