@<TRIPOS>MOLECULE
56Z
   43    38     1     0     0
SMALL
bcc


@<TRIPOS>ATOM
      1 C1         -1.4900    4.9120   -1.2600 c1        1 56Z      0.100000
      2 N1         -1.1880   -2.5510   -1.8100 n2        1 56Z     -0.224000
      3 O1          2.2610   -5.0600    5.2060 o         1 56Z     -0.939000
      4 S1         -0.7550   -0.2890   -1.1230 ss        1 56Z      0.538000
      5 C2         -2.5440    4.1580   -0.7690 c1        1 56Z     -0.213000
      6 N2         -2.7810   -1.9400   -3.8520 nh        1 56Z     -0.331000
      7 O2          2.6520   -2.9280    5.6880 o         1 56Z     -0.939000
      8 S2          2.9420   -3.9100    4.6790 ss        1 56Z      2.872000
      9 C3         -2.7910    2.8950   -1.2840 c1        1 56Z     -0.043000
     10 N3          0.8280   -2.3130   -0.6630 nh        1 56Z     -0.226000
     11 O3         -3.0290    0.9720   -3.8740 o         1 56Z     -0.347000
     12 C4         -0.9300    3.1410   -2.7800 c1        1 56Z     -0.121500
     13 N4          4.5570   -4.1780    4.5550 n2        1 56Z     -0.953000
     14 C5         -0.6830    4.4040   -2.2650 c1        1 56Z     -0.121500
     15 O6         -0.5930    5.5400   -0.3800 os        1 56Z     -0.208000
     16 C7         -0.9730    6.8480   -0.0120 c3        1 56Z     -0.078000
     17 C10        -1.9840    2.3860   -2.2890 c1        1 56Z     -0.175000
     18 C11        -2.3000    1.0410   -2.9040 c2        1 56Z      0.367000
     19 C12        -1.6850   -0.2160   -2.3300 c2        1 56Z     -0.610000
     20 C13        -1.9580   -1.5670   -2.7590 c2        1 56Z      0.193000
     21 C14        -0.4760   -1.7800   -0.8400 c2        1 56Z     -0.116000
     22 C15         1.2710   -2.6890    0.6320 c2        1 56Z      0.132000
     23 C16         1.3330   -4.0290    0.9810 c2        1 56Z     -0.207000
     24 C17         1.8360   -4.4010    2.2180 c1        1 56Z      0.017000
     25 C18         2.2750   -3.4330    3.1070 c1        1 56Z     -0.868000
     26 C19         2.2130   -2.0930    2.7580 c1        1 56Z      0.024000
     27 C20         1.7100   -1.7210    1.5210 c1        1 56Z     -0.216000
     28 H2         -3.1130    4.5160   -0.0610 ha        1 56Z      0.143000
     29 HN2        -2.5480   -2.6500   -4.3780 hn        1 56Z      0.249500
     30 HN2A       -3.5320   -1.4560   -4.0440 hn        1 56Z      0.249500
     31 H3         -3.5330    2.3640   -0.9380 ha        1 56Z      0.152000
     32 HN3         1.3880   -2.3940   -1.3780 hn        1 56Z      0.244000
     33 H4         -0.3610    2.7830   -3.4880 ha        1 56Z      0.149000
     34 HN4         5.1490   -3.5110    4.7590 hn        1 56Z      0.242000
     35 HN4A        4.8660   -4.9970    4.2890 hn        1 56Z      0.242000
     36 H5          0.0590    4.9350   -2.6100 ha        1 56Z      0.149000
     37 H7         -1.4360    7.2770   -0.7640 h1        1 56Z      0.087000
     38 H7A        -1.5750    6.8080    0.7620 h1        1 56Z      0.087000
     39 H7B        -0.1740    7.3680    0.2200 h1        1 56Z      0.087000
     40 H16         1.0230   -4.7110    0.3550 ha        1 56Z      0.145000
     41 H17         1.8800   -5.3440    2.4630 ha        1 56Z      0.157000
     42 H19         2.5230   -1.4110    3.3840 ha        1 56Z      0.157000
     43 H20         1.6660   -0.7780    1.2760 ha        1 56Z      0.154000
@<TRIPOS>BOND
     1    1    5 1   
     2    1   15 1   
     3    2   20 1   
     4    2   21 1   
     5    3    8 1   
     6    4   19 1   
     7    4   21 1   
     8    5   28 1   
     9    6   20 1   
    10    6   29 1   
    11    6   30 1   
    12    7    8 1   
    13    9   17 1   
    14    9   31 1   
    15   10   21 1   
    16   10   22 1   
    17   10   32 1   
    18   11   18 1   
    19   12   14 1   
    20   12   33 1   
    21   13   34 1   
    22   13   35 1   
    23   14   36 1   
    24   15   16 1   
    25   16   37 1   
    26   16   38 1   
    27   16   39 1   
    28   17   18 1   
    29   18   19 1   
    30   19   20 1   
    31   22   23 1   
    32   22   27 1   
    33   23   24 1   
    34   23   40 1   
    35   24   41 1   
    36   25   26 1   
    37   26   42 1   
    38   27   43 1   
@<TRIPOS>SUBSTRUCTURE
     1 56Z         1 TEMP              0 ****  ****    0 ROOT
