@<TRIPOS>MOLECULE
56Z
   46    48     1     0     0
SMALL
bcc


@<TRIPOS>ATOM
      1 C1         -0.3120    0.4550    0.3840 ca        1 56Z      0.236100
      2 N1          1.9830   -2.3140    6.8520 nc        1 56Z     -0.575000
      3 O1         -1.2620    0.2320   13.0020 o         1 56Z     -0.520800
      4 S1          0.2880   -1.6110    5.0160 ss        1 56Z      0.401700
      5 C2          1.0480    0.1770    0.1020 ca        1 56Z     -0.181000
      6 N2          4.1190   -1.5410    5.8690 n4        1 56Z     -0.801300
      7 O2          0.7080   -1.1080   13.5690 o         1 56Z     -0.520800
      8 S2         -0.5030   -0.9120   12.9520 sy        1 56Z      1.450200
      9 C3          1.9030   -0.1610    1.1320 ca        1 56Z     -0.031000
     10 N3         -0.3140   -2.9970    7.3840 n4        1 56Z     -0.587100
     11 O3          3.6220   -0.5520    3.3690 o         1 56Z     -0.538100
     12 C4          0.0880    0.0500    2.7340 ca        1 56Z     -0.031000
     13 N4         -1.5900   -2.1160   13.8800 n4        1 56Z     -0.808500
     14 C5         -0.7840    0.3960    1.7180 ca        1 56Z     -0.181000
     15 O6         -1.0690    0.7760   -0.6920 os        1 56Z     -0.273900
     16 C7         -2.4430    1.1210   -0.4730 c3        1 56Z      0.099700
     17 C10         1.4340   -0.2580    2.4640 ca        1 56Z     -0.275600
     18 C11         2.3890   -0.6400    3.4810 c         1 56Z      0.641300
     19 C12         1.8570   -1.2620    4.7370 cd        1 56Z     -0.251000
     20 C13         2.6700   -1.7020    5.8230 cc        1 56Z      0.428200
     21 C14         0.6610   -2.3380    6.5160 cd        1 56Z      0.293300
     22 C15        -0.3620   -2.4840    8.7690 ca        1 56Z      0.052600
     23 C16        -1.3790   -1.5890    9.1430 ca        1 56Z     -0.112500
     24 C17        -1.4470   -1.1520   10.4660 ca        1 56Z      0.025500
     25 C18        -0.5210   -1.5850   11.4300 ca        1 56Z     -0.433500
     26 C19         0.4850   -2.4800   11.0290 ca        1 56Z      0.025500
     27 C20         0.5770   -2.9330    9.7120 ca        1 56Z     -0.112500
     28 H2          1.4050    0.2470   -0.9420 ha        1 56Z      0.184000
     29 HN2         4.4800   -1.4840    4.8870 hn        1 56Z      0.500800
     30 HN2A        4.3510   -0.6630    6.3540 hn        1 56Z      0.500800
     31 H3          2.9700   -0.3640    0.9210 ha        1 56Z      0.136500
     32 HN3        -1.2480   -2.8930    6.9560 hn        1 56Z      0.489800
     33 H4         -0.2900    0.1090    3.7730 ha        1 56Z      0.136500
     34 HN4        -2.4010   -1.6310   14.2840 hn        1 56Z      0.479467
     35 HN4A       -1.9520   -2.8860   13.3220 hn        1 56Z      0.479467
     36 H5         -1.8300    0.6540    1.9420 ha        1 56Z      0.184000
     37 H7         -2.8050    1.3470   -1.5110 h1        1 56Z      0.073700
     38 H7A        -2.5170    2.0240    0.1800 h1        1 56Z      0.073700
     39 H7B        -2.9950    0.2540   -0.0370 h1        1 56Z      0.073700
     40 H16        -2.1320   -1.2180    8.4230 ha        1 56Z      0.193500
     41 H17        -2.2400   -0.4240   10.7430 ha        1 56Z      0.207000
     42 H19         1.2480   -2.8240   11.7610 ha        1 56Z      0.207000
     43 H20         1.3920   -3.6300    9.4390 ha        1 56Z      0.193500
     44 H23         4.5650   -2.3320    6.3540 hn        1 56Z      0.500800
     45 H32        -0.0790   -4.0080    7.4260 hn        1 56Z      0.489800
     46 H43        -1.0770   -2.5310   14.6680 hn        1 56Z      0.479467
@<TRIPOS>BOND
     1    1    5 ar  
     2    1   14 ar  
     3    1   15 1   
     4    2   20 1   
     5    2   21 2   
     6    3    8 2   
     7    4   19 1   
     8    4   21 1   
     9    5    9 ar  
    10    5   28 1   
    11    6   20 1   
    12    6   29 1   
    13    6   30 1   
    14    6   44 1   
    15    7    8 2   
    16    8   13 1   
    17    8   25 1   
    18    9   17 ar  
    19    9   31 1   
    20   10   21 1   
    21   10   22 1   
    22   10   32 1   
    23   10   45 1   
    24   11   18 2   
    25   12   14 ar  
    26   12   17 ar  
    27   12   33 1   
    28   13   34 1   
    29   13   35 1   
    30   13   46 1   
    31   14   36 1   
    32   15   16 1   
    33   16   37 1   
    34   16   38 1   
    35   16   39 1   
    36   17   18 1   
    37   18   19 1   
    38   19   20 2   
    39   22   23 ar  
    40   22   27 ar  
    41   23   24 ar  
    42   23   40 1   
    43   24   25 ar  
    44   24   41 1   
    45   25   26 ar  
    46   26   27 ar  
    47   26   42 1   
    48   27   43 1   
@<TRIPOS>SUBSTRUCTURE
     1 56Z         1 TEMP              0 ****  ****    0 ROOT
