@<TRIPOS>MOLECULE
56Z
   43    45     1     0     0
SMALL
bcc


@<TRIPOS>ATOM
      1 C1         -6.6150    0.9880   -0.0000 ca        1 56Z      0.144100
      2 N1          0.3050   -1.4350    0.1110 nc        1 56Z     -0.744000
      3 O1          7.1780   -0.8900   -0.4230 o         1 56Z     -0.659800
      4 S1         -1.6670    0.2770    0.0510 ss        1 56Z     -0.105300
      5 C2         -6.7050   -0.1830    0.7800 ca        1 56Z     -0.189000
      6 N2         -0.8940   -3.5220   -0.1300 nh        1 56Z     -0.932500
      7 O2          7.3800    0.9380    1.1450 o         1 56Z     -0.659800
      8 S2          6.8430    0.4310   -0.0590 sy        1 56Z      1.532200
      9 C3         -5.6620   -1.0960    0.7520 ca        1 56Z     -0.061000
     10 N3          0.9510    0.9180    0.2120 nh        1 56Z     -0.710300
     11 O3         -3.6960   -3.0750    0.0200 o         1 56Z     -0.587100
     12 C4         -4.4480    0.3030   -0.8050 ca        1 56Z     -0.061000
     13 N4          7.2360    1.4180   -1.2600 n3        1 56Z     -1.026700
     14 C5         -5.4910    1.2290   -0.7980 ca        1 56Z     -0.189000
     15 O6         -7.7010    1.8330    0.0970 os        1 56Z     -0.323900
     16 C7         -7.6600    3.0080   -0.7060 c3        1 56Z      0.111700
     17 C10        -4.5190   -0.8550   -0.0270 ca        1 56Z     -0.192600
     18 C11        -3.4280   -1.8590   -0.0180 c         1 56Z      0.647300
     19 C12        -2.0750   -1.3600   -0.0150 cd        1 56Z     -0.413000
     20 C13        -0.9010   -2.1640   -0.0060 cc        1 56Z      0.716200
     21 C14         0.0240   -0.1190    0.1520 cd        1 56Z      0.676300
     22 C15         2.3440    0.7330    0.1730 ca        1 56Z      0.206600
     23 C16         2.9590   -0.2060   -0.6840 ca        1 56Z     -0.184000
     24 C17         4.3440   -0.2830   -0.7450 ca        1 56Z      0.006500
     25 C18         5.1650    0.5580    0.0140 ca        1 56Z     -0.413500
     26 C19         4.5500    1.4860    0.8640 ca        1 56Z      0.006500
     27 C20         3.1700    1.5820    0.9520 ca        1 56Z     -0.184000
     28 H2         -7.6020   -0.3570    1.3920 ha        1 56Z      0.147500
     29 HN2        -0.0580   -4.0290    0.0290 hn        1 56Z      0.455800
     30 HN2A       -1.7700   -3.9940   -0.0840 hn        1 56Z      0.455800
     31 H3         -5.7230   -2.0270    1.3390 ha        1 56Z      0.149000
     32 HN3         0.6470    1.6940    0.7670 hn        1 56Z      0.438800
     33 H4         -3.5740    0.4860   -1.4550 ha        1 56Z      0.149000
     34 HN4         7.3160    1.1280   -2.2020 hn        1 56Z      0.446300
     35 HN4A        7.4510    2.3740   -1.1350 hn        1 56Z      0.446300
     36 H5         -5.4200    2.1310   -1.4210 ha        1 56Z      0.147500
     37 H7         -7.6020    2.7440   -1.7890 h1        1 56Z      0.046700
     38 H7A        -8.6310    3.5140   -0.4730 h1        1 56Z      0.046700
     39 H7B        -6.7980    3.6540   -0.4120 h1        1 56Z      0.046700
     40 H16         2.3570   -0.8840   -1.3080 ha        1 56Z      0.151500
     41 H17         4.8120   -1.0400   -1.4010 ha        1 56Z      0.155000
     42 H19         5.1810    2.1380    1.4940 ha        1 56Z      0.155000
     43 H20         2.7250    2.3210    1.6370 ha        1 56Z      0.151500
@<TRIPOS>BOND
     1    1    5 ar  
     2    1   14 ar  
     3    1   15 1   
     4    2   20 1   
     5    2   21 2   
     6    3    8 2   
     7    4   19 1   
     8    4   21 1   
     9    5    9 ar  
    10    5   28 1   
    11    6   20 1   
    12    6   29 1   
    13    6   30 1   
    14    7    8 2   
    15    8   13 1   
    16    8   25 1   
    17    9   17 ar  
    18    9   31 1   
    19   10   21 1   
    20   10   22 1   
    21   10   32 1   
    22   11   18 2   
    23   12   14 ar  
    24   12   17 ar  
    25   12   33 1   
    26   13   34 1   
    27   13   35 1   
    28   14   36 1   
    29   15   16 1   
    30   16   37 1   
    31   16   38 1   
    32   16   39 1   
    33   17   18 1   
    34   18   19 1   
    35   19   20 2   
    36   22   23 ar  
    37   22   27 ar  
    38   23   24 ar  
    39   23   40 1   
    40   24   25 ar  
    41   24   41 1   
    42   25   26 ar  
    43   26   27 ar  
    44   26   42 1   
    45   27   43 1   
@<TRIPOS>SUBSTRUCTURE
     1 56Z         1 TEMP              0 ****  ****    0 ROOT
