@<TRIPOS>MOLECULE
570
   70    67     1     0     0
SMALL
bcc


@<TRIPOS>ATOM
      1 N           0.2890    0.2060   -0.8370 n7        1 570     -0.305000
      2 CA          1.6160   -0.1290   -0.3800 c3        1 570     -0.052000
      3 CB          1.7410   -0.1340    1.1500 c3        1 570     -0.103000
      4 CG          1.2560    1.1250    1.7710 c2        1 570     -0.152000
      5 CD1        -0.0720    1.2200    2.2080 c2        1 570     -0.215000
      6 CD2         2.1160    2.2250    1.9290 c2        1 570     -0.119000
      7 CE1        -0.5420    2.3980    2.7960 c2        1 570     -0.179000
      8 CE2         1.6850    3.4070    2.5070 c1        1 570     -0.448000
      9 CZ          0.3580    3.4600    2.9260 c2        1 570      0.024000
     10 OH         -0.1780    4.6170    3.5310 os        1 570     -0.173000
     11 C1A         0.0040    0.3170   -2.1820 c2        1 570      0.218000
     12 C1F        -1.1680    0.8500   -2.6830 c2        1 570     -0.304000
     13 C1E        -1.5020    0.8030   -4.0990 c2        1 570     -0.063000
     14 C1D        -1.4160   -0.2700   -4.8900 c2        1 570     -0.275000
     15 C1C         2.1490   -0.8120   -2.8340 c1        1 570      0.192000
     16 C1B         1.0240   -0.1840   -3.1140 c2        1 570     -0.460000
     17 C1H        -2.4570    1.1390   -0.4990 c2        1 570     -0.189000
     18 C1I        -0.2890    0.0640    5.5110 c1        1 570     -0.229500
     19 C1J        -0.4660   -0.6590    6.4470 c1        1 570     -0.229500
     20 C1K        -4.3630   -1.6050   -1.7440 c1        1 570     -0.210000
     21 C1L        -3.8190   -0.8220   -1.0200 c1        1 570     -0.122000
     22 C1M        -3.1960    0.0810   -0.1430 c2        1 570     -0.039000
     23 C1G        -2.1770    1.5710   -1.8870 c2        1 570      0.320000
     24 O1G        -2.8060    2.5300   -2.3650 o         1 570     -0.314000
     25 O3F         2.8170    9.4210    4.4810 os        1 570     -0.140000
     26 C3G         1.6330   10.0140    4.9570 c2        1 570      0.003000
     27 N3H         0.5980    9.1710    4.9320 n2        1 570     -0.142000
     28 C3C         1.0890    7.9490    4.4180 c2        1 570      0.006000
     29 C3D         2.4560    8.1050    4.1460 c2        1 570     -0.112000
     30 C3E         3.5260    7.2500    3.6390 c3        1 570     -0.154000
     31 C3I         1.7050   11.4040    5.3880 c2        1 570      0.055000
     32 C3N         2.8600   12.0890    5.3450 c2        1 570     -0.205000
     33 C3M         4.2870   10.7860    0.7300 c1        1 570      0.132000
     34 C3L         3.5950    9.7340    1.0520 c2        1 570     -0.547000
     35 C3K        -0.7340   11.4720    5.9840 c1        1 570      0.264000
     36 C3J         0.4700   12.0010    5.8610 c2        1 570     -0.463000
     37 C3A         0.7050    5.6570    3.6560 c2        1 570      0.066000
     38 C3B         0.2530    6.7970    4.2350 c2        1 570     -0.271000
     39 C          -0.2380   -3.5760    0.8930 c1        1 570      0.416000
     40 HN         -0.2450    0.7580   -0.1960 hn        1 570      0.253000
     41 HA          1.8670   -1.1770   -0.7420 h1        1 570      0.089000
     42 HB1         1.1780   -1.0170    1.5560 hc        1 570      0.081000
     43 HB2         2.3790    0.5920   -0.7990 h1        1 570      0.089000
     44 HD1        -0.7510    0.3620    2.1040 ha        1 570      0.093000
     45 HD2         2.8270   -0.2870    1.3870 hc        1 570      0.081000
     46 HE1        -1.5810    2.4790    3.1400 ha        1 570      0.112000
     47 HE2         3.1580    2.1410    1.5870 ha        1 570      0.095000
     48 H1E        -1.9110    1.7550   -4.4910 ha        1 570      0.136000
     49 H1D        -1.7110   -0.2330   -5.9460 ha        1 570      0.105000
     50 H1C        -1.0670   -1.2480   -4.5370 ha        1 570      0.105000
     51 H1B         0.8240    0.0300   -4.1890 ha        1 570      0.213000
     52 H1I        -2.0340    1.8070    0.2800 ha        1 570      0.174000
     53 H1J        -0.1300    0.7110    4.6730 ha        1 570      0.227500
     54 H1K        -0.6220   -1.2960    7.2780 ha        1 570      0.227500
     55 H1L        -4.8410   -2.2950   -2.3900 ha        1 570      0.217000
     56 H1M        -3.3590   -0.1340    0.9320 ha        1 570      0.142000
     57 H3E1        3.5720    6.2980    4.2310 hc        1 570      0.103333
     58 H3E2        3.3320    6.9780    2.5680 hc        1 570      0.103333
     59 H3E3        4.5150    7.7670    3.7060 hc        1 570      0.103333
     60 H3N         3.7920   11.6310    4.9860 ha        1 570      0.124500
     61 H3M         2.9300   13.1350    5.6640 ha        1 570      0.124500
     62 H3L         3.3860    9.4390    2.1000 ha        1 570      0.206000
     63 H3K         3.1430    9.0330    0.3320 ha        1 570      0.206000
     64 H3J         0.5550   13.0680    6.1660 ha        1 570      0.182000
     65 H3A1        3.7470    4.4960    2.4450 ha        1 570     -0.002500
     66 H3A2        4.3460    4.8260    2.4350 ha        1 570     -0.002500
     67 H3B1       -0.7890    6.8760    4.5810 ha        1 570      0.148000
     68 H3B2        1.7300    5.4750    3.2670 h4        1 570      0.198000
     69 O2          0.8450   -3.3390    0.4640 o         1 570     -0.207500
     70 O1         -1.3160   -3.8360    1.3240 o         1 570     -0.207500
@<TRIPOS>BOND
     1    1    2 1   
     2    1   11 1   
     3    1   40 1   
     4    2    3 1   
     5    2   41 1   
     6    2   43 1   
     7    3    4 1   
     8    3   42 1   
     9    3   45 1   
    10    4    5 1   
    11    4    6 1   
    12    5    7 1   
    13    5   44 1   
    14    6    8 1   
    15    6   47 1   
    16    7    9 1   
    17    7   46 1   
    18    8    9 1   
    19    9   10 1   
    20   10   37 1   
    21   11   12 1   
    22   11   16 1   
    23   12   13 1   
    24   12   23 1   
    25   13   14 1   
    26   13   48 1   
    27   14   49 1   
    28   14   50 1   
    29   15   16 1   
    30   16   51 1   
    31   17   22 1   
    32   17   23 1   
    33   17   52 1   
    34   18   19 1   
    35   18   53 1   
    36   19   54 1   
    37   20   21 1   
    38   20   55 1   
    39   21   22 1   
    40   22   56 1   
    41   23   24 1   
    42   25   26 1   
    43   25   29 1   
    44   26   27 1   
    45   26   31 1   
    46   27   28 1   
    47   28   29 1   
    48   28   38 1   
    49   29   30 1   
    50   30   57 1   
    51   30   58 1   
    52   30   59 1   
    53   31   32 1   
    54   31   36 1   
    55   32   60 1   
    56   32   61 1   
    57   33   34 1   
    58   34   62 1   
    59   34   63 1   
    60   35   36 1   
    61   36   64 1   
    62   37   38 1   
    63   37   68 1   
    64   38   67 1   
    65   39   69 1   
    66   39   70 1   
    67   65   66 1   
@<TRIPOS>SUBSTRUCTURE
     1 570         1 TEMP              0 ****  ****    0 ROOT
