@<TRIPOS>MOLECULE
570
   70    62     1     0     0
SMALL
bcc


@<TRIPOS>ATOM
      1 N          -1.2580   -3.0910   -2.9560 n3        1 570     -0.267000
      2 CA         -1.0350   -1.7450   -2.5440 c3        1 570     -0.090000
      3 CB         -0.4300   -1.7360   -1.1570 c3        1 570     -0.112000
      4 CG         -0.5550   -0.3430   -0.5580 c2        1 570     -0.081000
      5 CD1        -1.5520   -0.0730    0.3660 c2        1 570     -0.114000
      6 CD2         0.3790    0.6330   -0.8750 c1        1 570     -0.098000
      7 CE1        -1.6170    1.1720    0.9740 c1        1 570     -0.208000
      8 CE2         0.3140    1.8790   -0.2670 c1        1 570     -0.159000
      9 CZ         -0.6840    2.1480    0.6570 c1        1 570      0.048000
     10 OH         -0.7830    3.4310    1.2340 os        1 570     -0.230000
     11 C1A        -2.2570   -3.3810   -3.9300 c2        1 570      0.148000
     12 C1F        -2.4210   -4.6820   -4.3880 c2        1 570     -0.229000
     13 C1E        -3.4490   -4.9820   -5.2670 c1        1 570     -0.060000
     14 C1D        -4.3140   -3.9840   -5.6900 c1        1 570     -0.128800
     15 C1C        -4.1500   -2.6850   -5.2330 c1        1 570     -0.128800
     16 C1B        -3.1210   -2.3840   -4.3530 c1        1 570     -0.203000
     17 C1H        -0.5330   -6.4410   -4.8630 c1        1 570     -0.131000
     18 C1I        -0.4210   -5.9730   -6.1640 c1        1 570     -0.128800
     19 C1J         0.4540   -6.5860   -7.0480 c1        1 570     -0.128800
     20 C1K         1.2160   -7.6660   -6.6320 c1        1 570     -0.128800
     21 C1L         1.1040   -8.1340   -5.3320 c1        1 570     -0.128800
     22 C1M         0.2290   -7.5220   -4.4480 c1        1 570     -0.112000
     23 C1G        -1.4990   -5.7790   -3.8990 c2        1 570      0.325000
     24 O1G        -1.5960   -6.1900   -2.7600 o         1 570     -0.280000
     25 O3F         0.6370    5.4160    6.3170 os        1 570     -0.127000
     26 C3G         1.9100    5.2540    5.8590 c2        1 570      0.038000
     27 N3H         1.8570    5.1210    4.5080 n2        1 570     -0.128000
     28 C3C         0.5680    5.1990    4.1330 c1        1 570     -0.110000
     29 C3D        -0.1910    5.3820    5.2610 c1        1 570     -0.057000
     30 C3E        -1.6960    5.5300    5.3060 c2        1 570     -0.151000
     31 C3I         3.0590    5.2200    6.6370 c1        1 570     -0.019000
     32 C3N         3.9500    6.2820    6.6050 c1        1 570     -0.128800
     33 C3M         5.0780    6.2650    7.4100 c1        1 570     -0.128800
     34 C3L         5.3150    5.1850    8.2480 c1        1 570     -0.128800
     35 C3K         4.4250    4.1240    8.2800 c1        1 570     -0.128800
     36 C3J         3.2970    4.1410    7.4740 c1        1 570     -0.099000
     37 C3A         0.2270    3.7110    2.1810 c3        1 570     -0.014000
     38 C3B         0.0470    5.1210    2.7100 c2        1 570     -0.093000
     39 O2         -0.3080    0.1090   -3.8820 o         1 570     -0.563000
     40 O1          0.9000   -1.7040   -3.9630 o         1 570     -0.563000
     41 C          -0.0910   -1.0730   -3.5100 c2        1 570      0.331000
     42 HN         -0.7610   -3.7660   -2.5970 hn        1 570      0.227000
     43 HA         -1.8850   -1.2630   -2.5310 h1        1 570      0.095000
     44 HB1         0.5150   -1.9840   -1.2120 hc        1 570      0.096000
     45 HB2        -0.9030   -2.3780   -0.5910 hc        1 570      0.096000
     46 HD1        -2.2090   -0.7600    0.5890 ha        1 570      0.127000
     47 HD2         1.0810    0.4440   -1.5260 ha        1 570      0.204000
     48 HE1        -2.3200    1.3620    1.6250 ha        1 570      0.123000
     49 HE2         0.9500    2.5770   -0.5140 ha        1 570      0.138000
     50 H1E        -3.5650   -5.8970   -5.5890 ha        1 570      0.116000
     51 H1D        -5.0380   -4.1960   -6.3100 ha        1 570      0.137100
     52 H1C        -4.7580   -1.9830   -5.5310 ha        1 570      0.137100
     53 H1B        -3.0060   -1.4710   -4.0320 ha        1 570      0.144000
     54 H1I        -0.9580   -5.2130   -6.4570 ha        1 570      0.137100
     55 H1J         0.5330   -6.2560   -7.9640 ha        1 570      0.137100
     56 H1K         1.8320   -8.0970   -7.2550 ha        1 570      0.137100
     57 H1L         1.6200   -8.9140   -5.0480 ha        1 570      0.137100
     58 H1M         0.1500   -7.8510   -3.5330 ha        1 570      0.122000
     59 H3E1       -1.9800    5.6970    6.2290 ha        1 570      0.101333
     60 H3E2       -2.1140    4.7070    4.9790 ha        1 570      0.101333
     61 H3E3       -1.9670    6.2820    4.7390 ha        1 570      0.101333
     62 H3N         3.7940    7.0320    6.0000 ha        1 570      0.137100
     63 H3M         5.7050    7.0130    7.3870 ha        1 570      0.137100
     64 H3L         6.1150    5.1690    8.8080 ha        1 570      0.137100
     65 H3K         4.5920    3.3650    8.8690 ha        1 570      0.137100
     66 H3J         2.6600    3.4020    7.5090 ha        1 570      0.148000
     67 H3A1        1.1050    3.6320    1.7550 h1        1 570      0.084000
     68 H3A2        0.1650    3.0740    2.9220 h1        1 570      0.084000
     69 H3B1       -0.9030    5.3560    2.6970 ha        1 570      0.107500
     70 H3B2        0.5450    5.7470    2.1460 ha        1 570      0.107500
@<TRIPOS>BOND
     1    1    2 1   
     2    1   11 1   
     3    1   42 1   
     4    2    3 1   
     5    2   41 1   
     6    2   43 1   
     7    3    4 1   
     8    3   44 1   
     9    3   45 1   
    10    4    5 1   
    11    4    6 1   
    12    5    7 1   
    13    5   46 1   
    14    6   47 1   
    15    7   48 1   
    16    8    9 1   
    17    8   49 1   
    18    9   10 1   
    19   10   37 1   
    20   11   12 1   
    21   11   16 1   
    22   12   13 1   
    23   12   23 1   
    24   13   50 1   
    25   14   15 1   
    26   14   51 1   
    27   15   52 1   
    28   16   53 1   
    29   17   22 1   
    30   17   23 1   
    31   18   19 1   
    32   18   54 1   
    33   19   55 1   
    34   20   21 1   
    35   20   56 1   
    36   21   57 1   
    37   22   58 1   
    38   23   24 1   
    39   25   26 1   
    40   25   29 1   
    41   26   27 1   
    42   26   31 1   
    43   27   28 1   
    44   28   29 1   
    45   30   59 1   
    46   30   60 1   
    47   30   61 1   
    48   31   36 1   
    49   32   33 1   
    50   32   62 1   
    51   33   63 1   
    52   34   35 1   
    53   34   64 1   
    54   35   65 1   
    55   36   66 1   
    56   37   38 1   
    57   37   67 1   
    58   37   68 1   
    59   38   69 1   
    60   38   70 1   
    61   39   41 1   
    62   40   41 1   
@<TRIPOS>SUBSTRUCTURE
     1 570         1 TEMP              0 ****  ****    0 ROOT
