@<TRIPOS>MOLECULE
570
   70    74     1     0     0
SMALL
bcc


@<TRIPOS>ATOM
      1 N          -0.8360   -0.1540    3.6260 nh        1 570     -0.693600
      2 CA         -0.9410   -1.5740    3.3180 c3        1 570      0.051500
      3 CB          0.4060   -2.1730    2.8880 c3        1 570     -0.035100
      4 CG          0.9150   -1.6260    1.6030 ca        1 570     -0.075300
      5 CD1         2.0370   -0.7860    1.5760 ca        1 570     -0.100000
      6 CD2         0.2850   -1.9570    0.3990 ca        1 570     -0.100000
      7 CE1         2.5280   -0.2890    0.3740 ca        1 570     -0.177000
      8 CE2         0.7630   -1.4740   -0.8180 ca        1 570     -0.177000
      9 CZ          1.8870   -0.6410   -0.8270 ca        1 570      0.100100
     10 OH          2.4760   -0.1300   -1.9740 os        1 570     -0.348900
     11 C1A        -1.9550    0.5170    4.1110 ca        1 570      0.221600
     12 C1F        -1.8250    1.7840    4.7430 ca        1 570     -0.247600
     13 C1E        -2.9670    2.5500    5.0210 ca        1 570     -0.060000
     14 C1D        -4.2390    2.0680    4.7550 ca        1 570     -0.213000
     15 C1C        -4.3810    0.7910    4.1990 ca        1 570     -0.084000
     16 C1B        -3.2740    0.0260    3.8850 ca        1 570     -0.183000
     17 C1H         0.3820    1.6480    6.0230 ca        1 570     -0.189600
     18 C1I         1.6310    2.2200    6.3200 ca        1 570     -0.075000
     19 C1J         2.5090    1.5870    7.1930 ca        1 570     -0.149500
     20 C1K         2.1540    0.3680    7.7770 ca        1 570     -0.120000
     21 C1L         0.9190   -0.2060    7.4870 ca        1 570     -0.149500
     22 C1M         0.0290    0.4320    6.6190 ca        1 570     -0.075000
     23 C1G        -0.5240    2.3830    5.1080 c         1 570      0.605300
     24 O1G        -0.2170    3.5210    4.7110 o         1 570     -0.569100
     25 O3F         1.7130   -0.1020   -7.7710 os        1 570     -0.386800
     26 C3G         0.4520    0.1980   -7.2100 cc        1 570      0.542900
     27 N3H         0.5380    0.4700   -5.9040 nd        1 570     -0.653000
     28 C3C         1.8990    0.3500   -5.5670 cd        1 570      0.251300
     29 C3D         2.6190   -0.0010   -6.7090 cc        1 570      0.159700
     30 C3E         4.0250   -0.2640   -7.0080 c3        1 570     -0.125400
     31 C3I        -0.6930    0.1630   -8.1030 ca        1 570     -0.129500
     32 C3N        -0.5200   -0.1290   -9.4640 ca        1 570     -0.092500
     33 C3M        -1.6250   -0.1610  -10.3120 ca        1 570     -0.140000
     34 C3L        -2.9010    0.0970   -9.8120 ca        1 570     -0.116000
     35 C3K        -3.0740    0.3880   -8.4590 ca        1 570     -0.140000
     36 C3J        -1.9760    0.4220   -7.6000 ca        1 570     -0.092500
     37 C3A         1.6930   -0.2400   -3.1670 c3        1 570      0.137400
     38 C3B         2.4320    0.5890   -4.2090 c3        1 570     -0.106700
     39 C          -1.4650   -2.4640    4.5030 c         1 570      0.899600
     40 HN          0.0020    0.0580    4.1340 hn        1 570      0.396800
     41 HA         -1.6630   -1.6760    2.4570 h1        1 570      0.057700
     42 HB1         0.2380   -3.2800    2.7810 hc        1 570      0.062700
     43 HB2         1.1600   -2.0280    3.7060 hc        1 570      0.062700
     44 HD1         2.5300   -0.5080    2.5190 ha        1 570      0.137500
     45 HD2        -0.6040   -2.6060    0.4170 ha        1 570      0.137500
     46 HE1         3.4040    0.3730    0.3470 ha        1 570      0.131500
     47 HE2         0.2520   -1.7470   -1.7510 ha        1 570      0.131500
     48 H1E        -2.8340    3.5490    5.4650 ha        1 570      0.123000
     49 H1D        -5.1240    2.6740    4.9850 ha        1 570      0.115000
     50 H1C        -5.3880    0.3870    4.0170 ha        1 570      0.118000
     51 H1B        -3.4090   -0.9980    3.4960 ha        1 570      0.169000
     52 H1I         1.9030    3.1790    5.8510 ha        1 570      0.169000
     53 H1J         3.4830    2.0420    7.4180 ha        1 570      0.136500
     54 H1K         2.8520   -0.1380    8.4590 ha        1 570      0.118000
     55 H1L         0.6330   -1.1820    7.9100 ha        1 570      0.136500
     56 H1M        -0.9340   -0.0680    6.3950 ha        1 570      0.169000
     57 H3E1        4.4750    0.6070   -7.5480 hc        1 570      0.059367
     58 H3E2        4.5880   -0.4300   -6.0560 hc        1 570      0.059367
     59 H3E3        4.1250   -1.1710   -7.6560 hc        1 570      0.059367
     60 H3N         0.4880   -0.3330   -9.8540 ha        1 570      0.153500
     61 H3M        -1.4870   -0.3910  -11.3780 ha        1 570      0.135000
     62 H3L        -3.7710    0.0700  -10.4840 ha        1 570      0.131000
     63 H3K        -4.0800    0.5900   -8.0630 ha        1 570      0.135000
     64 H3J        -2.1180    0.6510   -6.5320 ha        1 570      0.153500
     65 H3A1        0.6590    0.1570   -2.9930 h1        1 570      0.048700
     66 H3A2        1.6380   -1.3170   -3.4740 h1        1 570      0.048700
     67 H3B1        3.5240    0.3290   -4.1860 hc        1 570      0.067200
     68 H3B2        2.3370    1.6780   -3.9490 hc        1 570      0.067200
     69 O2         -2.2990   -3.3560    4.1990 o         1 570     -0.827300
     70 O1         -1.0150   -2.2370    5.6590 o         1 570     -0.827300
@<TRIPOS>BOND
     1    1    2 1   
     2    1   11 1   
     3    1   40 1   
     4    2    3 1   
     5    2   39 1   
     6    2   41 1   
     7    3    4 1   
     8    3   42 1   
     9    3   43 1   
    10    4    5 ar  
    11    4    6 ar  
    12    5    7 ar  
    13    5   44 1   
    14    6    8 ar  
    15    6   45 1   
    16    7    9 ar  
    17    7   46 1   
    18    8    9 ar  
    19    8   47 1   
    20    9   10 1   
    21   10   37 1   
    22   11   12 ar  
    23   11   16 ar  
    24   12   13 ar  
    25   12   23 1   
    26   13   14 ar  
    27   13   48 1   
    28   14   15 ar  
    29   14   49 1   
    30   15   16 ar  
    31   15   50 1   
    32   16   51 1   
    33   17   18 ar  
    34   17   22 ar  
    35   17   23 1   
    36   18   19 ar  
    37   18   52 1   
    38   19   20 ar  
    39   19   53 1   
    40   20   21 ar  
    41   20   54 1   
    42   21   22 ar  
    43   21   55 1   
    44   22   56 1   
    45   23   24 2   
    46   25   26 1   
    47   25   29 1   
    48   26   27 2   
    49   26   31 1   
    50   27   28 1   
    51   28   29 2   
    52   28   38 1   
    53   29   30 1   
    54   30   57 1   
    55   30   58 1   
    56   30   59 1   
    57   31   32 ar  
    58   31   36 ar  
    59   32   33 ar  
    60   32   60 1   
    61   33   34 ar  
    62   33   61 1   
    63   34   35 ar  
    64   34   62 1   
    65   35   36 ar  
    66   35   63 1   
    67   36   64 1   
    68   37   38 1   
    69   37   65 1   
    70   37   66 1   
    71   38   67 1   
    72   38   68 1   
    73   39   69 1   
    74   39   70 1   
@<TRIPOS>SUBSTRUCTURE
     1 570         1 TEMP              0 ****  ****    0 ROOT
