@<TRIPOS>MOLECULE
571
   61    55     1     0     0
SMALL
bcc


@<TRIPOS>ATOM
      1 N1         -5.3980    0.9420   -0.5930 n2        1 571     -0.259000
      2 N2         -3.6310    1.2200    2.8430 n2        1 571     -0.056000
      3 C3         -2.2490    0.2930    1.5180 c1        1 571      0.084500
      4 N4         -2.3670    0.8430    2.6950 n2        1 571     -0.056000
      5 N5         -1.0280   -0.0640    0.8910 n2        1 571     -0.299000
      6 C6          0.1690   -0.1570    1.6660 c2        1 571      0.370000
      7 C7          1.5000   -0.3830    0.9750 c2        1 571     -0.201000
      8 O8          0.1360    0.0760    2.8970 o         1 571     -0.258000
      9 C9          1.4260   -1.6710    1.4250 c2        1 571     -0.065000
     10 C10         2.5890   -2.3560    1.7710 c1        1 571     -0.202000
     11 C11         3.8950   -0.4360    1.2060 c1        1 571     -0.179000
     12 C12         2.7400    0.2460    0.8620 c1        1 571     -0.034000
     13 C13        -4.3270    0.8730    1.6750 c1        1 571      0.084500
     14 C14        -3.5230    0.3280    0.8900 c1        1 571     -0.332000
     15 C15        -3.9880    0.5280   -0.3810 c1        1 571      0.231000
     16 C16        -5.3050    1.7240    0.8300 c1        1 571     -0.001000
     17 N17         5.2000   -1.8030    1.3330 n3        1 571     -0.234000
     18 C18         5.9120   -2.4600    2.3940 c3        1 571     -0.055500
     19 C19         5.5950   -3.9380    2.4720 c3        1 571     -0.098500
     20 N20         5.7520   -4.5980    1.2120 n3        1 571     -0.257000
     21 C21         5.0400   -3.9370    0.1490 c3        1 571     -0.098500
     22 C22         5.3580   -2.4640    0.0710 c3        1 571     -0.055500
     23 C23         5.2730   -6.0210    1.3270 c3        1 571     -0.120000
     24 C24         3.8190   -1.7340    1.6600 c1        1 571      0.120000
     25 C25        -5.3670    1.9700   -1.6270 c2        1 571      0.285000
     26 O26        -6.1680    1.9260   -2.5610 o         1 571     -0.229000
     27 C27        -4.2370    3.7260   -2.9500 c1        1 571     -0.155000
     28 C29        -3.4870    3.2270   -3.9960 c1        1 571     -0.103500
     29 C28        -4.9110    4.9280   -3.0940 c1        1 571     -0.114000
     30 C33        -3.4080    3.9300   -5.1920 c1        1 571     -0.103500
     31 C31        -4.8320    5.6300   -4.2900 c1        1 571     -0.103500
     32 C20        -4.2550    3.0070   -1.6290 c3        1 571      0.094000
     33 C35        -4.0820    5.1310   -5.3360 c1        1 571     -0.103500
     34 O34        -4.4750    3.9390   -0.5870 oh        1 571     -0.347000
     35 H15        -3.4360    0.2670   -1.1480 ha        1 571      0.233000
     36 H161       -6.1290    1.8180    1.3740 ha        1 571      0.175000
     37 H162       -5.0550    2.6510    0.6780 ha        1 571      0.175000
     38 H2         -3.9880    1.6350    3.5820 DU        1 571      0.317000
     39 H5         -0.9870   -0.1490   -0.0690 hn        1 571      0.253000
     40 H9          0.5500   -2.1150    1.5050 ha        1 571      0.125000
     41 H12         2.7930    1.1570    0.5440 ha        1 571      0.157000
     42 H10         2.5380   -3.2400    2.0800 ha        1 571      0.145000
     43 H11         4.7690    0.0060    1.1270 ha        1 571      0.155000
     44 H181        5.6690   -2.0300    3.2660 h1        1 571      0.108250
     45 H182        6.8970   -2.3480    2.2400 h1        1 571      0.108250
     46 H221        4.7700   -2.0490   -0.5780 h1        1 571      0.108250
     47 H222        6.2830   -2.3570   -0.2260 h1        1 571      0.108250
     48 H191        6.1870   -4.3530    3.1200 h1        1 571      0.081500
     49 H192        4.6880   -4.0460    2.7660 h1        1 571      0.081500
     50 H211        5.2740   -4.3540   -0.6940 h1        1 571      0.081500
     51 H212        4.0560   -4.0470    0.3030 h1        1 571      0.081500
     52 H231        4.4420   -6.0490    1.8890 h1        1 571      0.078000
     53 H232        5.0760   -6.3690    0.4400 h1        1 571      0.078000
     54 H233        5.9880   -6.5820    1.7560 h1        1 571      0.078000
     55 H20        -3.4020    2.5650   -1.4930 h1        1 571      0.142000
     56 H28        -5.4370    5.2780   -2.3610 ha        1 571      0.129000
     57 H29        -3.0030    2.3660   -3.8920 ha        1 571      0.149500
     58 H31        -5.3120    6.4850   -4.3920 ha        1 571      0.149500
     59 H33        -2.8860    3.5830   -5.9200 ha        1 571      0.149500
     60 H35        -4.0270    5.6310   -6.1870 ha        1 571      0.149500
     61 H34        -3.6870    4.1800   -0.2310 ho        1 571      0.249000
@<TRIPOS>BOND
     1    1   15 1   
     2    1   25 1   
     3    2    4 1   
     4    2   13 1   
     5    3    4 1   
     6    3   14 1   
     7    5    6 1   
     8    5   39 1   
     9    6    7 1   
    10    6    8 1   
    11    7    9 1   
    12    7   12 1   
    13    9   10 1   
    14    9   40 1   
    15   10   42 1   
    16   11   24 1   
    17   11   43 1   
    18   12   41 1   
    19   13   14 1   
    20   15   35 1   
    21   16   36 1   
    22   16   37 1   
    23   17   18 1   
    24   17   22 1   
    25   17   24 1   
    26   18   19 1   
    27   18   44 1   
    28   18   45 1   
    29   19   20 1   
    30   19   48 1   
    31   19   49 1   
    32   20   21 1   
    33   20   23 1   
    34   21   22 1   
    35   21   50 1   
    36   21   51 1   
    37   22   46 1   
    38   22   47 1   
    39   23   52 1   
    40   23   53 1   
    41   23   54 1   
    42   25   26 1   
    43   25   32 1   
    44   27   29 1   
    45   27   32 1   
    46   28   30 1   
    47   28   57 1   
    48   29   56 1   
    49   30   59 1   
    50   31   33 1   
    51   31   58 1   
    52   32   34 1   
    53   32   55 1   
    54   33   60 1   
    55   34   61 1   
@<TRIPOS>SUBSTRUCTURE
     1 571         1 TEMP              0 ****  ****    0 ROOT
