@<TRIPOS>MOLECULE
571
   61    65     1     0     0
SMALL
bcc


@<TRIPOS>ATOM
      1 N1          3.9340   -0.1280   -0.9820 n         1 571     -0.366400
      2 N2          2.6710    3.2320   -0.2720 na        1 571      0.127400
      3 C3          0.8720    1.9170   -0.3390 cc        1 571      0.608200
      4 N4          1.3220    3.2220   -0.1490 nd        1 571     -0.521800
      5 N5         -0.4140    1.4660   -0.2960 n         1 571     -0.528400
      6 C6         -1.5870    2.2690   -0.1380 c         1 571      0.699700
      7 C7         -2.8530    1.5220   -0.0330 ca        1 571     -0.242600
      8 O8         -1.4970    3.5000   -0.1320 o         1 571     -0.501100
      9 C9         -4.0060    2.1110   -0.5770 ca        1 571     -0.034000
     10 C10        -5.2330    1.4770   -0.4980 ca        1 571     -0.213000
     11 C11        -4.1900   -0.3570    0.7070 ca        1 571     -0.213000
     12 C12        -2.9670    0.2860    0.6130 ca        1 571     -0.034000
     13 C13         3.1770    2.0180   -0.5300 cd        1 571     -0.065600
     14 C14         2.0440    1.0700   -0.5920 cc        1 571     -0.473200
     15 C15         2.5640   -0.1940   -0.8630 ce        1 571      0.440100
     16 C16         4.4380    1.2550   -0.7970 c3        1 571      0.129300
     17 N17        -6.6190   -0.3700    0.3380 nh        1 571     -0.641000
     18 C18        -6.6550   -1.7580    0.7590 c3        1 571      0.202300
     19 C19        -8.0640   -2.3290    1.0100 c3        1 571      0.158800
     20 N20        -9.0130   -1.9680   -0.0300 n3        1 571     -0.728600
     21 C21        -9.0870   -0.5240   -0.1750 c3        1 571      0.158800
     22 C22        -7.7200    0.1190   -0.4710 c3        1 571      0.202300
     23 C23       -10.3090   -2.5820    0.1550 c3        1 571      0.153100
     24 C24        -5.3740    0.2250    0.1660 ca        1 571      0.232600
     25 C25         4.7860   -1.2530   -1.1930 c         1 571      0.637100
     26 O26         4.2610   -2.3610   -1.3140 o         1 571     -0.495100
     27 C27         6.8390   -1.0100    0.1570 ca        1 571     -0.176300
     28 C29         6.6470   -2.1130    0.9970 ca        1 571     -0.116000
     29 C28         7.5660    0.0950    0.6130 ca        1 571     -0.116000
     30 C33         7.1770   -2.1080    2.2860 ca        1 571     -0.117000
     31 C31         8.0940    0.0960    1.9040 ca        1 571     -0.117000
     32 C20         6.3090   -1.0230   -1.2440 c3        1 571      0.165400
     33 C35         7.9000   -1.0040    2.7400 ca        1 571     -0.095000
     34 O34         6.8650   -2.0190   -2.0610 oh        1 571     -0.545800
     35 H15         2.0380   -1.1580   -0.9810 h4        1 571      0.097800
     36 H161        5.1650    1.2850    0.0650 h1        1 571      0.128200
     37 H162        4.9450    1.6080   -1.7400 h1        1 571      0.128200
     38 H2          3.1480    4.1090   -0.1640 hn        1 571      0.366700
     39 H5         -0.5450    0.4850   -0.4260 hn        1 571      0.339500
     40 H9         -3.9260    3.0940   -1.0720 ha        1 571      0.138500
     41 H12        -2.0910   -0.1890    1.0820 ha        1 571      0.138500
     42 H10        -6.1000    1.9740   -0.9580 ha        1 571      0.148000
     43 H11        -4.2250   -1.3290    1.2220 ha        1 571      0.148000
     44 H181       -6.1340   -2.4040   -0.0060 h1        1 571      0.049950
     45 H182       -6.1000   -1.8440    1.7370 h1        1 571      0.049950
     46 H221       -7.8390    1.2240   -0.2710 h1        1 571      0.049950
     47 H222       -7.4820   -0.0220   -1.5650 h1        1 571      0.049950
     48 H191       -7.9710   -3.4510    1.0290 h1        1 571      0.048200
     49 H192       -8.4120   -1.9920    2.0300 h1        1 571      0.048200
     50 H211       -9.7620   -0.2910   -1.0460 h1        1 571      0.048200
     51 H212       -9.5250   -0.0330    0.7440 h1        1 571      0.048200
     52 H231      -10.8260   -2.2560    1.0990 h1        1 571      0.041033
     53 H232      -10.9590   -2.3170   -0.7200 h1        1 571      0.041033
     54 H233      -10.1780   -3.6950    0.1830 h1        1 571      0.041033
     55 H20         6.5410   -0.0600   -1.7880 h1        1 571      0.103700
     56 H28         7.7480    0.9520   -0.0530 ha        1 571      0.138500
     57 H29         6.0800   -2.9860    0.6360 ha        1 571      0.138500
     58 H31         8.6760    0.9610    2.2570 ha        1 571      0.153500
     59 H33         7.0300   -2.9810    2.9420 ha        1 571      0.153500
     60 H35         8.3250   -1.0040    3.7570 ha        1 571      0.155000
     61 H34         6.8430   -2.8620   -1.5840 ho        1 571      0.435000
@<TRIPOS>BOND
     1    1   15 2   
     2    1   16 1   
     3    1   25 1   
     4    2    4 1   
     5    2   13 1   
     6    2   38 1   
     7    3    4 2   
     8    3    5 1   
     9    3   14 1   
    10    5    6 1   
    11    5   39 1   
    12    6    7 1   
    13    6    8 2   
    14    7    9 ar  
    15    7   12 ar  
    16    9   10 ar  
    17    9   40 1   
    18   10   24 ar  
    19   10   42 1   
    20   11   12 ar  
    21   11   24 ar  
    22   11   43 1   
    23   12   41 1   
    24   13   14 2   
    25   13   16 1   
    26   14   15 1   
    27   15   35 1   
    28   16   36 1   
    29   16   37 1   
    30   17   18 1   
    31   17   22 1   
    32   17   24 1   
    33   18   19 1   
    34   18   44 1   
    35   18   45 1   
    36   19   20 1   
    37   19   48 1   
    38   19   49 1   
    39   20   21 1   
    40   20   23 1   
    41   21   22 1   
    42   21   50 1   
    43   21   51 1   
    44   22   46 1   
    45   22   47 1   
    46   23   52 1   
    47   23   53 1   
    48   23   54 1   
    49   25   26 2   
    50   25   32 1   
    51   27   28 ar  
    52   27   29 ar  
    53   27   32 1   
    54   28   30 ar  
    55   28   57 1   
    56   29   31 ar  
    57   29   56 1   
    58   30   33 ar  
    59   30   59 1   
    60   31   33 ar  
    61   31   58 1   
    62   32   34 1   
    63   32   55 1   
    64   33   60 1   
    65   34   61 1   
@<TRIPOS>SUBSTRUCTURE
     1 571         1 TEMP              0 ****  ****    0 ROOT
