@<TRIPOS>MOLECULE
571
   61    65     1     0     0
SMALL
bcc


@<TRIPOS>ATOM
      1 N1          0.0040   -0.0220    0.1370 n         1 571     -0.365400
      2 N2          1.2230    0.7120    3.5090 na        1 571      0.126400
      3 C3          3.0440    0.2860    2.2940 cc        1 571      0.608200
      4 N4          2.5750    0.6280    3.5610 nd        1 571     -0.521800
      5 N5          4.3380    0.1060    1.9080 ns        1 571     -0.529400
      6 C6          5.4870    0.1300    2.7610 c         1 571      0.699700
      7 C7          6.7850    0.0140    2.0740 ca        1 571     -0.243600
      8 O8          5.3450    0.2060    3.9840 o         1 571     -0.502100
      9 C9          7.8200   -0.6590    2.7420 ca        1 571     -0.034000
     10 C10         9.0720   -0.7890    2.1680 ca        1 571     -0.213000
     11 C11         8.2950    0.4590    0.2330 ca        1 571     -0.213000
     12 C12         7.0460    0.5730    0.8170 ca        1 571     -0.034000
     13 C13         0.7340    0.4520    2.2890 cd        1 571     -0.063600
     14 C14         1.8830    0.1560    1.4050 cc        1 571     -0.472200
     15 C15         1.3790   -0.1190    0.1370 ce        1 571      0.436100
     16 C16        -0.5190    0.3460    1.4740 c3        1 571      0.128300
     17 N17        10.6430   -0.2540    0.3580 nh        1 571     -0.641000
     18 C18        10.8000    0.0870   -1.0430 c3        1 571      0.202300
     19 C19        12.2540    0.1050   -1.5530 c3        1 571      0.158800
     20 N20        13.0250   -1.0400   -1.1010 n3        1 571     -0.728600
     21 C21        13.0150   -1.1210    0.3500 c3        1 571      0.158800
     22 C22        11.5930   -1.1860    0.9370 c3        1 571      0.202300
     23 C23        14.3600   -1.0740   -1.6560 c3        1 571      0.153100
     24 C24         9.3620   -0.2160    0.8960 ca        1 571      0.233600
     25 C25        -0.8050   -0.2530   -1.0130 c         1 571      0.627100
     26 O26        -0.2400   -0.6500   -2.0350 o         1 571     -0.497100
     27 C27        -2.6990    1.3450   -0.5280 ca        1 571     -0.140300
     28 C29        -2.4200    2.4270   -1.3690 ca        1 571     -0.110000
     29 C28        -3.3970    1.5510    0.6680 ca        1 571     -0.110000
     30 C33        -2.8110    3.7140   -1.0000 ca        1 571     -0.125500
     31 C31        -3.7860    2.8390    1.0320 ca        1 571     -0.125500
     32 C20        -2.3300   -0.0470   -0.9420 c3        1 571      0.167400
     33 C35        -3.4900    3.9210    0.2010 ca        1 571     -0.097000
     34 O34        -2.8510   -0.2530   -2.2370 oh        1 571     -0.543800
     35 H15         1.9220   -0.3870   -0.7890 h4        1 571      0.097800
     36 H161       -1.0760    1.3270    1.4130 h1        1 571      0.131700
     37 H162       -1.2080   -0.4600    1.8530 h1        1 571      0.131700
     38 H2          0.7320    0.9510    4.3520 hn        1 571      0.366700
     39 H5          4.4890   -0.0950    0.9420 hn        1 571      0.339500
     40 H9          7.6270   -1.0870    3.7410 ha        1 571      0.139000
     41 H12         6.2680    1.1380    0.2790 ha        1 571      0.139000
     42 H10         9.8410   -1.3420    2.7280 ha        1 571      0.148000
     43 H11         8.4470    0.9130   -0.7570 ha        1 571      0.148000
     44 H181       10.3970    1.1290   -1.2000 h1        1 571      0.049950
     45 H182       10.2020   -0.6270   -1.6810 h1        1 571      0.049950
     46 H221       11.2050   -2.2410    0.8330 h1        1 571      0.049950
     47 H222       11.6920   -0.9490    2.0360 h1        1 571      0.049950
     48 H191       12.2140    0.0810   -2.6790 h1        1 571      0.048200
     49 H192       12.7320    1.0810   -1.2440 h1        1 571      0.048200
     50 H211       13.5460   -2.0670    0.6550 h1        1 571      0.048200
     51 H212       13.5600   -0.2510    0.8220 h1        1 571      0.048200
     52 H231       14.2830   -1.0830   -2.7750 h1        1 571      0.041033
     53 H232       14.9940   -0.1980   -1.3460 h1        1 571      0.041033
     54 H233       14.8640   -2.0180   -1.3210 h1        1 571      0.041033
     55 H20        -2.7380   -0.8150   -0.2210 h1        1 571      0.072700
     56 H28        -3.6680    0.6970    1.3070 ha        1 571      0.144000
     57 H29        -1.9190    2.2520   -2.3350 ha        1 571      0.144000
     58 H31        -4.3460    3.0000    1.9660 ha        1 571      0.152500
     59 H33        -2.5960    4.5640   -1.6670 ha        1 571      0.152500
     60 H35        -3.8080    4.9360    0.4860 ha        1 571      0.154000
     61 H34        -2.6100   -1.1470   -2.5220 ho        1 571      0.430000
@<TRIPOS>BOND
     1    1   15 2   
     2    1   16 1   
     3    1   25 1   
     4    2    4 1   
     5    2   13 1   
     6    2   38 1   
     7    3    4 2   
     8    3    5 1   
     9    3   14 1   
    10    5    6 1   
    11    5   39 1   
    12    6    7 1   
    13    6    8 2   
    14    7    9 ar  
    15    7   12 ar  
    16    9   10 ar  
    17    9   40 1   
    18   10   24 ar  
    19   10   42 1   
    20   11   12 ar  
    21   11   24 ar  
    22   11   43 1   
    23   12   41 1   
    24   13   14 2   
    25   13   16 1   
    26   14   15 1   
    27   15   35 1   
    28   16   36 1   
    29   16   37 1   
    30   17   18 1   
    31   17   22 1   
    32   17   24 1   
    33   18   19 1   
    34   18   44 1   
    35   18   45 1   
    36   19   20 1   
    37   19   48 1   
    38   19   49 1   
    39   20   21 1   
    40   20   23 1   
    41   21   22 1   
    42   21   50 1   
    43   21   51 1   
    44   22   46 1   
    45   22   47 1   
    46   23   52 1   
    47   23   53 1   
    48   23   54 1   
    49   25   26 2   
    50   25   32 1   
    51   27   28 ar  
    52   27   29 ar  
    53   27   32 1   
    54   28   30 ar  
    55   28   57 1   
    56   29   31 ar  
    57   29   56 1   
    58   30   33 ar  
    59   30   59 1   
    60   31   33 ar  
    61   31   58 1   
    62   32   34 1   
    63   32   55 1   
    64   33   60 1   
    65   34   61 1   
@<TRIPOS>SUBSTRUCTURE
     1 571         1 TEMP              0 ****  ****    0 ROOT
