@<TRIPOS>MOLECULE
571
   62    66     1     0     0
SMALL
bcc


@<TRIPOS>ATOM
      1 N1          0.1760    0.1550    0.8510 n         1 571     -0.303400
      2 N2          1.8450    3.0720    2.3590 na        1 571      0.097400
      3 C3          3.3000    2.1620    0.9670 cc        1 571      0.495200
      4 N4          3.0890    3.1830    1.8790 nd        1 571     -0.435800
      5 N5          4.5420    1.9840    0.2480 n4        1 571     -0.659500
      6 C6          5.0420    0.4970    0.1590 c         1 571      0.612700
      7 C7          6.4490    0.3230    0.1210 ca        1 571     -0.322600
      8 O8          4.1200   -0.3130    0.1120 o         1 571     -0.532100
      9 C9          6.9140   -1.0280    0.1500 ca        1 571      0.007000
     10 C10         8.2460   -1.3310    0.1250 ca        1 571     -0.223000
     11 C11         8.7640    1.0590   -0.0030 ca        1 571     -0.223000
     12 C12         7.4280    1.3460    0.0260 ca        1 571      0.007000
     13 C13         1.1870    2.0130    1.8080 cd        1 571     -0.047600
     14 C14         2.1030    1.3700    0.8750 cc        1 571     -0.387200
     15 C15         1.4220    0.2310    0.3350 ce        1 571      0.464100
     16 C16        -0.1030    1.2520    1.8150 c3        1 571      0.105300
     17 N17        10.5770   -0.5840    0.1180 nh        1 571     -0.571000
     18 C18        11.5530    0.4840   -0.0480 c3        1 571      0.187800
     19 C19        13.0170    0.1090    0.2560 c3        1 571      0.156300
     20 N20        13.3660   -1.2100   -0.2390 n3        1 571     -0.729600
     21 C21        12.5110   -2.2120    0.3710 c3        1 571      0.156300
     22 C22        11.0180   -1.9720    0.0780 c3        1 571      0.187800
     23 C23        14.7760   -1.5110   -0.1260 c3        1 571      0.151100
     24 C24         9.2530   -0.3000    0.0780 ca        1 571      0.288600
     25 C25        -0.7850   -0.8900    0.5100 c         1 571      0.615100
     26 O26        -0.3350   -1.8420   -0.1140 o         1 571     -0.436100
     27 C27        -2.8660    0.5380    0.5000 ca        1 571     -0.165300
     28 C29        -3.0780    0.7790   -0.8620 ca        1 571     -0.113000
     29 C28        -3.3280    1.4560    1.4540 ca        1 571     -0.113000
     30 C33        -3.7200    1.9500   -1.2690 ca        1 571     -0.121500
     31 C31        -3.9680    2.6220    1.0410 ca        1 571     -0.121500
     32 C20        -2.2600   -0.7540    0.9520 c3        1 571      0.184400
     33 C35        -4.1630    2.8710   -0.3200 ca        1 571     -0.087000
     34 O34        -2.9580   -1.7990    0.3220 oh        1 571     -0.527800
     35 H15         1.8270   -0.5140   -0.3850 h4        1 571      0.133800
     36 H161       -0.3460    0.8210    2.8280 h1        1 571      0.161200
     37 H162       -0.9800    1.8720    1.4470 h1        1 571      0.161200
     38 H2          1.5190    3.7430    3.0390 hn        1 571      0.391700
     39 H5          4.4030    2.3260   -0.7120 hn        1 571      0.474800
     40 H9          6.1660   -1.8410    0.1890 ha        1 571      0.140500
     41 H12         7.1400    2.4070   -0.0570 ha        1 571      0.140500
     42 H10         8.5420   -2.3930    0.1300 ha        1 571      0.169000
     43 H11         9.4780    1.8930   -0.1070 ha        1 571      0.169000
     44 H181       11.4870    0.8530   -1.1130 h1        1 571      0.070950
     45 H182       11.2860    1.3300    0.6500 h1        1 571      0.070950
     46 H221       10.4400   -2.5570    0.8510 h1        1 571      0.070950
     47 H222       10.7770   -2.3820   -0.9460 h1        1 571      0.070950
     48 H191       13.6670    0.8710   -0.2620 h1        1 571      0.061950
     49 H192       13.1890    0.2050    1.3680 h1        1 571      0.061950
     50 H211       12.7750   -3.2190   -0.0620 h1        1 571      0.061950
     51 H212       12.6540   -2.2680    1.4900 h1        1 571      0.061950
     52 H231       15.3540   -0.7310   -0.6870 h1        1 571      0.052033
     53 H232       14.9660   -2.5110   -0.5990 h1        1 571      0.052033
     54 H233       15.1390   -1.5380    0.9380 h1        1 571      0.052033
     55 H20        -2.2760   -0.8540    2.0760 h1        1 571      0.082700
     56 H28        -3.2310    1.2380    2.5290 ha        1 571      0.146000
     57 H29        -2.7760    0.0240   -1.6050 ha        1 571      0.146000
     58 H31        -4.3500    3.3340    1.7900 ha        1 571      0.161500
     59 H33        -3.8990    2.1310   -2.3420 ha        1 571      0.161500
     60 H35        -4.6870    3.7860   -0.6420 ha        1 571      0.164000
     61 H34        -2.7290   -2.6320    0.7600 ho        1 571      0.438000
     62 H52         5.2800    2.5480    0.6950 hn        1 571      0.474800
@<TRIPOS>BOND
     1    1   15 2   
     2    1   16 1   
     3    1   25 1   
     4    2    4 1   
     5    2   13 1   
     6    2   38 1   
     7    3    4 2   
     8    3    5 1   
     9    3   14 1   
    10    5    6 1   
    11    5   39 1   
    12    5   62 1   
    13    6    7 1   
    14    6    8 2   
    15    7    9 ar  
    16    7   12 ar  
    17    9   10 ar  
    18    9   40 1   
    19   10   24 ar  
    20   10   42 1   
    21   11   12 ar  
    22   11   24 ar  
    23   11   43 1   
    24   12   41 1   
    25   13   14 2   
    26   13   16 1   
    27   14   15 1   
    28   15   35 1   
    29   16   36 1   
    30   16   37 1   
    31   17   18 1   
    32   17   22 1   
    33   17   24 1   
    34   18   19 1   
    35   18   44 1   
    36   18   45 1   
    37   19   20 1   
    38   19   48 1   
    39   19   49 1   
    40   20   21 1   
    41   20   23 1   
    42   21   22 1   
    43   21   50 1   
    44   21   51 1   
    45   22   46 1   
    46   22   47 1   
    47   23   52 1   
    48   23   53 1   
    49   23   54 1   
    50   25   26 2   
    51   25   32 1   
    52   27   28 ar  
    53   27   29 ar  
    54   27   32 1   
    55   28   30 ar  
    56   28   57 1   
    57   29   31 ar  
    58   29   56 1   
    59   30   33 ar  
    60   30   59 1   
    61   31   33 ar  
    62   31   58 1   
    63   32   34 1   
    64   32   55 1   
    65   33   60 1   
    66   34   61 1   
@<TRIPOS>SUBSTRUCTURE
     1 571         1 TEMP              0 ****  ****    0 ROOT
