@<TRIPOS>MOLECULE
571
   61    65     1     0     0
SMALL
bcc


@<TRIPOS>ATOM
      1 N1          0.0040   -0.0140    0.1240 n         1 571     -0.365400
      2 N2          1.2170    0.6940    3.5050 na        1 571      0.126400
      3 C3          3.0400    0.2750    2.2900 cc        1 571      0.608200
      4 N4          2.5690    0.6080    3.5580 nd        1 571     -0.521800
      5 N5          4.3350    0.0970    1.9050 n         1 571     -0.529400
      6 C6          5.4820    0.1160    2.7600 c         1 571      0.699700
      7 C7          6.7820    0.0030    2.0740 ca        1 571     -0.243600
      8 O8          5.3390    0.1860    3.9830 o         1 571     -0.502100
      9 C9          7.8150   -0.6730    2.7420 ca        1 571     -0.034000
     10 C10         9.0680   -0.8010    2.1700 ca        1 571     -0.213000
     11 C11         8.2950    0.4530    0.2380 ca        1 571     -0.213000
     12 C12         7.0440    0.5660    0.8200 ca        1 571     -0.034000
     13 C13         0.7300    0.4430    2.2820 cd        1 571     -0.063600
     14 C14         1.8800    0.1530    1.3980 cc        1 571     -0.472200
     15 C15         1.3790   -0.1130    0.1260 ce        1 571      0.436100
     16 C16        -0.5210    0.3440    1.4640 c3        1 571      0.128300
     17 N17        10.6430   -0.2610    0.3640 nh        1 571     -0.641000
     18 C18        10.8020    0.0840   -1.0360 c3        1 571      0.202300
     19 C19        12.2560    0.1040   -1.5440 c3        1 571      0.158800
     20 N20        13.0280   -1.0420   -1.0920 n3        1 571     -0.728600
     21 C21        13.0150   -1.1270    0.3590 c3        1 571      0.158800
     22 C22        11.5910   -1.1940    0.9430 c3        1 571      0.202300
     23 C23        14.3630   -1.0740   -1.6460 c3        1 571      0.153100
     24 C24         9.3600   -0.2240    0.9000 ca        1 571      0.233600
     25 C25        -0.8030   -0.2350   -1.0290 c         1 571      0.627100
     26 O26        -0.2370   -0.6260   -2.0520 o         1 571     -0.497100
     27 C27        -2.6960    1.3600   -0.5350 ca        1 571     -0.140300
     28 C29        -2.4140    2.4490   -1.3660 ca        1 571     -0.110000
     29 C28        -3.3970    1.5580    0.6620 ca        1 571     -0.110000
     30 C33        -2.8040    3.7340   -0.9870 ca        1 571     -0.125500
     31 C31        -3.7850    2.8430    1.0350 ca        1 571     -0.125500
     32 C20        -2.3280   -0.0290   -0.9590 c3        1 571      0.167400
     33 C35        -3.4860    3.9320    0.2130 ca        1 571     -0.097000
     34 O34        -2.8460   -0.2230   -2.2570 oh        1 571     -0.543800
     35 H15         1.9230   -0.3730   -0.8000 h4        1 571      0.097800
     36 H161       -1.2120   -0.4640    1.8350 h1        1 571      0.131700
     37 H162       -1.0770    1.3260    1.4090 h1        1 571      0.131700
     38 H2          0.7250    0.9260    4.3490 hn        1 571      0.366700
     39 H5          4.4880   -0.0980    0.9380 hn        1 571      0.339500
     40 H9          7.6200   -1.1050    3.7390 ha        1 571      0.139000
     41 H12         6.2680    1.1330    0.2830 ha        1 571      0.139000
     42 H10         9.8360   -1.3570    2.7290 ha        1 571      0.148000
     43 H11         8.4480    0.9110   -0.7500 ha        1 571      0.148000
     44 H181       10.2040   -0.6280   -1.6760 h1        1 571      0.049950
     45 H182       10.3990    1.1260   -1.1900 h1        1 571      0.049950
     46 H221       11.2050   -2.2490    0.8350 h1        1 571      0.049950
     47 H222       11.6880   -0.9600    2.0420 h1        1 571      0.049950
     48 H191       12.7330    1.0790   -1.2320 h1        1 571      0.048200
     49 H192       12.2180    0.0820   -2.6690 h1        1 571      0.048200
     50 H211       13.5590   -0.2570    0.8330 h1        1 571      0.048200
     51 H212       13.5460   -2.0730    0.6620 h1        1 571      0.048200
     52 H231       14.9960   -0.1990   -1.3330 h1        1 571      0.041033
     53 H232       14.2880   -1.0810   -2.7640 h1        1 571      0.041033
     54 H233       14.8670   -2.0190   -1.3120 h1        1 571      0.041033
     55 H20        -2.7380   -0.8010   -0.2450 h1        1 571      0.072700
     56 H28        -3.6700    0.6980    1.2930 ha        1 571      0.144000
     57 H29        -1.9110    2.2810   -2.3330 ha        1 571      0.144000
     58 H31        -4.3470    2.9970    1.9700 ha        1 571      0.152500
     59 H33        -2.5870    4.5880   -1.6470 ha        1 571      0.152500
     60 H35        -3.8040    4.9450    0.5070 ha        1 571      0.154000
     61 H34        -2.6060   -1.1150   -2.5490 ho        1 571      0.430000
@<TRIPOS>BOND
     1    1   15 2   
     2    1   16 1   
     3    1   25 1   
     4    2    4 1   
     5    2   13 1   
     6    2   38 1   
     7    3    4 2   
     8    3    5 1   
     9    3   14 1   
    10    5    6 1   
    11    5   39 1   
    12    6    7 1   
    13    6    8 2   
    14    7    9 ar  
    15    7   12 ar  
    16    9   10 ar  
    17    9   40 1   
    18   10   24 ar  
    19   10   42 1   
    20   11   12 ar  
    21   11   24 ar  
    22   11   43 1   
    23   12   41 1   
    24   13   14 2   
    25   13   16 1   
    26   14   15 1   
    27   15   35 1   
    28   16   36 1   
    29   16   37 1   
    30   17   18 1   
    31   17   22 1   
    32   17   24 1   
    33   18   19 1   
    34   18   44 1   
    35   18   45 1   
    36   19   20 1   
    37   19   48 1   
    38   19   49 1   
    39   20   21 1   
    40   20   23 1   
    41   21   22 1   
    42   21   50 1   
    43   21   51 1   
    44   22   46 1   
    45   22   47 1   
    46   23   52 1   
    47   23   53 1   
    48   23   54 1   
    49   25   26 2   
    50   25   32 1   
    51   27   28 ar  
    52   27   29 ar  
    53   27   32 1   
    54   28   30 ar  
    55   28   57 1   
    56   29   31 ar  
    57   29   56 1   
    58   30   33 ar  
    59   30   59 1   
    60   31   33 ar  
    61   31   58 1   
    62   32   34 1   
    63   32   55 1   
    64   33   60 1   
    65   34   61 1   
@<TRIPOS>SUBSTRUCTURE
     1 571         1 TEMP              0 ****  ****    0 ROOT
