@<TRIPOS>MOLECULE
572
   39    40     1     0     0
SMALL
bcc


@<TRIPOS>ATOM
      1 O30        -1.9810   -0.3460   -6.2630 oh        1 572     -0.586800
      2 C14        -1.7880    0.5640   -5.2080 c3        1 572      0.101100
      3 C7         -0.5130    0.2690   -4.4120 ca        1 572      0.633300
      4 N4         -0.6410    0.1880   -3.0600 nb        1 572     -0.744000
      5 C2          0.4960   -0.0650   -2.3310 ca        1 572      0.665200
      6 C5          1.7520   -0.2190   -2.9960 ca        1 572     -0.396600
      7 C6          1.7580   -0.1050   -4.3930 ca        1 572      0.451200
      8 N3          0.6530    0.1410   -5.1200 nb        1 572     -0.730000
      9 N1          0.4150   -0.2650   -0.9310 nh        1 572     -0.737300
     10 C19        -0.9100   -0.2400   -0.3280 c3        1 572      0.179300
     11 C15        -0.8920   -0.6850    1.1520 c3        1 572      0.218800
     12 N17         0.1190   -0.0330    1.9410 n3        1 572     -0.817500
     13 S28        -0.1910    0.6570    3.3960 s6        1 572      1.564800
     14 O25        -1.5490    1.0730    3.4190 o         1 572     -0.643300
     15 N22         0.0130   -0.5390    4.4930 n3        1 572     -0.812500
     16 C13         1.2840   -0.8160    5.0920 c3        1 572      0.204600
     17 C11        -1.0520   -1.4180    4.8700 c3        1 572      0.204600
     18 O12         0.7830    1.6660    3.6290 o         1 572     -0.643300
     19 C16         1.4250   -0.0350    1.3390 c3        1 572      0.218800
     20 C18         1.4230    0.4240   -0.1380 c3        1 572      0.179300
     21 H30        -1.2420   -0.2580   -6.8790 ho        1 572      0.417000
     22 H141       -2.7010    0.4480   -4.5630 h1        1 572      0.069200
     23 H142       -1.7180    1.6180   -5.5910 h1        1 572      0.069200
     24 H5          2.6780   -0.4410   -2.4550 ha        1 572      0.155000
     25 H6          2.6980   -0.2170   -4.9650 h4        1 572      0.028100
     26 H191       -1.5730   -0.9610   -0.8840 h1        1 572      0.058700
     27 H192       -1.3700    0.7880   -0.3960 h1        1 572      0.058700
     28 H151       -0.7310   -1.8020    1.1890 h1        1 572      0.060450
     29 H152       -1.9080   -0.4520    1.5840 h1        1 572      0.060450
     30 H131        1.1900   -0.8480    6.2110 h1        1 572      0.045867
     31 H132        1.6800   -1.8100    4.7460 h1        1 572      0.045867
     32 H133        2.0190   -0.0100    4.8200 h1        1 572      0.045867
     33 H111       -1.1600   -1.4450    5.9880 h1        1 572      0.045867
     34 H112       -2.0200   -1.0550    4.4280 h1        1 572      0.045867
     35 H113       -0.8520   -2.4650    4.5120 h1        1 572      0.045867
     36 H161        2.1010    0.6660    1.9080 h1        1 572      0.060450
     37 H162        1.8590   -1.0760    1.3880 h1        1 572      0.060450
     38 H181        2.4440    0.2010   -0.5540 h1        1 572      0.058700
     39 H182        1.2650    1.5410   -0.1720 h1        1 572      0.058700
@<TRIPOS>BOND
     1    1    2 1   
     2    1   21 1   
     3    2    3 1   
     4    2   22 1   
     5    2   23 1   
     6    3    4 ar  
     7    3    8 ar  
     8    4    5 ar  
     9    5    6 ar  
    10    5    9 1   
    11    6    7 ar  
    12    6   24 1   
    13    7    8 ar  
    14    7   25 1   
    15    9   10 1   
    16    9   20 1   
    17   10   11 1   
    18   10   26 1   
    19   10   27 1   
    20   11   12 1   
    21   11   28 1   
    22   11   29 1   
    23   12   13 1   
    24   12   19 1   
    25   13   14 2   
    26   13   15 1   
    27   13   18 2   
    28   15   16 1   
    29   15   17 1   
    30   16   30 1   
    31   16   31 1   
    32   16   32 1   
    33   17   33 1   
    34   17   34 1   
    35   17   35 1   
    36   19   20 1   
    37   19   36 1   
    38   19   37 1   
    39   20   38 1   
    40   20   39 1   
@<TRIPOS>SUBSTRUCTURE
     1 572         1 TEMP              0 ****  ****    0 ROOT
