@<TRIPOS>MOLECULE
572
   40    40     1     0     0
SMALL
bcc


@<TRIPOS>ATOM
      1 O30        -0.1480   -0.7120   -0.0150 oh        1 572     -0.576800
      2 C14         1.1980   -0.3100   -0.0120 c3        1 572      0.101100
      3 C7          1.7110   -0.1020    1.4190 ca        1 572      0.637300
      4 N4          2.1990    1.1310    1.7340 nb        1 572     -0.735000
      5 C2          2.6430    1.3140    3.0160 ca        1 572      0.623200
      6 C5          2.6140    0.2550    3.9620 ca        1 572     -0.365600
      7 C6          2.0960   -0.9770    3.5190 ca        1 572      0.457200
      8 N3          1.6470   -1.1750    2.2690 nb        1 572     -0.693000
      9 N1          3.0870    2.6080    3.4490 nh        1 572     -0.734300
     10 C19         2.7210    3.7310    2.5990 c3        1 572      0.171300
     11 C15         3.0570    5.0770    3.2770 c3        1 572      0.195300
     12 N17         4.4410    5.1530    3.7410 n3        1 572     -0.819300
     13 S28         5.3840    6.3210    3.4080 s4        1 572      1.626700
     14 O25         4.9520    7.2220    2.4670 o         1 572     -0.428900
     15 N22         4.9230    7.6330    5.1630 n3        1 572     -0.921200
     16 C13         5.2890    6.9990    6.4230 c3        1 572      0.089600
     17 C11         3.5390    8.0930    5.1360 c3        1 572      0.089600
     18 O12         6.7100    6.1550    3.7230 o         1 572     -0.428900
     19 C16         4.8430    3.9880    4.5250 c3        1 572      0.195300
     20 C18         4.4880    2.6480    3.8420 c3        1 572      0.171300
     21 H30        -0.1980   -1.6080    0.3440 ho        1 572      0.421000
     22 H141        1.2110    0.6550   -0.5870 h1        1 572      0.075700
     23 H142        1.8590   -1.0680   -0.5120 h1        1 572      0.075700
     24 H5          2.9540    0.3820    4.9960 ha        1 572      0.160000
     25 H6          2.0370   -1.8450    4.2030 h4        1 572      0.045100
     26 H191        1.6050    3.7090    2.4360 h1        1 572      0.078200
     27 H192        3.2240    3.6920    1.5900 h1        1 572      0.078200
     28 H151        2.8660    5.9020    2.5310 h1        1 572      0.085700
     29 H152        2.3810    5.2230    4.1700 h1        1 572      0.085700
     30 H131        6.3630    6.6720    6.3680 h1        1 572      0.082367
     31 H132        4.6300    6.1070    6.6020 h1        1 572      0.082367
     32 H133        5.1730    7.7000    7.2940 h1        1 572      0.082367
     33 H111        3.3310    8.5660    4.1370 h1        1 572      0.082367
     34 H112        2.8490    7.2210    5.2930 h1        1 572      0.082367
     35 H113        3.3340    8.8510    5.9410 h1        1 572      0.082367
     36 H161        5.9590    4.0120    4.6890 h1        1 572      0.085700
     37 H162        4.3220    4.0420    5.5250 h1        1 572      0.085700
     38 H181        5.1790    2.4890    2.9650 h1        1 572      0.078200
     39 H182        4.6780    1.8300    4.5930 h1        1 572      0.078200
     40 H221        5.5300    8.4330    5.0160 hn        1 572      0.418800
@<TRIPOS>BOND
     1    1    2 1   
     2    1   21 1   
     3    2    3 1   
     4    2   22 1   
     5    2   23 1   
     6    3    4 ar  
     7    3    8 ar  
     8    4    5 ar  
     9    5    6 ar  
    10    5    9 1   
    11    6    7 ar  
    12    6   24 1   
    13    7    8 ar  
    14    7   25 1   
    15    9   10 1   
    16    9   20 1   
    17   10   11 1   
    18   10   26 1   
    19   10   27 1   
    20   11   12 1   
    21   11   28 1   
    22   11   29 1   
    23   12   13 1   
    24   12   19 1   
    25   13   14 1   
    26   13   18 1   
    27   15   16 1   
    28   15   17 1   
    29   15   40 1   
    30   16   30 1   
    31   16   31 1   
    32   16   32 1   
    33   17   33 1   
    34   17   34 1   
    35   17   35 1   
    36   19   20 1   
    37   19   36 1   
    38   19   37 1   
    39   20   38 1   
    40   20   39 1   
@<TRIPOS>SUBSTRUCTURE
     1 572         1 TEMP              0 ****  ****    0 ROOT
