@<TRIPOS>MOLECULE
572
   40    40     1     0     0
SMALL
bcc


@<TRIPOS>ATOM
      1 O30        -0.1620   -0.6930   -0.0180 oh        1 572     -0.576800
      2 C14         1.1860   -0.2990   -0.0130 c3        1 572      0.101100
      3 C7          1.6980   -0.0920    1.4180 ca        1 572      0.637300
      4 N4          2.1910    1.1390    1.7320 nb        1 572     -0.735000
      5 C2          2.6350    1.3210    3.0150 ca        1 572      0.623200
      6 C5          2.5990    0.2620    3.9620 ca        1 572     -0.365600
      7 C6          2.0760   -0.9670    3.5190 ca        1 572      0.457200
      8 N3          1.6270   -1.1640    2.2690 nb        1 572     -0.693000
      9 N1          3.0840    2.6130    3.4480 nh        1 572     -0.734300
     10 C19         2.7250    3.7370    2.5970 c3        1 572      0.171300
     11 C15         3.0650    5.0820    3.2750 c3        1 572      0.195300
     12 N17         4.4490    5.1520    3.7420 n3        1 572     -0.819300
     13 S28         5.3980    6.3150    3.4110 s4        1 572      1.626700
     14 O25         4.9720    7.2180    2.4690 o         1 572     -0.428900
     15 N22         4.9360    7.6300    5.1640 n7        1 572     -0.921200
     16 C13         5.2920    6.9930    6.4270 c3        1 572      0.089600
     17 C11         3.5560    8.1000    5.1310 c3        1 572      0.089600
     18 O12         6.7220    6.1440    3.7300 o         1 572     -0.428900
     19 C16         4.8440    3.9850    4.5270 c3        1 572      0.195300
     20 C18         4.4840    2.6470    3.8440 c3        1 572      0.171300
     21 H30        -0.2170   -1.5890    0.3420 ho        1 572      0.421000
     22 H141        1.2050    0.6670   -0.5900 h1        1 572      0.075700
     23 H142        1.8440   -1.0600   -0.5120 h1        1 572      0.075700
     24 H5          2.9390    0.3880    4.9960 ha        1 572      0.160000
     25 H6          2.0130   -1.8350    4.2030 h4        1 572      0.045100
     26 H191        1.6090    3.7200    2.4310 h1        1 572      0.078200
     27 H192        3.2300    3.6950    1.5890 h1        1 572      0.078200
     28 H151        2.8800    5.9070    2.5280 h1        1 572      0.085700
     29 H152        2.3880    5.2320    4.1660 h1        1 572      0.085700
     30 H131        5.1760    7.6950    7.2970 h1        1 572      0.082200
     31 H132        4.6260    6.1060    6.6020 h1        1 572      0.082200
     32 H133        6.3640    6.6590    6.3770 h1        1 572      0.082200
     33 H111        3.3570    8.5740    4.1310 h1        1 572      0.082200
     34 H112        3.3520    8.8580    5.9340 h1        1 572      0.082200
     35 H113        2.8600    7.2320    5.2830 h1        1 572      0.082200
     36 H161        4.3220    4.0420    5.5260 h1        1 572      0.085700
     37 H162        5.9600    4.0040    4.6920 h1        1 572      0.085700
     38 H181        5.1760    2.4840    2.9670 h1        1 572      0.078200
     39 H182        4.6700    1.8280    4.5950 h1        1 572      0.078200
     40 H221        5.5500    8.4250    5.0210 hn        1 572      0.418800
@<TRIPOS>BOND
     1    1    2 1   
     2    1   21 1   
     3    2    3 1   
     4    2   22 1   
     5    2   23 1   
     6    3    4 ar  
     7    3    8 ar  
     8    4    5 ar  
     9    5    6 ar  
    10    5    9 1   
    11    6    7 ar  
    12    6   24 1   
    13    7    8 ar  
    14    7   25 1   
    15    9   10 1   
    16    9   20 1   
    17   10   11 1   
    18   10   26 1   
    19   10   27 1   
    20   11   12 1   
    21   11   28 1   
    22   11   29 1   
    23   12   13 1   
    24   12   19 1   
    25   13   14 1   
    26   13   18 1   
    27   15   16 1   
    28   15   17 1   
    29   15   40 1   
    30   16   30 1   
    31   16   31 1   
    32   16   32 1   
    33   17   33 1   
    34   17   34 1   
    35   17   35 1   
    36   19   20 1   
    37   19   36 1   
    38   19   37 1   
    39   20   38 1   
    40   20   39 1   
@<TRIPOS>SUBSTRUCTURE
     1 572         1 TEMP              0 ****  ****    0 ROOT
