@<TRIPOS>MOLECULE
572
   39    37     1     0     0
SMALL
bcc


@<TRIPOS>ATOM
      1 O30        -5.1460    3.6880   -2.2410 oh        1 572     -0.314000
      2 C14        -4.0600    3.3190   -1.4050 c3        1 572      0.046000
      3 C7         -3.6430    1.8400   -1.6960 c2        1 572      0.017000
      4 N4         -2.4570    1.3560   -1.1890 n2        1 572     -0.226000
      5 C2         -2.0850    0.0850   -1.4270 c1        1 572      0.160000
      6 C5         -2.8800   -0.7320   -2.1700 c1        1 572     -0.145000
      7 C6         -4.0610   -0.2590   -2.6780 c1        1 572     -0.145000
      8 N3         -4.4380    1.0380   -2.4340 n1        1 572     -0.212000
      9 N1         -0.8830   -0.4280   -0.8390 n3        1 572     -0.248000
     10 C19        -0.9980   -0.3580    0.7120 c3        1 572     -0.037500
     11 C15         0.2710   -0.7670    1.4190 c3        1 572     -0.023000
     12 N17         1.3100   -0.7000    0.6240 n3        1 572     -0.839000
     13 S28         2.4650   -1.9230    0.7680 s4        1 572      2.014800
     14 O25         1.8840   -3.1190    1.2290 o         1 572     -0.530400
     15 N22         3.6880   -1.4360    1.7480 n2        1 572     -0.831000
     16 C13         5.0160   -1.3140    1.2270 c3        1 572     -0.073000
     17 C11         3.4550   -1.2580    3.1380 c3        1 572     -0.073000
     18 O12         2.9550   -2.3290   -0.5060 o         1 572     -0.530400
     19 C16         1.5290    0.2170   -0.2430 c3        1 572     -0.023000
     20 C18         0.2410    0.6300   -0.9570 c3        1 572     -0.037500
     21 H30        -5.5120    4.4150   -1.9330 ho        1 572      0.216000
     22 H141       -3.3180    3.8940   -1.5760 h1        1 572      0.107000
     23 H142       -4.3370    3.4060   -0.4330 h1        1 572      0.107000
     24 H5         -2.6030   -1.6720   -2.3450 ha        1 572      0.159500
     25 H6         -4.6400   -0.8520   -3.2190 ha        1 572      0.159500
     26 H191       -1.7360   -0.9600    1.0060 h1        1 572      0.100000
     27 H192       -1.2150    0.5380    0.9640 h1        1 572      0.100000
     28 H151        0.4230   -0.1420    2.2220 h1        1 572      0.096500
     29 H152        0.1700   -1.7260    1.7560 h1        1 572      0.096500
     30 H131        5.6220   -1.7410    1.8120 h1        1 572      0.085333
     31 H132        5.0630   -1.7430    0.3260 h1        1 572      0.085333
     32 H133        5.2430   -0.3930    1.1530 h1        1 572      0.085333
     33 H111        2.7900   -1.9030    3.4430 h1        1 572      0.085333
     34 H112        4.3000   -1.3960    3.6340 h1        1 572      0.085333
     35 H113        3.1390   -0.3840    3.2940 h1        1 572      0.085333
     36 H161        2.1740   -0.1130   -0.9040 h1        1 572      0.096500
     37 H162        1.9040    0.9900    0.2040 h1        1 572      0.096500
     38 H181       -0.0700    1.4510   -0.5760 h1        1 572      0.100000
     39 H182        0.4390    0.7780   -1.9070 h1        1 572      0.100000
@<TRIPOS>BOND
     1    1    2 1   
     2    1   21 1   
     3    2    3 1   
     4    2   22 1   
     5    2   23 1   
     6    3    4 1   
     7    3    8 1   
     8    4    5 1   
     9    5    9 1   
    10    6    7 1   
    11    6   24 1   
    12    7   25 1   
    13    9   10 1   
    14    9   20 1   
    15   10   11 1   
    16   10   26 1   
    17   10   27 1   
    18   11   12 1   
    19   11   28 1   
    20   11   29 1   
    21   12   13 1   
    22   12   19 1   
    23   13   14 1   
    24   13   18 1   
    25   15   16 1   
    26   15   17 1   
    27   16   30 1   
    28   16   31 1   
    29   16   32 1   
    30   17   33 1   
    31   17   34 1   
    32   17   35 1   
    33   19   20 1   
    34   19   36 1   
    35   19   37 1   
    36   20   38 1   
    37   20   39 1   
@<TRIPOS>SUBSTRUCTURE
     1 572         1 TEMP              0 ****  ****    0 ROOT
