@<TRIPOS>MOLECULE
572
   40    40     1     0     0
SMALL
bcc


@<TRIPOS>ATOM
      1 O30        -0.1620   -0.6900   -0.0270 oh        1 572     -0.576800
      2 C14         1.1870   -0.2980   -0.0170 c3        1 572      0.101100
      3 C7          1.6940   -0.0910    1.4160 ca        1 572      0.637300
      4 N4          2.1900    1.1370    1.7310 nb        1 572     -0.735000
      5 C2          2.6290    1.3190    3.0150 ca        1 572      0.623200
      6 C5          2.5870    0.2620    3.9630 ca        1 572     -0.365600
      7 C6          2.0610   -0.9670    3.5190 ca        1 572      0.457200
      8 N3          1.6170   -1.1630    2.2670 nb        1 572     -0.693000
      9 N1          3.0810    2.6110    3.4490 nh        1 572     -0.734300
     10 C19         2.7290    3.7350    2.5950 c3        1 572      0.171300
     11 C15         3.0710    5.0790    3.2730 c3        1 572      0.195300
     12 N17         4.4540    5.1450    3.7450 n3        1 572     -0.819300
     13 S28         5.4080    6.3050    3.4160 s4        1 572      1.626700
     14 O25         4.9890    7.2080    2.4710 o         1 572     -0.428900
     15 N22         4.9430    7.6230    5.1660 n3        1 572     -0.921200
     16 C13         5.2890    6.9860    6.4310 c3        1 572      0.089600
     17 C11         3.5660    8.1000    5.1250 c3        1 572      0.089600
     18 O12         6.7300    6.1300    3.7410 o         1 572     -0.428900
     19 C16         4.8420    3.9780    4.5330 c3        1 572      0.195300
     20 C18         4.4800    2.6400    3.8490 c3        1 572      0.171300
     21 H30        -0.2210   -1.5850    0.3330 ho        1 572      0.421000
     22 H141        1.2100    0.6660   -0.5940 h1        1 572      0.075700
     23 H142        1.8450   -1.0620   -0.5130 h1        1 572      0.075700
     24 H5          2.9220    0.3880    4.9990 ha        1 572      0.160000
     25 H6          1.9920   -1.8330    4.2040 h4        1 572      0.045100
     26 H191        3.2380    3.6900    1.5890 h1        1 572      0.078200
     27 H192        1.6140    3.7210    2.4250 h1        1 572      0.078200
     28 H151        2.3920    5.2320    4.1610 h1        1 572      0.085700
     29 H152        2.8920    5.9040    2.5240 h1        1 572      0.085700
     30 H131        4.6180    6.1030    6.6040 h1        1 572      0.082200
     31 H132        5.1720    7.6890    7.3000 h1        1 572      0.082200
     32 H133        6.3600    6.6460    6.3870 h1        1 572      0.082200
     33 H111        3.3740    8.5750    4.1230 h1        1 572      0.082200
     34 H112        3.3610    8.8600    5.9260 h1        1 572      0.082200
     35 H113        2.8640    7.2360    5.2740 h1        1 572      0.082200
     36 H161        5.9570    3.9930    4.7020 h1        1 572      0.085700
     37 H162        4.3160    4.0370    5.5300 h1        1 572      0.085700
     38 H181        5.1750    2.4740    2.9760 h1        1 572      0.078200
     39 H182        4.6600    1.8210    4.6030 h1        1 572      0.078200
     40 H221        5.5620    8.4160    5.0260 hn        1 572      0.418800
@<TRIPOS>BOND
     1    1    2 1   
     2    1   21 1   
     3    2    3 1   
     4    2   22 1   
     5    2   23 1   
     6    3    4 ar  
     7    3    8 ar  
     8    4    5 ar  
     9    5    6 ar  
    10    5    9 1   
    11    6    7 ar  
    12    6   24 1   
    13    7    8 ar  
    14    7   25 1   
    15    9   10 1   
    16    9   20 1   
    17   10   11 1   
    18   10   26 1   
    19   10   27 1   
    20   11   12 1   
    21   11   28 1   
    22   11   29 1   
    23   12   13 1   
    24   12   19 1   
    25   13   14 1   
    26   13   18 1   
    27   15   16 1   
    28   15   17 1   
    29   15   40 1   
    30   16   30 1   
    31   16   31 1   
    32   16   32 1   
    33   17   33 1   
    34   17   34 1   
    35   17   35 1   
    36   19   20 1   
    37   19   36 1   
    38   19   37 1   
    39   20   38 1   
    40   20   39 1   
@<TRIPOS>SUBSTRUCTURE
     1 572         1 TEMP              0 ****  ****    0 ROOT
