@<TRIPOS>MOLECULE
573
   43    45     1     0     0
SMALL
bcc


@<TRIPOS>ATOM
      1 C1         -0.1120   -0.0970   -0.7230 c3        1 573     -0.139100
      2 C2          1.3210    0.1120   -1.1640 c3        1 573      0.104100
      3 C4          1.5010    1.3700   -2.0100 c3        1 573      0.099400
      4 O5          1.0650    2.5890   -1.3420 os        1 573     -0.209100
      5 N6          1.7330    2.9350   -0.1950 n4        1 573     -0.429300
      6 C7          1.1470    4.2450    0.2810 c         1 573      0.609300
      7 O8          0.2140    4.1960    1.0750 o         1 573     -0.412100
      8 C9          1.7340    5.4720   -0.2200 cc        1 573     -0.062100
      9 C10         1.3940    6.8030    0.0420 cd        1 573      0.093800
     10 C11         2.2940    7.6330   -0.7280 ca        1 573     -0.240100
     11 C12         2.5160    9.0120   -0.9330 ca        1 573      0.479200
     12 N13         3.4810    9.4500   -1.7510 nb        1 573     -0.599000
     13 C14         4.2710    8.5720   -2.4030 ca        1 573      0.462200
     14 C15         4.1600    7.1540   -2.2860 ca        1 573      0.053600
     15 C16         3.1450    6.7100   -1.4250 ca        1 573      0.091100
     16 O17         2.8070    5.3910   -1.1160 os        1 573     -0.145200
     17 N19         0.3250    7.2540    0.9080 n4        1 573     -0.485200
     18 C20         0.7640    8.1470    1.9900 ca        1 573     -0.114400
     19 C21         0.5260    9.5310    1.8970 ca        1 573     -0.087000
     20 C22         0.8960   10.3650    2.9470 ca        1 573     -0.079000
     21 C23         1.5060    9.8470    4.0960 ca        1 573      0.093900
     22 C24         1.7460    8.4780    4.2020 ca        1 573     -0.102000
     23 C25         1.3790    7.6140    3.1540 ca        1 573      0.165900
     24 O28         2.1820    0.2760   -0.0370 oh        1 573     -0.674800
     25 F18         4.9690    6.3180   -2.9510 f         1 573     -0.068900
     26 F26         1.5970    6.2840    3.2590 f         1 573     -0.123900
     27 I27         2.0340   11.0790    5.6030 i         1 573      0.003100
     28 H1         -0.7700   -0.2500   -1.6120 hc        1 573      0.067700
     29 H2         -0.4810    0.7850   -0.1470 hc        1 573      0.067700
     30 H3         -0.1840   -1.0020   -0.0710 hc        1 573      0.067700
     31 H4          1.6710   -0.7650   -1.7840 h1        1 573      0.103700
     32 H5          2.5630    1.4910   -2.3490 h1        1 573      0.123700
     33 H6          0.7870    1.3750   -2.8850 h1        1 573      0.123700
     34 H7          2.7470    3.0310   -0.3880 hn        1 573      0.496800
     35 H8          1.9120    9.7870   -0.4240 h4        1 573      0.055100
     36 H9          5.0490    9.0110   -3.0660 h4        1 573      0.097100
     37 H10        -0.1340    6.4290    1.3410 hn        1 573      0.488300
     38 H11         0.0330    9.9700    1.0120 ha        1 573      0.166000
     39 H12         0.6940   11.4500    2.8630 ha        1 573      0.198000
     40 H13         2.2180    8.0420    5.1030 ha        1 573      0.206000
     41 H14         2.2500   -0.5770    0.4130 ho        1 573      0.465000
     42 H62         1.5840    2.1860    0.5270 hn        1 573      0.496800
     43 H192       -0.3700    7.7580    0.3270 hn        1 573      0.488300
@<TRIPOS>BOND
     1    1    2 1   
     2    1   28 1   
     3    1   29 1   
     4    1   30 1   
     5    2    3 1   
     6    2   24 1   
     7    2   31 1   
     8    3    4 1   
     9    3   32 1   
    10    3   33 1   
    11    4    5 1   
    12    5    6 1   
    13    5   34 1   
    14    5   42 1   
    15    6    7 2   
    16    6    8 1   
    17    8    9 2   
    18    8   16 1   
    19    9   10 1   
    20    9   17 1   
    21   10   11 ar  
    22   10   15 ar  
    23   11   12 ar  
    24   11   35 1   
    25   12   13 ar  
    26   13   14 ar  
    27   13   36 1   
    28   14   15 ar  
    29   14   25 1   
    30   15   16 1   
    31   17   18 1   
    32   17   37 1   
    33   17   43 1   
    34   18   19 ar  
    35   18   23 ar  
    36   19   20 ar  
    37   19   38 1   
    38   20   21 ar  
    39   20   39 1   
    40   21   22 ar  
    41   21   27 1   
    42   22   23 ar  
    43   22   40 1   
    44   23   26 1   
    45   24   41 1   
@<TRIPOS>SUBSTRUCTURE
     1 573         1 TEMP              0 ****  ****    0 ROOT
