@<TRIPOS>MOLECULE
573
   42    44     1     0     0
SMALL
bcc


@<TRIPOS>ATOM
      1 C1          0.6450    0.5690    0.6600 c3        1 573     -0.137100
      2 C2          1.5480    0.7610   -0.5400 c3        1 573      0.104100
      3 C4          1.1550    1.9760   -1.3780 c3        1 573      0.095400
      4 O5          1.1200    3.2090   -0.6170 os        1 573     -0.199100
      5 N6          2.3080    3.6490   -0.1110 ny        1 573     -0.448300
      6 C7          2.0640    5.0540    0.5000 c         1 573      0.632300
      7 O8          1.8090    5.0110    1.6980 o         1 573     -0.468100
      8 C9          2.2140    6.1400   -0.3890 cc        1 573     -0.240100
      9 C10         2.0070    7.5380   -0.2480 cd        1 573      0.367800
     10 C11         2.3320    8.1190   -1.5630 ca        1 573     -0.298100
     11 C12         2.3400    9.4130   -2.1060 ca        1 573      0.480200
     12 N13         2.6950    9.6350   -3.3830 nb        1 573     -0.640000
     13 C14         3.0500    8.5960   -4.1640 ca        1 573      0.441200
     14 C15         3.0810    7.2400   -3.7310 ca        1 573      0.008600
     15 C16         2.7080    7.0270   -2.3960 ca        1 573      0.132100
     16 O17         2.6460    5.8230   -1.7200 os        1 573     -0.205200
     17 N19         1.6210    8.2890    0.7950 nu        1 573     -0.571400
     18 C20         1.2250    7.8470    2.0840 ca        1 573      0.037600
     19 C21         2.1530    7.8370    3.1430 ca        1 573     -0.084000
     20 C22         1.7500    7.4940    4.4300 ca        1 573     -0.101000
     21 C23         0.4210    7.1550    4.6930 ca        1 573      0.067900
     22 C24        -0.5160    7.1590    3.6650 ca        1 573     -0.123000
     23 C25        -0.1290    7.5030    2.3570 ca        1 573      0.143900
     24 O28         2.8980    0.9830   -0.1340 oh        1 573     -0.656800
     25 F18         3.4440    6.2420   -4.5560 f         1 573     -0.098900
     26 F26        -1.0540    7.5060    1.3710 f         1 573     -0.122900
     27 I27        -0.1450    6.6600    6.5660 i         1 573     -0.078900
     28 H1          0.6500    1.4800    1.3060 hc        1 573      0.062700
     29 H2          0.9930   -0.3010    1.2680 hc        1 573      0.062700
     30 H3         -0.4020    0.3730    0.3240 hc        1 573      0.062700
     31 H4          1.5040   -0.1460   -1.2100 h1        1 573      0.081700
     32 H5          1.8330    2.0950   -2.2630 h1        1 573      0.108200
     33 H6          0.0780    1.9060   -1.7010 h1        1 573      0.108200
     34 H7          2.6260    2.9950    0.6320 hn        1 573      0.466800
     35 H8          2.0570   10.3050   -1.5160 h4        1 573      0.046100
     36 H9          3.3320    8.8440   -5.2070 h4        1 573      0.068100
     37 H10         1.5180    9.2740    0.6380 hn        1 573      0.473800
     38 H11         3.2060    8.1080    2.9610 ha        1 573      0.157000
     39 H12         2.4970    7.4960    5.2420 ha        1 573      0.168000
     40 H13        -1.5730    6.9000    3.8480 ha        1 573      0.179000
     41 H14         3.2110    0.1740    0.2900 ho        1 573      0.446000
     42 H62         3.0220    3.6960   -0.8560 hn        1 573      0.466800
@<TRIPOS>BOND
     1    1    2 1   
     2    1   28 1   
     3    1   29 1   
     4    1   30 1   
     5    2    3 1   
     6    2   24 1   
     7    2   31 1   
     8    3    4 1   
     9    3   32 1   
    10    3   33 1   
    11    4    5 1   
    12    5    6 1   
    13    5   34 1   
    14    5   42 1   
    15    6    7 2   
    16    6    8 1   
    17    8    9 2   
    18    8   16 1   
    19    9   10 1   
    20    9   17 1   
    21   10   11 ar  
    22   10   15 ar  
    23   11   12 ar  
    24   11   35 1   
    25   12   13 ar  
    26   13   14 ar  
    27   13   36 1   
    28   14   15 ar  
    29   14   25 1   
    30   15   16 1   
    31   17   18 1   
    32   17   37 1   
    33   18   19 ar  
    34   18   23 ar  
    35   19   20 ar  
    36   19   38 1   
    37   20   21 ar  
    38   20   39 1   
    39   21   22 ar  
    40   21   27 1   
    41   22   23 ar  
    42   22   40 1   
    43   23   26 1   
    44   24   41 1   
@<TRIPOS>SUBSTRUCTURE
     1 573         1 TEMP              0 ****  ****    0 ROOT
