@<TRIPOS>MOLECULE
575
   48    51     1     0     0
SMALL
bcc


@<TRIPOS>ATOM
      1 C1          0.2370   -0.8180    0.5590 ca        1 575     -0.101000
      2 C2          1.5950   -0.5160    0.5780 ca        1 575     -0.100500
      3 C3          2.0340    0.6290    1.2680 ca        1 575     -0.070400
      4 C4          1.1190    1.4570    1.9400 ca        1 575     -0.100500
      5 C5         -0.2340    1.1340    1.9110 ca        1 575     -0.101000
      6 C6         -0.6870    0.0010    1.2230 ca        1 575     -0.012300
      7 C7         -2.1620   -0.2900    1.1640 c3        1 575      0.197100
      8 N1         -2.4710   -1.7020    1.3000 n3        1 575     -0.735600
      9 C8         -3.7530   -2.0890    0.7000 c3        1 575      0.157300
     10 C9         -4.6130   -2.8120    1.7480 c3        1 575     -0.095400
     11 C10        -3.7790   -2.8640    3.0200 c3        1 575     -0.095400
     12 C11        -2.4370   -2.1990    2.6790 c3        1 575      0.157300
     13 N2          3.4590    0.9730    1.2660 n4        1 575     -0.508200
     14 C12         4.1960    0.3410    2.3550 c2        1 575     -0.068000
     15 C13         5.5470    0.2470    2.4190 cc        1 575     -0.018400
     16 C14         6.2190   -0.3710    3.5560 ca        1 575     -0.063800
     17 C15         5.5300   -0.7020    4.7290 ca        1 575     -0.084000
     18 C16         6.1910   -1.3200    5.7980 ca        1 575     -0.006900
     19 C17         7.5540   -1.6090    5.7030 ca        1 575     -0.071000
     20 C18         8.2570   -1.2680    4.5450 ca        1 575     -0.058000
     21 C19         7.6010   -0.6470    3.4820 ca        1 575     -0.113600
     22 C20         8.4000   -0.2710    2.2920 c         1 575      0.712100
     23 O1          9.5980   -0.5410    2.1470 o         1 575     -0.532500
     24 N3          7.7460    0.4560    1.2770 n         1 575     -0.562500
     25 C21         6.4060    0.7610    1.2980 c         1 575      0.702700
     26 O2          5.9070    1.4440    0.3740 o         1 575     -0.656500
     27 BR1         5.2410   -1.7510    7.3470 br        1 575     -0.021100
     28 H1         -0.1120   -1.7140    0.0180 ha        1 575      0.177000
     29 H2          2.3040   -1.1730    0.0490 ha        1 575      0.155500
     30 H4          1.4500    2.3570    2.4830 ha        1 575      0.155500
     31 H5         -0.9540    1.7850    2.4360 ha        1 575      0.177000
     32 H7         -2.6870    0.3440    1.9390 h1        1 575      0.060200
     33 H7A        -2.5160    0.0610    0.1480 h1        1 575      0.060200
     34 H8         -3.5110   -2.7810   -0.1530 h1        1 575      0.047700
     35 H8A        -4.3140   -1.2090    0.2810 h1        1 575      0.047700
     36 H9         -5.5710   -2.2620    1.9160 hc        1 575      0.057950
     37 H9A        -4.8700   -3.8410    1.3930 hc        1 575      0.057950
     38 H10        -3.6160   -3.9180    3.3530 hc        1 575      0.057950
     39 H10A       -4.2860   -2.3190    3.8540 hc        1 575      0.057950
     40 H11        -1.6060   -2.9540    2.7320 h1        1 575      0.047700
     41 H11A       -2.2080   -1.3830    3.4180 h1        1 575      0.047700
     42 HN2         3.8820    0.7030    0.3570 hn        1 575      0.474800
     43 H12         3.5260   -0.0680    3.1390 hx        1 575      0.208000
     44 H15         4.4580   -0.4700    4.8340 ha        1 575      0.150000
     45 H17         8.0860   -2.1020    6.5360 ha        1 575      0.180000
     46 H18         9.3380   -1.4850    4.4640 ha        1 575      0.188000
     47 HN3         8.2950    0.7820    0.5020 hn        1 575      0.368500
     48 H22         3.5690    1.9970    1.3500 hn        1 575      0.474800
@<TRIPOS>BOND
     1    1    2 ar  
     2    1    6 ar  
     3    1   28 1   
     4    2    3 ar  
     5    2   29 1   
     6    3    4 ar  
     7    3   13 1   
     8    4    5 ar  
     9    4   30 1   
    10    5    6 ar  
    11    5   31 1   
    12    6    7 1   
    13    7    8 1   
    14    7   32 1   
    15    7   33 1   
    16    8    9 1   
    17    8   12 1   
    18    9   10 1   
    19    9   34 1   
    20    9   35 1   
    21   10   11 1   
    22   10   36 1   
    23   10   37 1   
    24   11   12 1   
    25   11   38 1   
    26   11   39 1   
    27   12   40 1   
    28   12   41 1   
    29   13   14 1   
    30   13   42 1   
    31   13   48 1   
    32   14   15 2   
    33   14   43 1   
    34   15   16 1   
    35   15   25 1   
    36   16   17 ar  
    37   16   21 ar  
    38   17   18 ar  
    39   17   44 1   
    40   18   19 ar  
    41   18   27 1   
    42   19   20 ar  
    43   19   45 1   
    44   20   21 ar  
    45   20   46 1   
    46   21   22 1   
    47   22   23 2   
    48   22   24 1   
    49   24   25 1   
    50   24   47 1   
    51   25   26 2   
@<TRIPOS>SUBSTRUCTURE
     1 575         1 TEMP              0 ****  ****    0 ROOT
