@<TRIPOS>MOLECULE
575
   47    50     1     0     0
SMALL
bcc


@<TRIPOS>ATOM
      1 C1         -0.0610   -0.3380    0.2680 ca        1 575     -0.089500
      2 C2          1.3260   -0.2690    0.2440 ca        1 575     -0.162000
      3 C3          2.0440    0.0530    1.4200 ca        1 575      0.129600
      4 C4          1.3260    0.3080    2.6060 ca        1 575     -0.162000
      5 C5         -0.0640    0.2240    2.6130 ca        1 575     -0.089500
      6 C6         -0.7690   -0.0960    1.4510 ca        1 575     -0.095300
      7 C7         -2.2690   -0.1320    1.4620 c3        1 575      0.209100
      8 N1         -2.8250   -1.3840    0.9660 n3        1 575     -0.717600
      9 C8         -4.2840   -1.3410    0.8180 c3        1 575      0.154300
     10 C9         -4.9270   -2.4330    1.6890 c3        1 575     -0.097900
     11 C10        -3.7740   -3.1980    2.3240 c3        1 575     -0.097900
     12 C11        -2.4880   -2.5550    1.7810 c3        1 575      0.154300
     13 N2          3.4500    0.1360    1.3530 nh        1 575     -0.603400
     14 C12         4.2690   -0.0250    2.4200 c2        1 575      0.210000
     15 C13         5.6520   -0.0170    2.4070 cc        1 575     -0.298400
     16 C14         6.4030   -0.1440    3.6430 ca        1 575      0.056200
     17 C15         5.7960   -0.0410    4.9080 ca        1 575     -0.146000
     18 C16         6.5410   -0.2010    6.0750 ca        1 575      0.016100
     19 C17         7.9150   -0.4550    6.0130 ca        1 575     -0.137000
     20 C18         8.5370   -0.5300    4.7720 ca        1 575     -0.054000
     21 C19         7.7950   -0.3690    3.5970 ca        1 575     -0.158600
     22 C20         8.5140   -0.4140    2.3050 c         1 575      0.720100
     23 O1          9.7300   -0.6580    2.2030 o         1 575     -0.617500
     24 N3          7.7770   -0.1460    1.1510 n         1 575     -0.582500
     25 C21         6.4000    0.0790    1.1440 c         1 575      0.738700
     26 O2          5.8760    0.3320    0.0340 o         1 575     -0.673500
     27 BR1         5.6920   -0.0690    7.7410 br        1 575     -0.082100
     28 H1         -0.6110   -0.5940   -0.6520 ha        1 575      0.146500
     29 H2          1.8600   -0.4650   -0.7000 ha        1 575      0.140500
     30 H4          1.8440    0.5870    3.5350 ha        1 575      0.140500
     31 H5         -0.6070    0.4200    3.5510 ha        1 575      0.146500
     32 H7         -2.6360    0.6880    0.7770 h1        1 575      0.040700
     33 H7A        -2.6340    0.1120    2.5040 h1        1 575      0.040700
     34 H8         -4.5020   -1.5340   -0.2680 h1        1 575      0.047950
     35 H8A        -4.7100   -0.3340    1.0800 h1        1 575      0.047950
     36 H9         -5.5600   -3.1050    1.0620 hc        1 575      0.047950
     37 H9A        -5.5840   -1.9760    2.4690 hc        1 575      0.047950
     38 H10        -3.8090   -3.1240    3.4380 hc        1 575      0.047950
     39 H10A       -3.8110   -4.2810    2.0540 hc        1 575      0.047950
     40 H11        -1.9530   -3.2770    1.1040 h1        1 575      0.047950
     41 H11A       -1.7910   -2.2930    2.6220 h1        1 575      0.047950
     42 HN2         3.8500    0.2370    0.4350 hn        1 575      0.483800
     43 H12         3.7460   -0.1900    3.3870 h4        1 575      0.155000
     44 H15         4.7220    0.1840    4.9920 ha        1 575      0.140000
     45 H17         8.5050   -0.5880    6.9330 ha        1 575      0.155000
     46 H18         9.6220   -0.7150    4.6980 ha        1 575      0.167000
     47 HN3         8.2600   -0.1160    0.2770 hn        1 575      0.341500
@<TRIPOS>BOND
     1    1    2 ar  
     2    1    6 ar  
     3    1   28 1   
     4    2    3 ar  
     5    2   29 1   
     6    3    4 ar  
     7    3   13 1   
     8    4    5 ar  
     9    4   30 1   
    10    5    6 ar  
    11    5   31 1   
    12    6    7 1   
    13    7    8 1   
    14    7   32 1   
    15    7   33 1   
    16    8    9 1   
    17    8   12 1   
    18    9   10 1   
    19    9   34 1   
    20    9   35 1   
    21   10   11 1   
    22   10   36 1   
    23   10   37 1   
    24   11   12 1   
    25   11   38 1   
    26   11   39 1   
    27   12   40 1   
    28   12   41 1   
    29   13   14 1   
    30   13   42 1   
    31   14   15 2   
    32   14   43 1   
    33   15   16 1   
    34   15   25 1   
    35   16   17 ar  
    36   16   21 ar  
    37   17   18 ar  
    38   17   44 1   
    39   18   19 ar  
    40   18   27 1   
    41   19   20 ar  
    42   19   45 1   
    43   20   21 ar  
    44   20   46 1   
    45   21   22 1   
    46   22   23 2   
    47   22   24 1   
    48   24   25 1   
    49   24   47 1   
    50   25   26 2   
@<TRIPOS>SUBSTRUCTURE
     1 575         1 TEMP              0 ****  ****    0 ROOT
