@<TRIPOS>MOLECULE
575
   47    50     1     0     0
SMALL
bcc


@<TRIPOS>ATOM
      1 C1         -0.0620   -0.3400    0.2690 ca        1 575     -0.089500
      2 C2          1.3260   -0.2730    0.2430 ca        1 575     -0.162000
      3 C3          2.0440    0.0500    1.4180 ca        1 575      0.129600
      4 C4          1.3270    0.3080    2.6040 ca        1 575     -0.162000
      5 C5         -0.0620    0.2260    2.6120 ca        1 575     -0.089500
      6 C6         -0.7690   -0.0960    1.4510 ca        1 575     -0.095300
      7 C7         -2.2690   -0.1300    1.4630 c3        1 575      0.209100
      8 N1         -2.8270   -1.3810    0.9700 n3        1 575     -0.717600
      9 C8         -4.2860   -1.3370    0.8230 c3        1 575      0.154300
     10 C9         -4.9290   -2.4270    1.6960 c3        1 575     -0.097400
     11 C10        -3.7760   -3.1930    2.3300 c3        1 575     -0.097400
     12 C11        -2.4900   -2.5520    1.7860 c3        1 575      0.154300
     13 N2          3.4500    0.1320    1.3510 nu        1 575     -0.603400
     14 C12         4.2690   -0.0280    2.4170 c2        1 575      0.210000
     15 C13         5.6530   -0.0210    2.4040 cc        1 575     -0.298400
     16 C14         6.4050   -0.1460    3.6400 ca        1 575      0.056200
     17 C15         5.7980   -0.0390    4.9040 ca        1 575     -0.146000
     18 C16         6.5440   -0.1960    6.0720 ca        1 575      0.016100
     19 C17         7.9170   -0.4520    6.0100 ca        1 575     -0.137000
     20 C18         8.5380   -0.5310    4.7690 ca        1 575     -0.054000
     21 C19         7.7960   -0.3730    3.5940 ca        1 575     -0.158600
     22 C20         8.5140   -0.4220    2.3010 c         1 575      0.720100
     23 O1          9.7300   -0.6680    2.1990 o         1 575     -0.617500
     24 N3          7.7770   -0.1560    1.1470 ns        1 575     -0.582500
     25 C21         6.4000    0.0710    1.1400 c         1 575      0.738700
     26 O2          5.8760    0.3210    0.0300 o         1 575     -0.673500
     27 Br1         5.6960   -0.0590    7.7380 br        1 575     -0.082100
     28 H1         -0.6130   -0.5980   -0.6500 ha        1 575      0.146500
     29 H2          1.8590   -0.4720   -0.7000 ha        1 575      0.140500
     30 H4          1.8460    0.5900    3.5330 ha        1 575      0.140500
     31 H5         -0.6050    0.4250    3.5500 ha        1 575      0.146500
     32 H7         -2.6330    0.1160    2.5050 h1        1 575      0.040700
     33 H7A        -2.6350    0.6900    0.7770 h1        1 575      0.040700
     34 H8         -4.5050   -1.5300   -0.2630 h1        1 575      0.047950
     35 H8A        -4.7100   -0.3300    1.0840 h1        1 575      0.047950
     36 H9         -5.5640   -3.1000    1.0690 hc        1 575      0.047950
     37 H9A        -5.5850   -1.9690    2.4760 hc        1 575      0.047950
     38 H10        -3.8110   -3.1190    3.4450 hc        1 575      0.047950
     39 H10A       -3.8140   -4.2770    2.0610 hc        1 575      0.047950
     40 H11        -1.7930   -2.2890    2.6270 h1        1 575      0.047950
     41 H11A       -1.9560   -3.2750    1.1090 h1        1 575      0.047950
     42 HN2         3.8500    0.2300    0.4330 hn        1 575      0.483800
     43 H12         3.7470   -0.1900    3.3850 h4        1 575      0.155000
     44 H15         4.7250    0.1880    4.9890 ha        1 575      0.140000
     45 H17         8.5080   -0.5830    6.9290 ha        1 575      0.155000
     46 H18         9.6240   -0.7170    4.6940 ha        1 575      0.167000
     47 HN3         8.2590   -0.1290    0.2720 hn        1 575      0.341500
@<TRIPOS>BOND
     1    1    2 ar  
     2    1    6 ar  
     3    1   28 1   
     4    2    3 ar  
     5    2   29 1   
     6    3    4 ar  
     7    3   13 1   
     8    4    5 ar  
     9    4   30 1   
    10    5    6 ar  
    11    5   31 1   
    12    6    7 1   
    13    7    8 1   
    14    7   32 1   
    15    7   33 1   
    16    8    9 1   
    17    8   12 1   
    18    9   10 1   
    19    9   34 1   
    20    9   35 1   
    21   10   11 1   
    22   10   36 1   
    23   10   37 1   
    24   11   12 1   
    25   11   38 1   
    26   11   39 1   
    27   12   40 1   
    28   12   41 1   
    29   13   14 1   
    30   13   42 1   
    31   14   15 2   
    32   14   43 1   
    33   15   16 1   
    34   15   25 1   
    35   16   17 ar  
    36   16   21 ar  
    37   17   18 ar  
    38   17   44 1   
    39   18   19 ar  
    40   18   27 1   
    41   19   20 ar  
    42   19   45 1   
    43   20   21 ar  
    44   20   46 1   
    45   21   22 1   
    46   22   23 2   
    47   22   24 1   
    48   24   25 1   
    49   24   47 1   
    50   25   26 2   
@<TRIPOS>SUBSTRUCTURE
     1 575         1 TEMP              0 ****  ****    0 ROOT
