@<TRIPOS>MOLECULE
575
   47    50     1     0     0
SMALL
bcc


@<TRIPOS>ATOM
      1 C1          4.2540   -1.6440    0.3550 ca        1 575     -0.089500
      2 C2          2.9640   -2.1440    0.2320 ca        1 575     -0.162000
      3 C3          1.8520   -1.3400    0.5770 ca        1 575      0.129600
      4 C4          2.0810   -0.0330    1.0530 ca        1 575     -0.162000
      5 C5          3.3810    0.4540    1.1600 ca        1 575     -0.089500
      6 C6          4.4750   -0.3420    0.8160 ca        1 575     -0.095300
      7 C7          5.8730    0.1780    0.9870 c3        1 575      0.209100
      8 N1          6.6790    0.0890   -0.2240 n3        1 575     -0.717600
      9 C8          8.0860    0.4370    0.0020 c3        1 575      0.154300
     10 C9          8.4770    1.6240   -0.8940 c3        1 575     -0.097400
     11 C10         7.2490    1.9380   -1.7380 c3        1 575     -0.097400
     12 C11         6.1840    0.9050   -1.3360 c3        1 575      0.154300
     13 N2          0.5580   -1.8880    0.4610 nh        1 575     -0.603400
     14 C12        -0.5650   -1.1470    0.3060 c2        1 575      0.210000
     15 C13        -1.8510   -1.6260    0.1240 cc        1 575     -0.298400
     16 C14        -2.9740   -0.7110    0.0300 ca        1 575      0.056200
     17 C15        -2.8620    0.6540    0.3510 ca        1 575     -0.146000
     18 C16        -3.9520    1.5130    0.2180 ca        1 575      0.016100
     19 C17        -5.1880    1.0310   -0.2250 ca        1 575     -0.137000
     20 C18        -5.3240   -0.3220   -0.5180 ca        1 575     -0.054000
     21 C19        -4.2340   -1.1880   -0.3860 ca        1 575     -0.158600
     22 C20        -4.4450   -2.6250   -0.6680 c         1 575      0.720100
     23 O1         -5.5210   -3.0940   -1.0850 o         1 575     -0.617500
     24 N3         -3.3770   -3.4900   -0.4290 n         1 575     -0.582500
     25 C21        -2.1110   -3.0670   -0.0200 c         1 575      0.738700
     26 O2         -1.2560   -3.9600    0.1800 o         1 575     -0.673500
     27 BR1        -3.7590    3.3280    0.6440 br        1 575     -0.082100
     28 H1          5.1130   -2.2770    0.0790 ha        1 575      0.146500
     29 H2          2.8160   -3.1720   -0.1360 ha        1 575      0.140500
     30 H4          1.2460    0.6160    1.3580 ha        1 575      0.140500
     31 H5          3.5400    1.4800    1.5280 ha        1 575      0.146500
     32 H7          5.8240    1.2350    1.3870 h1        1 575      0.040700
     33 H7A         6.3810   -0.4560    1.7710 h1        1 575      0.040700
     34 H8          8.2990    0.6760    1.0790 h1        1 575      0.047950
     35 H8A         8.6890   -0.4710   -0.2740 h1        1 575      0.047950
     36 H9          8.7740    2.5040   -0.2720 hc        1 575      0.047950
     37 H9A         9.3490    1.3530   -1.5370 hc        1 575      0.047950
     38 H10         6.8830    2.9750   -1.5420 hc        1 575      0.047950
     39 H10A        7.4770    1.8580   -2.8280 hc        1 575      0.047950
     40 H11         5.9890    0.2020   -2.1920 h1        1 575      0.047950
     41 H11A        5.2150    1.4150   -1.0830 h1        1 575      0.047950
     42 HN2         0.4990   -2.8900    0.4060 hn        1 575      0.483800
     43 H12        -0.4040   -0.0470    0.3190 h4        1 575      0.155000
     44 H15        -1.9120    1.0610    0.7280 ha        1 575      0.140000
     45 H17        -6.0500    1.7060   -0.3370 ha        1 575      0.155000
     46 H18        -6.2930   -0.7290   -0.8560 ha        1 575      0.167000
     47 HN3        -3.5220   -4.4700   -0.5590 hn        1 575      0.341500
@<TRIPOS>BOND
     1    1    2 ar  
     2    1    6 ar  
     3    1   28 1   
     4    2    3 ar  
     5    2   29 1   
     6    3    4 ar  
     7    3   13 1   
     8    4    5 ar  
     9    4   30 1   
    10    5    6 ar  
    11    5   31 1   
    12    6    7 1   
    13    7    8 1   
    14    7   32 1   
    15    7   33 1   
    16    8    9 1   
    17    8   12 1   
    18    9   10 1   
    19    9   34 1   
    20    9   35 1   
    21   10   11 1   
    22   10   36 1   
    23   10   37 1   
    24   11   12 1   
    25   11   38 1   
    26   11   39 1   
    27   12   40 1   
    28   12   41 1   
    29   13   14 1   
    30   13   42 1   
    31   14   15 2   
    32   14   43 1   
    33   15   16 1   
    34   15   25 1   
    35   16   17 ar  
    36   16   21 ar  
    37   17   18 ar  
    38   17   44 1   
    39   18   19 ar  
    40   18   27 1   
    41   19   20 ar  
    42   19   45 1   
    43   20   21 ar  
    44   20   46 1   
    45   21   22 1   
    46   22   23 2   
    47   22   24 1   
    48   24   25 1   
    49   24   47 1   
    50   25   26 2   
@<TRIPOS>SUBSTRUCTURE
     1 575         1 TEMP              0 ****  ****    0 ROOT
