@<TRIPOS>MOLECULE
575
   47    44     1     0     0
SMALL
bcc


@<TRIPOS>ATOM
      1 C1         -2.0220   -1.5020   -0.9990 c1        1 575     -0.101000
      2 C2         -0.6660   -1.5150   -1.2440 c1        1 575     -0.157000
      3 C3          0.2240   -1.2520   -0.2210 c1        1 575      0.049000
      4 C4         -0.2460   -0.9750    1.0500 c1        1 575     -0.109500
      5 C5         -1.6170   -0.9630    1.2960 c1        1 575     -0.109500
      6 C6         -2.4980   -1.2240    0.2780 c1        1 575     -0.088000
      7 C7         -4.0220   -1.3450    0.5790 c3        1 575     -0.036000
      8 N1         -4.4690   -0.1540    1.2630 n3        1 575     -0.243000
      9 C8         -5.3870   -0.4650    2.1410 c3        1 575     -0.083000
     10 C9         -6.7590   -0.3310    1.3720 c3        1 575     -0.176500
     11 C10        -6.4240    0.3840    0.0590 c3        1 575     -0.176500
     12 C11        -5.1670    0.8310    0.2180 c3        1 575     -0.083000
     13 N2          1.6390   -1.3260   -0.4660 n3        1 575     -0.238000
     14 C12         2.4710   -0.1570   -0.2630 c2        1 575      0.128000
     15 C13         3.7800   -0.1610   -0.6990 c1        1 575     -0.292000
     16 C14         4.6460    1.0530   -0.4960 c1        1 575      0.067000
     17 C15         4.1340    2.1760    0.1260 c2        1 575     -0.146000
     18 C16         4.9450    3.3050    0.3100 c1        1 575     -0.124000
     19 C17         6.2460    3.2950   -0.1260 c1        1 575     -0.109500
     20 C18         6.7600    2.1740   -0.7460 c1        1 575     -0.109500
     21 C19         5.9540    1.0450   -0.9320 c1        1 575     -0.138000
     22 C20         6.5240   -0.1980   -1.6280 c2        1 575      0.357000
     23 O1          7.6390   -0.1860   -2.0460 o         1 575     -0.342000
     24 N3          5.6890   -1.3620   -1.8280 n         1 575     -0.362000
     25 C21         4.3320   -1.3580   -1.3720 c2        1 575      0.377000
     26 O2          3.6080   -2.3330   -1.5850 o         1 575     -0.398000
     27 BR1         4.6150    5.0420    0.9360 br        1 575      0.059000
     28 H1         -2.6550   -1.6900   -1.7300 ha        1 575      0.139000
     29 H2         -0.3350   -1.7110   -2.1410 ha        1 575      0.145000
     30 H4          0.3780   -0.7900    1.7710 ha        1 575      0.153000
     31 H5         -1.9470   -0.7700    2.1800 ha        1 575      0.153000
     32 H7         -4.1890   -2.1550    1.1630 h1        1 575      0.080500
     33 H7A        -4.5170   -1.4420   -0.2660 h1        1 575      0.080500
     34 H8         -5.2630   -1.3850    2.4580 h1        1 575      0.087000
     35 H8A        -5.3580    0.1650    2.8980 h1        1 575      0.087000
     36 H9         -7.4100    0.2150    1.9130 hc        1 575      0.087500
     37 H9A        -7.1310   -1.2170    1.1880 hc        1 575      0.087500
     38 H10        -7.0250    1.1210   -0.0820 hc        1 575      0.087500
     39 H10A       -6.4700   -0.2560   -0.7070 hc        1 575      0.087500
     40 H11        -4.6870    0.8040   -0.6410 h1        1 575      0.087000
     41 H11A       -5.1750    1.7390    0.5700 h1        1 575      0.087000
     42 HN2         2.0210   -2.1250   -0.7740 hn        1 575      0.279000
     43 H12         2.0770    0.6680    0.0950 h4        1 575      0.156000
     44 H15         3.2220    2.1830    0.4310 ha        1 575      0.142000
     45 H17         6.8030    4.0740    0.0010 ha        1 575      0.153000
     46 H18         7.7030    2.1690   -1.0600 ha        1 575      0.153000
     47 HN3         6.0270   -2.0980   -2.2430 hn        1 575      0.255000
@<TRIPOS>BOND
     1    1    6 1   
     2    1   28 1   
     3    2    3 1   
     4    2   29 1   
     5    3   13 1   
     6    4    5 1   
     7    4   30 1   
     8    5   31 1   
     9    6    7 1   
    10    7    8 1   
    11    7   32 1   
    12    7   33 1   
    13    8    9 1   
    14    8   12 1   
    15    9   10 1   
    16    9   34 1   
    17    9   35 1   
    18   10   11 1   
    19   10   36 1   
    20   10   37 1   
    21   11   12 1   
    22   11   38 1   
    23   11   39 1   
    24   12   40 1   
    25   12   41 1   
    26   13   14 1   
    27   13   42 1   
    28   14   15 1   
    29   14   43 1   
    30   15   25 1   
    31   16   17 1   
    32   16   21 1   
    33   17   18 1   
    34   17   44 1   
    35   18   27 1   
    36   19   20 1   
    37   19   45 1   
    38   20   46 1   
    39   21   22 1   
    40   22   23 1   
    41   22   24 1   
    42   24   25 1   
    43   24   47 1   
    44   25   26 1   
@<TRIPOS>SUBSTRUCTURE
     1 575         1 TEMP              0 ****  ****    0 ROOT
