@<TRIPOS>MOLECULE
576
   38    40     1     0     0
SMALL
bcc


@<TRIPOS>ATOM
      1 O1         -0.0090   -0.0590   -0.3280 oh        1 576     -0.661800
      2 C2          1.3790   -0.0280   -0.0210 c3        1 576      0.172100
      3 C17         1.6290    0.0030    1.4790 c3        1 576     -0.234400
      4 C18         1.2390   -1.3240    2.1490 c         1 576      0.909600
      5 O20         0.1690   -1.8930    1.7710 o         1 576     -0.847800
      6 O19         1.9940   -1.7790    3.0510 o         1 576     -0.847800
      7 C3          1.9560    1.2170   -0.6970 c3        1 576     -0.076400
      8 C4          1.8630    1.1060   -2.2060 c3        1 576     -0.047100
      9 C5          2.2870    2.3580   -2.8910 ca        1 576     -0.043300
     10 C6          3.4970    2.3950   -3.6100 ca        1 576     -0.122000
     11 C7          3.8630    3.5640   -4.2470 ca        1 576     -0.086300
     12 C1          5.0900    3.8580   -5.0670 c3        1 576      0.007200
     13 C16         4.8970    5.2920   -5.4770 ca        1 576     -0.087300
     14 C15         5.7080    6.1040   -6.2460 ca        1 576     -0.121000
     15 C14         5.3040    7.4250   -6.4900 ca        1 576     -0.139000
     16 C13         4.1090    7.9130   -5.9690 ca        1 576     -0.135000
     17 C12         3.2780    7.0980   -5.1880 ca        1 576     -0.114000
     18 C11         3.6690    5.7920   -4.9420 cp        1 576     -0.021000
     19 C8          3.0310    4.7220   -4.1800 cp        1 576     -0.069000
     20 C9          1.8410    4.6860   -3.4700 ca        1 576     -0.099000
     21 C10         1.4770    3.4970   -2.8280 ca        1 576     -0.136000
     22 H1         -0.4040   -0.7290    0.2600 ho        1 576      0.457000
     23 H2          1.8590   -0.9500   -0.4590 h1        1 576      0.025700
     24 H171        1.0180    0.8170    1.9440 hc        1 576      0.035200
     25 H172        2.7080    0.2120    1.6780 hc        1 576      0.035200
     26 H31C        3.0240    1.3350   -0.3840 hc        1 576      0.039200
     27 H32C        1.3880    2.1180   -0.3490 hc        1 576      0.039200
     28 H41C        2.4910    0.2430   -2.5540 hc        1 576      0.058200
     29 H42C        0.7960    0.8720   -2.4790 hc        1 576      0.058200
     30 H6          4.1350    1.5020   -3.6560 ha        1 576      0.135000
     31 H10         0.5360    3.4530   -2.2570 ha        1 576      0.144000
     32 H11C        5.1520    3.1860   -5.9600 hc        1 576      0.068200
     33 H12C        6.0220    3.7320   -4.4610 hc        1 576      0.068200
     34 H15         6.6540    5.7290   -6.6610 ha        1 576      0.128000
     35 H14         5.9420    8.0800   -7.1000 ha        1 576      0.122000
     36 H13         3.8090    8.9520   -6.1700 ha        1 576      0.123000
     37 H12         2.3370    7.4900   -4.7790 ha        1 576      0.133000
     38 H9          1.1940    5.5710   -3.4100 ha        1 576      0.127000
@<TRIPOS>BOND
     1    1    2 1   
     2    1   22 1   
     3    2    3 1   
     4    2    7 1   
     5    2   23 1   
     6    3    4 1   
     7    3   24 1   
     8    3   25 1   
     9    4    5 1   
    10    4    6 1   
    11    7    8 1   
    12    7   26 1   
    13    7   27 1   
    14    8    9 1   
    15    8   28 1   
    16    8   29 1   
    17    9   10 ar  
    18    9   21 ar  
    19   10   11 ar  
    20   10   30 1   
    21   11   12 1   
    22   11   19 ar  
    23   12   13 1   
    24   12   32 1   
    25   12   33 1   
    26   13   14 ar  
    27   13   18 ar  
    28   14   15 ar  
    29   14   34 1   
    30   15   16 ar  
    31   15   35 1   
    32   16   17 ar  
    33   16   36 1   
    34   17   18 ar  
    35   17   37 1   
    36   18   19 1   
    37   19   20 ar  
    38   20   21 ar  
    39   20   38 1   
    40   21   31 1   
@<TRIPOS>SUBSTRUCTURE
     1 576         1 TEMP              0 ****  ****    0 ROOT
