@<TRIPOS>MOLECULE
576
   38    40     1     0     0
SMALL
bcc


@<TRIPOS>ATOM
      1 O1          4.1170    1.5050    0.6040 oh        1 576     -0.661800
      2 C2          3.8890    0.1700    0.1740 c3        1 576      0.172100
      3 C17         4.7830   -0.2130   -0.9950 c3        1 576     -0.234400
      4 C18         6.2570   -0.3200   -0.5720 c         1 576      0.909600
      5 O20         6.7170    0.5590    0.2200 o         1 576     -0.847800
      6 O19         6.9440   -1.2670   -1.0440 o         1 576     -0.847800
      7 C3          2.4120    0.0740   -0.2140 c3        1 576     -0.076400
      8 C4          1.5200    0.2850    0.9940 c3        1 576     -0.047100
      9 C5          0.0780    0.3380    0.6280 ca        1 576     -0.043300
     10 C6         -0.7800   -0.7210    0.9810 ca        1 576     -0.122000
     11 C7         -2.1160   -0.6440    0.6410 ca        1 576     -0.086300
     12 C1         -3.2230   -1.6300    0.9000 c3        1 576      0.007200
     13 C16        -4.4270   -0.9660    0.2900 ca        1 576     -0.087300
     14 C15        -5.7350   -1.4060    0.2250 ca        1 576     -0.121000
     15 C14        -6.6890   -0.5940   -0.4070 ca        1 576     -0.139000
     16 C13        -6.3290    0.6320   -0.9590 ca        1 576     -0.135000
     17 C12        -5.0050    1.0880   -0.8980 ca        1 576     -0.114000
     18 C11        -4.0560    0.2930   -0.2760 cp        1 576     -0.021000
     19 C8         -2.6260    0.4910   -0.0590 cp        1 576     -0.069000
     20 C9         -1.7800    1.5310   -0.4080 ca        1 576     -0.099000
     21 C10        -0.4280    1.4460   -0.0600 ca        1 576     -0.136000
     22 H1          5.0850    1.6130    0.6560 ho        1 576      0.457000
     23 H2          4.0940   -0.5210    1.0420 h1        1 576      0.025700
     24 H171        4.4510   -1.1920   -1.4200 hc        1 576      0.035200
     25 H172        4.7080    0.5650   -1.7940 hc        1 576      0.035200
     26 H31C        2.1870    0.8510   -0.9890 hc        1 576      0.039200
     27 H32C        2.2210   -0.9330   -0.6630 hc        1 576      0.039200
     28 H41C        1.7000   -0.5370    1.7360 hc        1 576      0.058200
     29 H42C        1.8170    1.2510    1.4890 hc        1 576      0.058200
     30 H6         -0.3820   -1.5940    1.5180 ha        1 576      0.135000
     31 H10         0.2580    2.2640   -0.3330 ha        1 576      0.144000
     32 H11C       -3.0110   -2.6140    0.4110 hc        1 576      0.068200
     33 H12C       -3.3660   -1.8020    1.9970 hc        1 576      0.068200
     34 H15        -6.0300   -2.3720    0.6560 ha        1 576      0.128000
     35 H14        -7.7330   -0.9340   -0.4650 ha        1 576      0.122000
     36 H13        -7.0900    1.2540   -1.4510 ha        1 576      0.123000
     37 H12        -4.7270    2.0560   -1.3370 ha        1 576      0.133000
     38 H9         -2.1610    2.4080   -0.9500 ha        1 576      0.127000
@<TRIPOS>BOND
     1    1    2 1   
     2    1   22 1   
     3    2    3 1   
     4    2    7 1   
     5    2   23 1   
     6    3    4 1   
     7    3   24 1   
     8    3   25 1   
     9    4    5 1   
    10    4    6 1   
    11    7    8 1   
    12    7   26 1   
    13    7   27 1   
    14    8    9 1   
    15    8   28 1   
    16    8   29 1   
    17    9   10 ar  
    18    9   21 ar  
    19   10   11 ar  
    20   10   30 1   
    21   11   12 1   
    22   11   19 ar  
    23   12   13 1   
    24   12   32 1   
    25   12   33 1   
    26   13   14 ar  
    27   13   18 ar  
    28   14   15 ar  
    29   14   34 1   
    30   15   16 ar  
    31   15   35 1   
    32   16   17 ar  
    33   16   36 1   
    34   17   18 ar  
    35   17   37 1   
    36   18   19 1   
    37   19   20 ar  
    38   20   21 ar  
    39   20   38 1   
    40   21   31 1   
@<TRIPOS>SUBSTRUCTURE
     1 576         1 TEMP              0 ****  ****    0 ROOT
