@<TRIPOS>MOLECULE
576
   38    40     1     0     0
SMALL
bcc


@<TRIPOS>ATOM
      1 O1         -0.0060   -0.0850   -0.3580 oh        1 576     -0.661800
      2 C2          1.3740   -0.0280   -0.0230 c3        1 576      0.172100
      3 C17         1.5940    0.0200    1.4800 c3        1 576     -0.234400
      4 C18         1.2120   -1.3080    2.1540 c         1 576      0.909600
      5 O20         0.1590   -1.8970    1.7610 o         1 576     -0.847800
      6 O19         1.9570   -1.7430    3.0750 o         1 576     -0.847800
      7 C3          1.9440    1.2200   -0.6990 c3        1 576     -0.076400
      8 C4          1.8840    1.0950   -2.2090 c3        1 576     -0.047100
      9 C5          2.3010    2.3470   -2.8960 ca        1 576     -0.043300
     10 C6          3.5260    2.3990   -3.5890 ca        1 576     -0.122000
     11 C7          3.8850    3.5690   -4.2290 ca        1 576     -0.086300
     12 C1          5.1240    3.8760   -5.0260 c3        1 576      0.007200
     13 C16         4.9160    5.3030   -5.4530 ca        1 576     -0.087300
     14 C15         5.7290    6.1220   -6.2120 ca        1 576     -0.121000
     15 C14         5.3070    7.4340   -6.4770 ca        1 576     -0.139000
     16 C13         4.0930    7.9050   -5.9870 ca        1 576     -0.135000
     17 C12         3.2600    7.0830   -5.2160 ca        1 576     -0.114000
     18 C11         3.6670    5.7860   -4.9490 cp        1 576     -0.021000
     19 C8          3.0320    4.7120   -4.1920 cp        1 576     -0.069000
     20 C9          1.8280    4.6610   -3.5080 ca        1 576     -0.099000
     21 C10         1.4700    3.4720   -2.8620 ca        1 576     -0.136000
     22 H1         -0.4020   -0.7550    0.2280 ho        1 576      0.457000
     23 H2          1.8780   -0.9460   -0.4440 h1        1 576      0.025700
     24 H171        2.6660    0.2480    1.6990 hc        1 576      0.035200
     25 H172        0.9610    0.8280    1.9260 hc        1 576      0.035200
     26 H31C        3.0040    1.3590   -0.3660 hc        1 576      0.039200
     27 H32C        1.3550    2.1150   -0.3710 hc        1 576      0.039200
     28 H41C        0.8280    0.8400   -2.5010 hc        1 576      0.058200
     29 H42C        2.5340    0.2390   -2.5360 hc        1 576      0.058200
     30 H6          4.1810    1.5170   -3.6130 ha        1 576      0.135000
     31 H10         0.5180    3.4170   -2.3110 ha        1 576      0.144000
     32 H11C        5.2180    3.1970   -5.9100 hc        1 576      0.068200
     33 H12C        6.0450    3.7720   -4.3980 hc        1 576      0.068200
     34 H15         6.6900    5.7610   -6.6030 ha        1 576      0.128000
     35 H14         5.9480    8.0940   -7.0800 ha        1 576      0.122000
     36 H13         3.7790    8.9360   -6.2050 ha        1 576      0.123000
     37 H12         2.3030    7.4620   -4.8320 ha        1 576      0.133000
     38 H9          1.1640    5.5360   -3.4700 ha        1 576      0.127000
@<TRIPOS>BOND
     1    1    2 1   
     2    1   22 1   
     3    2    3 1   
     4    2    7 1   
     5    2   23 1   
     6    3    4 1   
     7    3   24 1   
     8    3   25 1   
     9    4    5 1   
    10    4    6 1   
    11    7    8 1   
    12    7   26 1   
    13    7   27 1   
    14    8    9 1   
    15    8   28 1   
    16    8   29 1   
    17    9   10 ar  
    18    9   21 ar  
    19   10   11 ar  
    20   10   30 1   
    21   11   12 1   
    22   11   19 ar  
    23   12   13 1   
    24   12   32 1   
    25   12   33 1   
    26   13   14 ar  
    27   13   18 ar  
    28   14   15 ar  
    29   14   34 1   
    30   15   16 ar  
    31   15   35 1   
    32   16   17 ar  
    33   16   36 1   
    34   17   18 ar  
    35   17   37 1   
    36   18   19 1   
    37   19   20 ar  
    38   20   21 ar  
    39   20   38 1   
    40   21   31 1   
@<TRIPOS>SUBSTRUCTURE
     1 576         1 TEMP              0 ****  ****    0 ROOT
