@<TRIPOS>MOLECULE
576
   38    35     1     0     0
SMALL
bcc


@<TRIPOS>ATOM
      1 O1         -2.8280   -2.8300    2.8700 oh        1 576     -0.387000
      2 C2         -1.4340   -2.9600    2.7260 c3        1 576      0.061000
      3 C17        -0.7960   -3.0940    4.0900 c3        1 576     -0.263000
      4 C18        -1.2230   -4.4020    4.7210 c2        1 576      0.329000
      5 O20        -0.5170   -5.4340    4.5710 o         1 576     -0.582000
      6 O19        -2.2700   -4.4520    5.4190 o         1 576     -0.582000
      7 C3         -0.8830   -1.7360    2.0300 c3        1 576     -0.155000
      8 C4         -1.2390   -1.7880    0.5600 c3        1 576     -0.132000
      9 C5         -0.6830   -0.5660   -0.1380 c2        1 576     -0.036000
     10 C6          0.5560   -0.5460   -0.7710 c1        1 576     -0.119000
     11 C7          0.9580    0.5850   -1.4860 c1        1 576     -0.078000
     12 C1          2.1900    0.9020   -2.2100 c3        1 576     -0.087000
     13 C16         2.0760    2.2720   -2.7180 c2        1 576     -0.079000
     14 C15         2.9670    3.0890   -3.4170 c2        1 576     -0.121000
     15 C14         2.6070    4.3940   -3.7420 c1        1 576     -0.138000
     16 C13         1.3520    4.8880   -3.3690 c1        1 576     -0.125000
     17 C12         0.4620    4.0740   -2.6720 c1        1 576     -0.125000
     18 C11         0.8220    2.7650   -2.3450 c1        1 576     -0.022000
     19 C8          0.1140    1.6970   -1.5650 c1        1 576     -0.069000
     20 C9         -1.1290    1.6750   -0.9290 c1        1 576     -0.100000
     21 C10        -1.5280    0.5470   -0.2160 c2        1 576     -0.138000
     22 H1         -3.2290   -3.5460    2.5290 ho        1 576      0.256000
     23 H2         -1.2340   -3.7550    2.1930 h1        1 576      0.064000
     24 H171       -1.0810   -2.3500    4.6580 hc        1 576      0.074500
     25 H172        0.1780   -3.0800    3.9980 hc        1 576      0.074500
     26 H31C       -1.2680   -0.9320    2.4310 hc        1 576      0.078000
     27 H32C        0.0900   -1.7150    2.1290 hc        1 576      0.078000
     28 H41C       -0.8560   -2.5940    0.1600 hc        1 576      0.097500
     29 H42C       -2.2120   -1.8050    0.4610 hc        1 576      0.097500
     30 H6          1.1370   -1.3300   -0.7320 ha        1 576      0.140000
     31 H10        -2.4050    0.5250    0.2120 ha        1 576      0.137000
     32 H11C        2.3050    0.2810   -2.9570 hc        1 576      0.109000
     33 H12C        2.9560    0.8370   -1.6050 hc        1 576      0.109000
     34 H15         3.8430    2.7450   -3.6780 ha        1 576      0.129000
     35 H14         3.2300    4.9650   -4.2310 ha        1 576      0.123000
     36 H13         1.1050    5.8070   -3.5850 ha        1 576      0.127500
     37 H12        -0.4140    4.4190   -2.4120 ha        1 576      0.127500
     38 H9         -1.7160    2.4530   -0.9790 ha        1 576      0.126000
@<TRIPOS>BOND
     1    1    2 1   
     2    1   22 1   
     3    2    3 1   
     4    2    7 1   
     5    2   23 1   
     6    3    4 1   
     7    3   24 1   
     8    3   25 1   
     9    4    5 1   
    10    4    6 1   
    11    7    8 1   
    12    7   26 1   
    13    7   27 1   
    14    8    9 1   
    15    8   28 1   
    16    8   29 1   
    17    9   10 1   
    18    9   21 1   
    19   10   30 1   
    20   11   12 1   
    21   11   19 1   
    22   12   13 1   
    23   12   32 1   
    24   12   33 1   
    25   13   14 1   
    26   13   18 1   
    27   14   15 1   
    28   14   34 1   
    29   15   35 1   
    30   16   17 1   
    31   16   36 1   
    32   17   37 1   
    33   20   21 1   
    34   20   38 1   
    35   21   31 1   
@<TRIPOS>SUBSTRUCTURE
     1 576         1 TEMP              0 ****  ****    0 ROOT
