@<TRIPOS>MOLECULE
577
   43    54     1     0     0
SMALL
bcc


@<TRIPOS>ATOM
      1 N2          0.0000    0.0000    0.0000 n7        1 577     -0.111000
      2 C2          1.3650    0.0000    0.0000 c2        1 577     -0.052000
      3 N1          1.7950    0.0000    1.2400 n2        1 577     -0.122000
      4 C4          0.7490    0.0090    2.0790 c3        1 577     -0.093000
      5 C5         -0.4060    0.0060    1.3140 c3        1 577     -0.141000
      6 C14        -2.7470   -0.8790    1.2880 c2        1 577     -0.126000
      7 C7         -1.7950    0.0070    1.8100 c2        1 577     -0.010000
      8 C16        -2.1990    0.8910    2.8200 c3        1 577     -0.347000
      9 C10        -3.5090    0.8610    3.2490 c3        1 577     -0.304000
     10 N5         -4.3730    0.0100    2.7300 n2        1 577      0.274000
     11 C18        -4.0330   -0.8420    1.7820 c2        1 577     -0.181000
     12 C15         1.8000    0.8320    5.5920 c2        1 577     -0.154000
     13 C8          0.9410    0.0320    6.3260 c2        1 577      0.619000
     14 C17         0.0180   -0.7760    5.6810 c3        1 577     -0.224000
     15 C11        -0.0480   -0.7870    4.3030 c2        1 577     -0.245000
     16 C13         0.8150    0.0170    3.5590 c2        1 577      0.382000
     17 C19         1.7460    0.8240    4.2130 c3        1 577      0.028000
     18 C1          2.2210   -0.0050   -1.2040 c2        1 577      0.052000
     19 C9          3.3840    0.7650   -1.2410 c3        1 577     -0.464000
     20 C3          4.1790    0.7560   -2.3680 c2        1 577     -0.219000
     21 C12         3.8270   -0.0160   -3.4610 c2        1 577     -0.422000
     22 C20         2.6730   -0.7770   -3.4340 c3        1 577     -0.114000
     23 C6          1.8720   -0.7800   -2.3100 c2        1 577     -0.396000
     24 S1          4.8490   -0.0230   -4.8970 s4        1 577      1.208000
     25 O1          3.9060   -0.4510   -5.8680 o         1 577     -0.682000
     26 C21         5.9600   -1.3940   -4.4850 c3        1 577     -0.469000
     27 HN2         0.1640   -0.0350    0.9870 DU        1 577      0.349000
     28 H14        -2.0030   -0.5750    0.5620 ha        1 577      0.223000
     29 H16        -2.2870    0.1030    2.0830 hc        1 577      0.283000
     30 H10        -2.4910    1.2320    3.2510 DU        1 577      0.216000
     31 H18        -3.9670   -0.0550    2.5230 DU        1 577     -0.013000
     32 H15         0.9260    0.5190    5.0330 DU        1 577      0.115000
     33 H17         0.8190   -0.0600    5.8160 hc        1 577     -0.330000
     34 H11        -0.3550   -1.0990    5.2940 DU        1 577      0.115000
     35 H19         0.9430    0.1090    4.0810 hc        1 577     -0.152000
     36 H9          3.1760    0.9140   -0.1890 hc        1 577      0.327000
     37 H3          3.9180    1.0680   -1.3640 DU        1 577      0.316000
     38 H20         3.4460   -0.0950   -3.1010 hc        1 577      0.260000
     39 H6          2.1390   -1.0850   -3.3150 DU        1 577      0.316000
     40 H211        4.9690   -1.3910   -4.0490 h1        1 577      0.119667
     41 H212        7.0100   -1.1360   -4.5560 h1        1 577      0.119667
     42 H213        5.6860   -2.3300   -4.9560 h1        1 577      0.119667
     43 F1          1.0010    0.0380    7.6760 f         1 577     -0.074000
@<TRIPOS>BOND
     1    1    2 1   
     2    1    5 1   
     3    1   27 1   
     4    2    3 1   
     5    2   18 1   
     6    3    4 1   
     7    4    5 1   
     8    4   16 1   
     9    4   27 1   
    10    5    7 1   
    11    5   27 1   
    12    6    7 1   
    13    6   11 1   
    14    6   28 1   
    15    7    8 1   
    16    8    9 1   
    17    8   29 1   
    18    8   30 1   
    19    9   10 1   
    20    9   30 1   
    21    9   31 1   
    22   10   11 1   
    23   11   31 1   
    24   12   13 1   
    25   12   17 1   
    26   12   32 1   
    27   13   14 1   
    28   13   43 1   
    29   14   15 1   
    30   14   33 1   
    31   14   34 1   
    32   15   16 1   
    33   15   34 1   
    34   16   17 1   
    35   17   32 1   
    36   17   35 1   
    37   18   19 1   
    38   18   23 1   
    39   19   20 1   
    40   19   36 1   
    41   19   37 1   
    42   20   21 1   
    43   20   37 1   
    44   21   22 1   
    45   21   24 1   
    46   22   23 1   
    47   22   38 1   
    48   22   39 1   
    49   23   39 1   
    50   24   25 1   
    51   24   26 1   
    52   26   40 1   
    53   26   41 1   
    54   26   42 1   
@<TRIPOS>SUBSTRUCTURE
     1 577         1 TEMP              0 ****  ****    0 ROOT
