@<TRIPOS>MOLECULE
577
   43    35     1     0     0
SMALL
bcc


@<TRIPOS>ATOM
      1 N2         -0.8430    0.3310   -0.3630 n2        1 577     -0.151000
      2 C2          0.5060    0.2000   -0.3780 c1        1 577      0.000000
      3 N1          0.9170   -0.0550    0.8880 n2        1 577     -0.151000
      4 C4         -0.1620   -0.0820    1.6750 c1        1 577     -0.057000
      5 C5         -1.2600    0.1600    0.8950 c1        1 577     -0.057000
      6 C14        -3.3820    1.3430    1.4660 c1        1 577     -0.115000
      7 C7         -2.7680    0.1990    1.0460 c1        1 577      0.021000
      8 C16        -3.5100   -0.9160    0.7840 c1        1 577     -0.185000
      9 C10        -4.8860   -0.8860    0.9450 c1        1 577     -0.069000
     10 N5         -5.4980    0.2570    1.3640 n1        1 577     -0.132000
     11 C18        -4.7590    1.3710    1.6260 c1        1 577     -0.115000
     12 C15         0.2200    0.4100    5.4130 c1        1 577     -0.119500
     13 C8         -0.0730   -0.8580    5.8900 c1        1 577      0.095000
     14 C17        -0.4150   -1.8690    5.0070 c1        1 577     -0.171000
     15 C11        -0.4640   -1.6130    3.6450 c1        1 577     -0.099500
     16 C13        -0.1700   -0.3450    3.1670 c1        1 577     -0.004000
     17 C19         0.1720    0.6660    4.0510 c2        1 577     -0.109000
     18 F1         -0.0010   -1.1120    7.2030 f         1 577     -0.105000
     19 C1          1.3890    0.2330   -1.6100 c1        1 577     -0.004000
     20 C9          1.7480    1.4490   -2.1730 c2        1 577     -0.109000
     21 C3          2.5640    1.4790   -3.2930 c1        1 577     -0.119500
     22 C12         3.0220    0.2950   -3.8500 c1        1 577     -0.550000
     23 C20         2.6630   -0.9200   -3.2870 c1        1 577     -0.053000
     24 C6          1.8460   -0.9510   -2.1670 c1        1 577     -0.099500
     25 S1          4.0750    0.3340   -5.2770 s4        1 577      1.456000
     26 O1          5.4930    0.5010   -5.1190 o         1 577     -0.778000
     27 C21         3.3840    0.1090   -6.8950 c3        1 577     -0.674000
     28 HN2        -1.3730    0.5070   -1.0840 DU        1 577      0.258000
     29 H14        -2.8520    2.1410    1.6530 ha        1 577      0.163500
     30 H16        -3.0710   -1.7350    0.4840 ha        1 577      0.141000
     31 H10        -5.4170   -1.6840    0.7580 ha        1 577      0.162000
     32 H18        -5.1980    2.1890    1.9260 ha        1 577      0.163500
     33 H15         0.4610    1.1220    6.0350 ha        1 577      0.140500
     34 H17        -0.6220   -2.7620    5.3430 ha        1 577      0.150000
     35 H11        -0.7040   -2.3260    3.0230 ha        1 577      0.154000
     36 H19         0.3790    1.5590    3.7140 ha        1 577      0.143000
     37 H9          1.4260    2.2820   -1.7810 ha        1 577      0.143000
     38 H3          2.8170    2.3350   -3.6900 ha        1 577      0.140500
     39 H20         2.9850   -1.7540   -3.6790 ha        1 577      0.171000
     40 H6          1.5930   -1.8060   -1.7710 ha        1 577      0.154000
     41 H211        3.9610    0.5410   -7.5600 h1        1 577      0.124333
     42 H212        2.4910    0.5110   -6.9280 h1        1 577      0.124333
     43 H213        3.3190   -0.8490   -7.0920 h1        1 577      0.124333
@<TRIPOS>BOND
     1    1    2 1   
     2    1    5 1   
     3    2    3 1   
     4    3    4 1   
     5    4    5 1   
     6    6   11 1   
     7    6   29 1   
     8    7    8 1   
     9    8   30 1   
    10    9   10 1   
    11    9   31 1   
    12   11   32 1   
    13   12   17 1   
    14   12   33 1   
    15   13   14 1   
    16   13   18 1   
    17   14   34 1   
    18   15   16 1   
    19   15   35 1   
    20   16   17 1   
    21   17   36 1   
    22   19   20 1   
    23   19   24 1   
    24   20   21 1   
    25   20   37 1   
    26   21   38 1   
    27   22   23 1   
    28   22   25 1   
    29   23   39 1   
    30   24   40 1   
    31   25   26 1   
    32   25   27 1   
    33   27   41 1   
    34   27   42 1   
    35   27   43 1   
@<TRIPOS>SUBSTRUCTURE
     1 577         1 TEMP              0 ****  ****    0 ROOT
