@<TRIPOS>MOLECULE
577
   43    46     1     0     0
SMALL
bcc


@<TRIPOS>ATOM
      1 N2          1.3010    0.0390   -0.0440 na        1 577     -0.295900
      2 C2          0.0920    0.0350    0.6680 cc        1 577      0.459000
      3 N1         -0.9690    0.0210   -0.1860 nd        1 577     -0.646000
      4 C4         -0.4350    0.0190   -1.4770 cd        1 577      0.387800
      5 C5          0.9880    0.0400   -1.4070 cc        1 577     -0.154600
      6 C14         3.2200   -0.5940   -2.2940 ca        1 577     -0.237800
      7 C7          2.0000    0.0850   -2.4420 ca        1 577      0.020000
      8 C16         1.7910    0.8280   -3.6150 ca        1 577     -0.237800
      9 C10         2.8090    0.8580   -4.5830 ca        1 577      0.396700
     10 N5          3.9850    0.2140   -4.4520 nb        1 577     -0.658000
     11 C18         4.1730   -0.4980   -3.3240 ca        1 577      0.396700
     12 C15        -3.2960    0.6280   -3.8290 ca        1 577     -0.171000
     13 C8         -2.9030   -0.1450   -4.9370 ca        1 577      0.129900
     14 C17        -1.6940   -0.8630   -4.9040 ca        1 577     -0.171000
     15 C11        -0.8900   -0.8000   -3.7720 ca        1 577     -0.085000
     16 C13        -1.2710   -0.0270   -2.6650 ca        1 577     -0.131500
     17 C19        -2.4820    0.6790   -2.7030 ca        1 577     -0.085000
     18 C1          0.0220    0.0430    2.1290 ca        1 577     -0.086500
     19 C9         -1.1160    0.5620    2.7630 ca        1 577     -0.125500
     20 C3         -1.1900    0.5740    4.1530 ca        1 577     -0.059000
     21 C12        -0.1420    0.0780    4.9330 ca        1 577     -0.121500
     22 C20         0.9840   -0.4480    4.2940 ca        1 577     -0.059000
     23 C6          1.0730   -0.4680    2.9040 ca        1 577     -0.125500
     24 S1         -0.2130    0.2110    6.6410 sx        1 577      0.326400
     25 O1          1.0360   -0.4130    7.1600 o         1 577     -0.510200
     26 C21        -1.4840   -0.9190    7.0090 c3        1 577     -0.128800
     27 HN2         2.2100    0.0850    0.3380 hn        1 577      0.308700
     28 H14         3.4320   -1.2040   -1.4070 ha        1 577      0.150500
     29 H16         0.8470    1.3680   -3.7730 ha        1 577      0.150500
     30 H10         2.6780    1.4340   -5.5170 h4        1 577      0.027100
     31 H18         5.1430   -1.0210   -3.2420 h4        1 577      0.027100
     32 H15        -4.2450    1.1830   -3.8610 ha        1 577      0.150500
     33 H17        -1.3970   -1.4710   -5.7710 ha        1 577      0.150500
     34 H11         0.0560   -1.3640   -3.7420 ha        1 577      0.149000
     35 H19        -2.7970    1.2770   -1.8330 ha        1 577      0.149000
     36 H9         -1.9520    0.9550    2.1630 ha        1 577      0.146000
     37 H3         -2.0910    0.9820    4.6390 ha        1 577      0.151000
     38 H20         1.8090   -0.8520    4.9090 ha        1 577      0.151000
     39 H6          1.9640   -0.9060    2.4320 ha        1 577      0.146000
     40 H211       -1.8130   -0.7440    8.0600 h1        1 577      0.086367
     41 H212       -2.3610   -0.7760    6.3390 h1        1 577      0.086367
     42 H213       -1.1690   -1.9860    6.9370 h1        1 577      0.086367
     43 F1         -3.6910   -0.2000   -6.0370 f         1 577     -0.139900
@<TRIPOS>BOND
     1    1    2 1   
     2    1    5 1   
     3    1   27 1   
     4    2    3 2   
     5    2   18 1   
     6    3    4 1   
     7    4    5 2   
     8    4   16 1   
     9    5    7 1   
    10    6    7 ar  
    11    6   11 ar  
    12    6   28 1   
    13    7    8 ar  
    14    8    9 ar  
    15    8   29 1   
    16    9   10 ar  
    17    9   30 1   
    18   10   11 ar  
    19   11   31 1   
    20   12   13 ar  
    21   12   17 ar  
    22   12   32 1   
    23   13   14 ar  
    24   13   43 1   
    25   14   15 ar  
    26   14   33 1   
    27   15   16 ar  
    28   15   34 1   
    29   16   17 ar  
    30   17   35 1   
    31   18   19 ar  
    32   18   23 ar  
    33   19   20 ar  
    34   19   36 1   
    35   20   21 ar  
    36   20   37 1   
    37   21   22 ar  
    38   21   24 1   
    39   22   23 ar  
    40   22   38 1   
    41   23   39 1   
    42   24   25 2   
    43   24   26 1   
    44   26   40 1   
    45   26   41 1   
    46   26   42 1   
@<TRIPOS>SUBSTRUCTURE
     1 577         1 TEMP              0 ****  ****    0 ROOT
