@<TRIPOS>MOLECULE
578
   56    57     1     0     0
SMALL
bcc


@<TRIPOS>ATOM
      1 C27         7.0800    1.2680   -1.1060 ca        1 578     -0.118000
      2 C28         8.3000    1.3660   -0.4410 ca        1 578     -0.139500
      3 C29         8.3740    1.1030    0.9270 ca        1 578     -0.148000
      4 C30         7.2240    0.7400    1.6270 ca        1 578     -0.139500
      5 C31         6.0000    0.6420    0.9660 ca        1 578     -0.118000
      6 C26         5.9220    0.9060   -0.4060 ca        1 578     -0.070300
      7 C23         4.6330    0.8300   -1.1570 c3        1 578      0.194700
      8 O22         3.6490    0.2240   -0.3200 os        1 578     -0.473900
      9 C20         2.3390    0.2520   -0.8270 c         1 578      0.723100
     10 O21         2.2280    0.6600   -2.0000 o         1 578     -0.624000
     11 N19         1.4050   -0.0770    0.1210 n         1 578     -0.435900
     12 C15         0.0940   -0.5450   -0.2430 c3        1 578     -0.112500
     13 C16         0.0100   -1.9040   -0.9370 c3        1 578     -0.079700
     14 C18        -0.1480   -1.7210   -2.4360 c3        1 578     -0.089100
     15 C17         1.1870   -2.8230   -0.6680 c3        1 578     -0.089100
     16 P14        -0.8260   -0.5730    1.2830 p5        1 578      1.328600
     17 O24        -1.2690    0.8110    1.5700 o         1 578     -0.854000
     18 O25         0.0300   -1.3470    2.2150 o         1 578     -0.854000
     19 O13        -2.1550   -1.4180    0.8220 os        1 578     -0.577200
     20 C1         -3.4050   -1.0240    1.3250 c3        1 578      0.127400
     21 C2         -4.2340   -2.2690    1.7700 c         1 578      0.917600
     22 O12        -4.4800   -3.2070    0.9580 o         1 578     -0.851800
     23 O11        -4.6680   -2.2530    2.9580 o         1 578     -0.851800
     24 C3         -4.1650   -0.2140    0.2950 ca        1 578     -0.050300
     25 C8         -4.0850    1.1830    0.3330 ca        1 578     -0.112000
     26 C4         -4.9420   -0.8270   -0.6950 ca        1 578     -0.097000
     27 C5         -5.6360   -0.0490   -1.6210 ca        1 578     -0.172000
     28 C6         -5.5530    1.3420   -1.5800 ca        1 578     -0.153000
     29 C7         -4.7710    1.9640   -0.6030 ca        1 578     -0.168300
     30 C9         -4.6660    3.4600   -0.5550 c3        1 578      0.208100
     31 N10        -3.3320    4.0160   -0.4990 n3        1 578     -0.914800
     32 H27         7.0220    1.4730   -2.1850 ha        1 578      0.148000
     33 H28         9.2050    1.6510   -0.9960 ha        1 578      0.120000
     34 H29         9.3370    1.1800    1.4510 ha        1 578      0.114000
     35 H30         7.2780    0.5310    2.7050 ha        1 578      0.120000
     36 H31         5.0870    0.3550    1.5130 ha        1 578      0.148000
     37 H231        4.2910    1.8600   -1.4530 h1        1 578      0.054200
     38 H232        4.7480    0.2090   -2.0860 h1        1 578      0.054200
     39 HN19        1.7560   -0.5190    0.9570 hn        1 578      0.336500
     40 H15        -0.3700    0.2280   -0.9170 h1        1 578      0.086700
     41 H16        -0.9190   -2.4200   -0.5490 hc        1 578      0.110700
     42 H181        0.6990   -1.1160   -2.8440 hc        1 578      0.024533
     43 H182       -0.1650   -2.7110   -2.9510 hc        1 578      0.024533
     44 H183       -1.1040   -1.1900   -2.6600 hc        1 578      0.024533
     45 H171        1.3410   -2.9680    0.4290 hc        1 578      0.024533
     46 H172        0.9920   -3.8220   -1.1300 hc        1 578      0.024533
     47 H173        2.1260   -2.4140   -1.1150 hc        1 578      0.024533
     48 H1         -3.2390   -0.3710    2.2340 h1        1 578      0.045700
     49 H8         -3.4430    1.6550    1.1000 ha        1 578      0.173000
     50 H4         -4.9940   -1.9330   -0.7120 ha        1 578      0.188000
     51 H5         -6.2490   -0.5360   -2.3920 ha        1 578      0.097000
     52 H6         -6.0970    1.9480   -2.3180 ha        1 578      0.090000
     53 H91        -5.1750    3.8990   -1.4610 h1        1 578      0.028700
     54 H92        -5.2260    3.8250    0.3550 h1        1 578      0.028700
     55 H101       -2.8720    3.7190    0.3440 hn        1 578      0.352800
     56 H102       -2.7880    3.6740   -1.2690 hn        1 578      0.352800
@<TRIPOS>BOND
     1    1    2 ar  
     2    1    6 ar  
     3    1   32 1   
     4    2    3 ar  
     5    2   33 1   
     6    3    4 ar  
     7    3   34 1   
     8    4    5 ar  
     9    4   35 1   
    10    5    6 ar  
    11    5   36 1   
    12    6    7 1   
    13    7    8 1   
    14    7   37 1   
    15    7   38 1   
    16    8    9 1   
    17    9   10 2   
    18    9   11 1   
    19   11   12 1   
    20   11   39 1   
    21   12   13 1   
    22   12   16 1   
    23   12   40 1   
    24   13   14 1   
    25   13   15 1   
    26   13   41 1   
    27   14   42 1   
    28   14   43 1   
    29   14   44 1   
    30   15   45 1   
    31   15   46 1   
    32   15   47 1   
    33   16   17 1   
    34   16   18 1   
    35   16   19 1   
    36   19   20 1   
    37   20   21 1   
    38   20   24 1   
    39   20   48 1   
    40   21   22 1   
    41   21   23 1   
    42   24   25 ar  
    43   24   26 ar  
    44   25   29 ar  
    45   25   49 1   
    46   26   27 ar  
    47   26   50 1   
    48   27   28 ar  
    49   27   51 1   
    50   28   29 ar  
    51   28   52 1   
    52   29   30 1   
    53   30   31 1   
    54   30   53 1   
    55   30   54 1   
    56   31   55 1   
    57   31   56 1   
@<TRIPOS>SUBSTRUCTURE
     1 578         1 TEMP              0 ****  ****    0 ROOT
