@<TRIPOS>MOLECULE
578
   58    59     1     0     0
SMALL
bcc


@<TRIPOS>ATOM
      1 C27        -0.2700   -1.5450    1.2720 ca        1 578     -0.098500
      2 C28         0.6390   -1.4290    2.3240 ca        1 578     -0.133500
      3 C29         0.5590   -0.3470    3.2010 ca        1 578     -0.110000
      4 C30        -0.4310    0.6200    3.0290 ca        1 578     -0.133500
      5 C31        -1.3380    0.5110    1.9760 ca        1 578     -0.098500
      6 C26        -1.2590   -0.5720    1.0930 ca        1 578     -0.144300
      7 C23        -2.2070   -0.6690   -0.0520 c3        1 578      0.194700
      8 O22        -3.5760   -0.6550    0.4110 os        1 578     -0.412900
      9 C20        -4.1530   -1.8590    0.6820 c         1 578      0.621100
     10 O21        -3.5960   -2.9250    0.4330 o         1 578     -0.473000
     11 N19        -5.4920   -1.6970    1.2620 ny        1 578     -0.608800
     12 C15        -6.5770   -1.7840    0.2670 c3        1 578     -0.077700
     13 C16        -6.9970   -3.1690   -0.1980 c3        1 578     -0.060700
     14 C18        -6.6340   -4.3050    0.7380 c3        1 578     -0.106100
     15 C17        -6.4340   -3.4610   -1.5770 c3        1 578     -0.106100
     16 P14        -7.9980   -0.9490    0.9640 p5        1 578      1.306600
     17 O24        -7.3670    0.2320    1.6050 o         1 578     -0.804000
     18 O25        -9.0820   -0.9810   -0.0200 o         1 578     -0.804000
     19 O13        -8.3550   -2.0040    2.1770 os        1 578     -0.575200
     20 C1         -8.0350   -1.6510    3.4920 c3        1 578      0.103400
     21 C2         -7.1860   -2.8120    4.1050 c         1 578      0.940600
     22 O12        -7.6750   -3.6080    4.9650 o         1 578     -0.861300
     23 O11        -5.9810   -2.9140    3.7270 o         1 578     -0.861300
     24 C3         -9.2760   -1.4690    4.3200 ca        1 578     -0.060300
     25 C8        -10.0250   -2.6270    4.5530 ca        1 578     -0.048000
     26 C4         -9.5860   -0.3030    5.0210 ca        1 578     -0.078000
     27 C5        -10.5690   -0.3350    6.0190 ca        1 578     -0.141000
     28 C6        -11.1490   -1.5420    6.4030 ca        1 578     -0.107000
     29 C7        -10.8400   -2.7040    5.6870 ca        1 578     -0.203300
     30 C9        -11.1080   -4.0760    6.2000 c3        1 578      0.193100
     31 N10        -9.7760   -4.7430    6.4210 nz        1 578     -0.860600
     32 H27        -0.2130   -2.4060    0.5890 ha        1 578      0.141500
     33 H28         1.4150   -2.1950    2.4620 ha        1 578      0.137000
     34 H29         1.2750   -0.2600    4.0320 ha        1 578      0.135000
     35 H30        -0.4990    1.4700    3.7240 ha        1 578      0.137000
     36 H31        -2.1250    1.2680    1.8370 ha        1 578      0.141500
     37 H231       -2.1710    0.2610   -0.6870 h1        1 578      0.084200
     38 H232       -2.0210   -1.5820   -0.6770 h1        1 578      0.084200
     39 HN19       -5.6340   -2.4290    2.0180 hn        1 578      0.517800
     40 H15        -6.2730   -1.1750   -0.6310 hx        1 578      0.104700
     41 H16        -8.1280   -3.1270   -0.2830 hc        1 578      0.101700
     42 H181       -7.0000   -4.1170    1.7800 hc        1 578      0.043867
     43 H182       -5.5270   -4.4620    0.7670 hc        1 578      0.043867
     44 H183       -7.1070   -5.2470    0.3690 hc        1 578      0.043867
     45 H171       -6.7840   -4.4610   -1.9280 hc        1 578      0.043867
     46 H172       -5.3170   -3.4660   -1.5480 hc        1 578      0.043867
     47 H173       -6.7740   -2.6920   -2.3130 hc        1 578      0.043867
     48 H1         -7.4160   -0.7060    3.5090 h1        1 578      0.087700
     49 H8         -9.8650   -3.4920    3.8880 ha        1 578      0.156000
     50 H4         -9.0460    0.6320    4.8030 ha        1 578      0.158000
     51 H5        -10.8460    0.5940    6.5390 ha        1 578      0.138000
     52 H6        -11.8310   -1.5830    7.2640 ha        1 578      0.126000
     53 H91       -11.6660   -4.0610    7.1760 hx        1 578      0.087700
     54 H92       -11.6750   -4.6980    5.4510 hx        1 578      0.087700
     55 H101       -9.2160   -4.7140    5.5350 hn        1 578      0.467800
     56 H102       -9.2250   -4.2070    7.0990 hn        1 578      0.467800
     57 H192       -5.5750   -0.7470    1.7020 hn        1 578      0.517800
     58 H103       -9.8890   -5.7000    6.7390 hn        1 578      0.467800
@<TRIPOS>BOND
     1    1    2 ar  
     2    1    6 ar  
     3    1   32 1   
     4    2    3 ar  
     5    2   33 1   
     6    3    4 ar  
     7    3   34 1   
     8    4    5 ar  
     9    4   35 1   
    10    5    6 ar  
    11    5   36 1   
    12    6    7 1   
    13    7    8 1   
    14    7   37 1   
    15    7   38 1   
    16    8    9 1   
    17    9   10 2   
    18    9   11 1   
    19   11   12 1   
    20   11   39 1   
    21   11   57 1   
    22   12   13 1   
    23   12   16 1   
    24   12   40 1   
    25   13   14 1   
    26   13   15 1   
    27   13   41 1   
    28   14   42 1   
    29   14   43 1   
    30   14   44 1   
    31   15   45 1   
    32   15   46 1   
    33   15   47 1   
    34   16   17 1   
    35   16   18 1   
    36   16   19 1   
    37   19   20 1   
    38   20   21 1   
    39   20   24 1   
    40   20   48 1   
    41   21   22 1   
    42   21   23 1   
    43   24   25 ar  
    44   24   26 ar  
    45   25   29 ar  
    46   25   49 1   
    47   26   27 ar  
    48   26   50 1   
    49   27   28 ar  
    50   27   51 1   
    51   28   29 ar  
    52   28   52 1   
    53   29   30 1   
    54   30   31 1   
    55   30   53 1   
    56   30   54 1   
    57   31   55 1   
    58   31   56 1   
    59   31   58 1   
@<TRIPOS>SUBSTRUCTURE
     1 578         1 TEMP              0 ****  ****    0 ROOT
