@<TRIPOS>MOLECULE
578
   58    59     1     0     0
SMALL
bcc


@<TRIPOS>ATOM
      1 C27         0.3580   -1.8670    1.0130 ca        1 578     -0.105000
      2 C28         1.3930   -1.0300    1.4260 ca        1 578     -0.130000
      3 C29         1.1440    0.3190    1.6810 ca        1 578     -0.117000
      4 C30        -0.1420    0.8330    1.5200 ca        1 578     -0.130000
      5 C31        -1.1800    0.0020    1.0980 ca        1 578     -0.105000
      6 C26        -0.9310   -1.3490    0.8410 ca        1 578     -0.111300
      7 C23        -2.0090   -2.2540    0.3530 c3        1 578      0.198700
      8 O22        -3.2360   -1.8470    1.0140 os        1 578     -0.412900
      9 C20        -4.3140   -2.6480    0.7850 c         1 578      0.619100
     10 O21        -4.2320   -3.6450    0.0710 o         1 578     -0.477000
     11 N19        -5.5050   -2.1650    1.4900 n4        1 578     -0.610800
     12 C15        -6.5330   -1.5900    0.6030 c3        1 578     -0.075700
     13 C16        -7.4390   -2.5520   -0.1480 c3        1 578     -0.059700
     14 C18        -7.5230   -3.9500    0.4330 c3        1 578     -0.106100
     15 C17        -7.0270   -2.6420   -1.6070 c3        1 578     -0.106100
     16 P14        -7.5480   -0.5160    1.6160 p5        1 578      1.305600
     17 O24        -6.5250    0.1520    2.4580 o         1 578     -0.803500
     18 O25        -8.5690    0.0980    0.7660 o         1 578     -0.803500
     19 O13        -8.2630   -1.6550    2.5670 os        1 578     -0.575200
     20 C1         -7.8260   -1.8010    3.8870 c3        1 578      0.104400
     21 C2         -7.4840   -3.3100    4.1120 c         1 578      0.940600
     22 O12        -8.2320   -4.0640    4.8080 o         1 578     -0.860300
     23 O11        -6.4150   -3.7490    3.5910 o         1 578     -0.860300
     24 C3         -8.8980   -1.3970    4.8610 ca        1 578     -0.061300
     25 C8        -10.0300   -2.2160    4.8920 ca        1 578     -0.048000
     26 C4         -8.7330   -0.4230    5.8460 ca        1 578     -0.077000
     27 C5         -9.6460   -0.3470    6.9050 ca        1 578     -0.141000
     28 C6        -10.6420   -1.3110    7.0520 ca        1 578     -0.106000
     29 C7        -10.8060   -2.2780    6.0540 ca        1 578     -0.203300
     30 C9        -11.5760   -3.5370    6.2530 c3        1 578      0.193100
     31 N10       -10.6000   -4.6810    6.1710 n4        1 578     -0.860600
     32 H27         0.5560   -2.9320    0.8210 ha        1 578      0.142000
     33 H28         2.4070   -1.4370    1.5560 ha        1 578      0.137500
     34 H29         1.9620    0.9760    2.0110 ha        1 578      0.135000
     35 H30        -0.3430    1.8950    1.7270 ha        1 578      0.137500
     36 H31        -2.1990    0.4040    0.9790 ha        1 578      0.142000
     37 H231       -2.1680   -2.1460   -0.7530 h1        1 578      0.070700
     38 H232       -1.8080   -3.3290    0.6040 h1        1 578      0.070700
     39 HN19       -5.9230   -2.9650    2.0540 hn        1 578      0.518300
     40 H15        -6.0170   -0.9210   -0.1410 hx        1 578      0.102700
     41 H16        -8.4730   -2.0880   -0.1040 hc        1 578      0.100700
     42 H181       -8.3100   -4.5250   -0.1130 hc        1 578      0.044200
     43 H182       -7.7960   -3.9330    1.5190 hc        1 578      0.044200
     44 H183       -6.5530   -4.4930    0.3110 hc        1 578      0.044200
     45 H171       -7.0560   -1.6350   -2.0870 hc        1 578      0.044200
     46 H172       -7.7270   -3.3150   -2.1590 hc        1 578      0.044200
     47 H173       -5.9940   -3.0580   -1.6940 hc        1 578      0.044200
     48 H1         -6.8920   -1.1900    4.0650 h1        1 578      0.086700
     49 H8        -10.2180   -2.8760    4.0270 ha        1 578      0.156000
     50 H4         -7.8780    0.2700    5.7980 ha        1 578      0.159000
     51 H5         -9.5440    0.4500    7.6560 ha        1 578      0.139000
     52 H6        -11.2810   -1.3190    7.9460 ha        1 578      0.126000
     53 H91       -12.0800   -3.5690    7.2580 hx        1 578      0.087700
     54 H92       -12.3420   -3.6890    5.4410 hx        1 578      0.087700
     55 H101       -9.8830   -4.5800    6.8960 hn        1 578      0.467800
     56 H102      -11.0690   -5.5760    6.2630 hn        1 578      0.467800
     57 H192       -5.2330   -1.4020    2.1590 hn        1 578      0.518300
     58 H103      -10.0770   -4.6330    5.2630 hn        1 578      0.467800
@<TRIPOS>BOND
     1    1    2 ar  
     2    1    6 ar  
     3    1   32 1   
     4    2    3 ar  
     5    2   33 1   
     6    3    4 ar  
     7    3   34 1   
     8    4    5 ar  
     9    4   35 1   
    10    5    6 ar  
    11    5   36 1   
    12    6    7 1   
    13    7    8 1   
    14    7   37 1   
    15    7   38 1   
    16    8    9 1   
    17    9   10 2   
    18    9   11 1   
    19   11   12 1   
    20   11   39 1   
    21   11   57 1   
    22   12   13 1   
    23   12   16 1   
    24   12   40 1   
    25   13   14 1   
    26   13   15 1   
    27   13   41 1   
    28   14   42 1   
    29   14   43 1   
    30   14   44 1   
    31   15   45 1   
    32   15   46 1   
    33   15   47 1   
    34   16   17 1   
    35   16   18 1   
    36   16   19 1   
    37   19   20 1   
    38   20   21 1   
    39   20   24 1   
    40   20   48 1   
    41   21   22 1   
    42   21   23 1   
    43   24   25 ar  
    44   24   26 ar  
    45   25   29 ar  
    46   25   49 1   
    47   26   27 ar  
    48   26   50 1   
    49   27   28 ar  
    50   27   51 1   
    51   28   29 ar  
    52   28   52 1   
    53   29   30 1   
    54   30   31 1   
    55   30   53 1   
    56   30   54 1   
    57   31   55 1   
    58   31   56 1   
    59   31   58 1   
@<TRIPOS>SUBSTRUCTURE
     1 578         1 TEMP              0 ****  ****    0 ROOT
