@<TRIPOS>MOLECULE
578
   56    52     1     0     0
SMALL
bcc


@<TRIPOS>ATOM
      1 C27         4.9190   -1.9120    2.1690 c1        1 578     -0.093000
      2 C28         5.8290   -2.9680    2.3170 c1        1 578     -0.148000
      3 C29         7.1420   -2.8300    1.8580 c1        1 578     -0.148000
      4 C30         7.5480   -1.6400    1.2490 c1        1 578     -0.148000
      5 C31         6.6420   -0.5830    1.0980 c1        1 578     -0.148000
      6 C26         5.3260   -0.7180    1.5580 c1        1 578     -0.065000
      7 C23         4.3430    0.4870    1.4680 c3        1 578      0.039000
      8 O22         3.7810    0.5580    0.1420 os        1 578     -0.308000
      9 C20         2.5630    1.3310    0.0670 c2        1 578      0.388000
     10 O21         2.0020    1.6820    1.0920 o         1 578     -0.449000
     11 N19         1.9400    1.6000   -1.2430 n         1 578     -0.266000
     12 C15         0.5600    1.9920   -1.3130 c3        1 578     -0.587000
     13 C16         0.4360    3.2500   -2.1250 c3        1 578     -0.124000
     14 C18         1.4030    4.3060   -1.5890 c3        1 578     -0.203500
     15 C17        -1.0480    3.7960   -2.0230 c3        1 578     -0.203500
     16 P14        -0.4100    0.6680   -2.0940 p5        1 578      1.962000
     17 O24         0.4290   -0.6070   -2.1480 o         1 578     -0.852500
     18 O25        -0.8130    1.0900   -3.5490 o         1 578     -0.852500
     19 O13        -1.7590    0.4010   -1.2090 os        1 578     -0.728000
     20 C1         -2.3610   -0.8720   -1.2720 c3        1 578      0.056000
     21 C2         -2.6790   -1.2000   -2.6890 c2        1 578      0.338000
     22 O12        -2.1360   -2.2010   -3.2470 o         1 578     -0.585500
     23 O11        -3.5500   -0.5460   -3.2970 o         1 578     -0.585500
     24 C3         -3.6650   -0.8770   -0.4440 c2        1 578     -0.038000
     25 C8         -3.9630   -1.9620    0.3820 c2        1 578     -0.115000
     26 C4         -4.5700    0.2140   -0.5350 c1        1 578     -0.092000
     27 C5         -5.7460    0.2030    0.1940 c1        1 578     -0.148000
     28 C6         -6.0420   -0.8630    1.0080 c1        1 578     -0.148000
     29 C7         -5.1340   -1.9700    1.1050 c1        1 578     -0.163000
     30 C9         -5.4970   -3.1740    1.9630 c3        1 578     -0.037000
     31 N10        -5.4460   -2.8100    3.3360 n3        1 578     -0.347000
     32 H27         3.9480   -2.0150    2.5110 ha        1 578      0.171000
     33 H28         5.5370   -3.8310    2.7560 ha        1 578      0.111667
     34 H29         7.8040   -3.6010    1.9680 ha        1 578      0.111667
     35 H30         8.4880   -1.5420    0.9220 ha        1 578      0.111667
     36 H31         6.9010    0.1960    0.6260 ha        1 578      0.111667
     37 H231        3.6250    0.3670    2.1190 h1        1 578      0.092500
     38 H232        4.8180    1.3090    1.6600 h1        1 578      0.092500
     39 HN19        2.4500    1.6220   -1.9840 hn        1 578      0.268000
     40 H15         0.1960    2.1600   -0.3500 h1        1 578      0.132000
     41 H16         0.6550    3.0540   -3.0770 hc        1 578      0.144000
     42 H181        1.2590    5.1530   -2.0680 hc        1 578      0.062500
     43 H182        2.3390    4.0030   -1.7290 hc        1 578      0.062500
     44 H183        1.2460    4.4380   -0.6540 hc        1 578      0.062500
     45 H171       -1.0320    4.7870   -1.8610 hc        1 578      0.062500
     46 H172       -1.5260    3.6080   -2.8620 hc        1 578      0.062500
     47 H173       -1.5240    3.3350   -1.2520 hc        1 578      0.062500
     48 H1         -1.7590   -1.5250   -0.9200 h1        1 578      0.076000
     49 H8         -3.3110   -2.7530    0.4490 ha        1 578      0.165000
     50 H4         -4.3640    0.9740   -1.1150 ha        1 578      0.190000
     51 H5         -6.4090    0.9290    0.0700 ha        1 578      0.111667
     52 H6         -6.9200   -0.8690    1.5490 ha        1 578      0.111667
     53 H91        -4.8570   -3.9050    1.7920 h1        1 578      0.069000
     54 H92        -6.4320   -3.4840    1.7320 h1        1 578      0.069000
     55 H101       -6.2530   -2.7780    3.6570 hn        1 578      0.145000
     56 H102       -4.9260   -3.4780    3.8300 hn        1 578      0.145000
@<TRIPOS>BOND
     1    1    6 1   
     2    1   32 1   
     3    2    3 1   
     4    2   33 1   
     5    3   34 1   
     6    4    5 1   
     7    4   35 1   
     8    5   36 1   
     9    6    7 1   
    10    7    8 1   
    11    7   37 1   
    12    7   38 1   
    13    8    9 1   
    14    9   10 1   
    15    9   11 1   
    16   11   12 1   
    17   11   39 1   
    18   12   13 1   
    19   12   16 1   
    20   12   40 1   
    21   13   14 1   
    22   13   15 1   
    23   13   41 1   
    24   14   42 1   
    25   14   43 1   
    26   14   44 1   
    27   15   45 1   
    28   15   46 1   
    29   15   47 1   
    30   16   17 1   
    31   16   18 1   
    32   16   19 1   
    33   19   20 1   
    34   20   21 1   
    35   20   24 1   
    36   20   48 1   
    37   21   22 1   
    38   21   23 1   
    39   24   25 1   
    40   24   26 1   
    41   25   29 1   
    42   25   49 1   
    43   26   50 1   
    44   27   28 1   
    45   27   51 1   
    46   28   52 1   
    47   29   30 1   
    48   30   31 1   
    49   30   53 1   
    50   30   54 1   
    51   31   55 1   
    52   31   56 1   
@<TRIPOS>SUBSTRUCTURE
     1 578         1 TEMP              0 ****  ****    0 ROOT
