@<TRIPOS>MOLECULE
578
   58    59     1     0     0
SMALL
bcc


@<TRIPOS>ATOM
      1 C27        -0.3070   -1.6130    1.0850 ca        1 578     -0.098500
      2 C28         0.6220   -1.3760    2.0960 ca        1 578     -0.133500
      3 C29         0.5440   -0.2120    2.8610 ca        1 578     -0.111000
      4 C30        -0.4650    0.7190    2.6130 ca        1 578     -0.133500
      5 C31        -1.3930    0.4890    1.5980 ca        1 578     -0.098500
      6 C26        -1.3150   -0.6780    0.8290 ca        1 578     -0.144300
      7 C23        -2.2860   -0.9060   -0.2770 c3        1 578      0.194700
      8 O22        -3.6460   -0.8600    0.2130 os        1 578     -0.412900
      9 C20        -4.1990   -2.0350    0.6230 c         1 578      0.621100
     10 O21        -3.6320   -3.1150    0.4740 o         1 578     -0.473000
     11 N19        -5.5270   -1.8290    1.2140 n4        1 578     -0.608800
     12 C15        -6.6320   -2.0360    0.2590 c3        1 578     -0.077700
     13 C16        -7.0420   -3.4690   -0.0460 c3        1 578     -0.060700
     14 C18        -6.6400   -4.4930    0.9980 c3        1 578     -0.106100
     15 C17        -6.5040   -3.8990   -1.3990 c3        1 578     -0.106100
     16 P14        -8.0500   -1.1500    0.8970 p5        1 578      1.306600
     17 O24        -7.4230    0.1000    1.3930 o         1 578     -0.804000
     18 O25        -9.1540   -1.3010   -0.0520 o         1 578     -0.804000
     19 O13        -8.3640   -2.0740    2.2230 os        1 578     -0.575200
     20 C1         -8.0210   -1.5780    3.4850 c3        1 578      0.103400
     21 C2         -7.1400   -2.6560    4.1980 c         1 578      0.940600
     22 O12        -7.5980   -3.3610    5.1500 o         1 578     -0.861300
     23 O11        -5.9420   -2.7820    3.8040 o         1 578     -0.861300
     24 C3         -9.2450   -1.3240    4.3180 ca        1 578     -0.060300
     25 C8         -9.9710   -2.4600    4.6920 ca        1 578     -0.048000
     26 C4         -9.5580   -0.0940    4.8980 ca        1 578     -0.078000
     27 C5        -10.5180   -0.0310    5.9160 ca        1 578     -0.141000
     28 C6        -11.0700   -1.1980    6.4410 ca        1 578     -0.107000
     29 C7        -10.7590   -2.4250    5.8460 ca        1 578     -0.203300
     30 C9        -10.9950   -3.7380    6.5090 c3        1 578      0.193100
     31 N10        -9.6480   -4.3600    6.7690 n4        1 578     -0.860600
     32 H27        -0.2510   -2.5390    0.4920 ha        1 578      0.141500
     33 H28         1.4150   -2.1130    2.2950 ha        1 578      0.137000
     34 H29         1.2760   -0.0290    3.6610 ha        1 578      0.135000
     35 H30        -0.5320    1.6350    3.2190 ha        1 578      0.137000
     36 H31        -2.1950    1.2170    1.4020 ha        1 578      0.141500
     37 H231       -2.1010   -1.8770   -0.8070 h1        1 578      0.084200
     38 H232       -2.2780   -0.0470   -1.0060 h1        1 578      0.084200
     39 HN19       -5.6410   -2.4780    2.0460 hn        1 578      0.517800
     40 H15        -6.3570   -1.5240   -0.7060 hx        1 578      0.104700
     41 H16        -8.1740   -3.4500   -0.1080 hc        1 578      0.101700
     42 H181       -7.1070   -5.4750    0.7430 hc        1 578      0.044033
     43 H182       -5.5310   -4.6320    1.0170 hc        1 578      0.044033
     44 H183       -6.9860   -4.2000    2.0220 hc        1 578      0.044033
     45 H171       -6.8720   -3.2180   -2.2040 hc        1 578      0.044033
     46 H172       -6.8460   -4.9360   -1.6320 hc        1 578      0.044033
     47 H173       -5.3870   -3.8870   -1.3950 hc        1 578      0.044033
     48 H1         -7.4160   -0.6280    3.3870 h1        1 578      0.087700
     49 H8         -9.8120   -3.3890    4.1180 ha        1 578      0.156000
     50 H4         -9.0370    0.8190    4.5680 ha        1 578      0.158000
     51 H5        -10.7970    0.9450    6.3410 ha        1 578      0.138000
     52 H6        -11.7320   -1.1550    7.3170 ha        1 578      0.126000
     53 H91       -11.5690   -4.4440    5.8440 hx        1 578      0.087700
     54 H92       -11.5310   -3.6250    7.4910 hx        1 578      0.087700
     55 H101       -9.1090   -4.4200    5.8710 hn        1 578      0.467800
     56 H102       -9.0910   -3.7470    7.3720 hn        1 578      0.467800
     57 H192       -5.6140   -0.8390    1.5510 hn        1 578      0.517800
     58 H103       -9.7390   -5.2790    7.1900 hn        1 578      0.467800
@<TRIPOS>BOND
     1    1    2 ar  
     2    1    6 ar  
     3    1   32 1   
     4    2    3 ar  
     5    2   33 1   
     6    3    4 ar  
     7    3   34 1   
     8    4    5 ar  
     9    4   35 1   
    10    5    6 ar  
    11    5   36 1   
    12    6    7 1   
    13    7    8 1   
    14    7   37 1   
    15    7   38 1   
    16    8    9 1   
    17    9   10 2   
    18    9   11 1   
    19   11   12 1   
    20   11   39 1   
    21   11   57 1   
    22   12   13 1   
    23   12   16 1   
    24   12   40 1   
    25   13   14 1   
    26   13   15 1   
    27   13   41 1   
    28   14   42 1   
    29   14   43 1   
    30   14   44 1   
    31   15   45 1   
    32   15   46 1   
    33   15   47 1   
    34   16   17 1   
    35   16   18 1   
    36   16   19 1   
    37   19   20 1   
    38   20   21 1   
    39   20   24 1   
    40   20   48 1   
    41   21   22 1   
    42   21   23 1   
    43   24   25 ar  
    44   24   26 ar  
    45   25   29 ar  
    46   25   49 1   
    47   26   27 ar  
    48   26   50 1   
    49   27   28 ar  
    50   27   51 1   
    51   28   29 ar  
    52   28   52 1   
    53   29   30 1   
    54   30   31 1   
    55   30   53 1   
    56   30   54 1   
    57   31   55 1   
    58   31   56 1   
    59   31   58 1   
@<TRIPOS>SUBSTRUCTURE
     1 578         1 TEMP              0 ****  ****    0 ROOT
