@<TRIPOS>MOLECULE
57D
   29    31     1     0     0
SMALL
bcc


@<TRIPOS>ATOM
      1 C2          0.1240   -0.0190   -0.0950 cc        1 57D      0.185900
      2 C3          1.4600   -0.1910   -0.0160 cd        1 57D     -0.308200
      3 C4          2.1810   -0.1830    1.2600 c         1 57D      0.597900
      4 C5          1.3150    0.0110    2.4290 ca        1 57D     -0.277600
      5 C6          1.8150    0.0410    3.7530 ca        1 57D      0.247100
      6 C7          0.9650    0.2280    4.8500 ca        1 57D     -0.349000
      7 C8         -0.4110    0.3880    4.6260 ca        1 57D      0.216100
      8 C9         -0.9520    0.3650    3.3340 ca        1 57D     -0.232000
      9 C10        -0.0720    0.1760    2.2600 ca        1 57D      0.210100
     10 O1         -0.6870    0.1680    1.0200 os        1 57D     -0.223200
     11 O4          3.4080   -0.3300    1.3210 o         1 57D     -0.525100
     12 O5          3.1630   -0.1200    3.9090 oh        1 57D     -0.448100
     13 O7         -1.3010    0.5750    5.6520 oh        1 57D     -0.485100
     14 C2'        -2.0050   -0.4230   -1.3210 ca        1 57D     -0.093000
     15 C3'        -2.7390   -0.4300   -2.5060 ca        1 57D     -0.136000
     16 C4'        -2.1440   -0.0270   -3.7010 ca        1 57D     -0.109000
     17 C5'        -0.8120    0.3870   -3.7120 ca        1 57D     -0.136000
     18 C6'        -0.0710    0.3980   -2.5310 ca        1 57D     -0.093000
     19 C1'        -0.6640   -0.0130   -1.3290 ca        1 57D     -0.075800
     20 H3          2.0670   -0.3540   -0.9200 ha        1 57D      0.169000
     21 H7          1.3700    0.2490    5.8700 ha        1 57D      0.143000
     22 H9         -2.0290    0.4940    3.1690 ha        1 57D      0.173000
     23 HO5         3.3670   -0.0780    4.8560 ho        1 57D      0.421000
     24 HO7        -0.8070    0.5730    6.4860 ho        1 57D      0.427000
     25 H3'        -3.7900   -0.7550   -2.4950 ha        1 57D      0.138000
     26 H4'        -2.7250   -0.0350   -4.6360 ha        1 57D      0.136000
     27 H5'        -0.3420    0.7090   -4.6530 ha        1 57D      0.138000
     28 H6'         0.9770    0.7350   -2.5430 ha        1 57D      0.145500
     29 H2'        -2.4730   -0.7360   -0.3750 ha        1 57D      0.145500
@<TRIPOS>BOND
     1    1    2 2   
     2    1   10 1   
     3    1   19 1   
     4    2    3 1   
     5    2   20 1   
     6    3    4 1   
     7    3   11 2   
     8    4    5 ar  
     9    4    9 ar  
    10    5    6 ar  
    11    5   12 1   
    12    6    7 ar  
    13    6   21 1   
    14    7    8 ar  
    15    7   13 1   
    16    8    9 ar  
    17    8   22 1   
    18    9   10 1   
    19   12   23 1   
    20   13   24 1   
    21   14   15 ar  
    22   14   19 ar  
    23   14   29 1   
    24   15   16 ar  
    25   15   25 1   
    26   16   17 ar  
    27   16   26 1   
    28   17   18 ar  
    29   17   27 1   
    30   18   19 ar  
    31   18   28 1   
@<TRIPOS>SUBSTRUCTURE
     1 57D         1 TEMP              0 ****  ****    0 ROOT
