@<TRIPOS>MOLECULE
57D
   29    31     1     0     0
SMALL
bcc


@<TRIPOS>ATOM
      1 C2         -1.1650   -0.3200   -0.0990 cc        1 57D      0.202900
      2 C3         -0.6700   -1.5640   -0.2930 cd        1 57D     -0.316200
      3 C4          0.7640   -1.8280   -0.3470 c         1 57D      0.607900
      4 C5          1.6140   -0.6490   -0.1900 ca        1 57D     -0.333600
      5 C6          3.0290   -0.6980   -0.2200 ca        1 57D      0.267100
      6 C7          3.7980    0.4680   -0.0660 ca        1 57D     -0.298000
      7 C8          3.1500    1.6940    0.1220 ca        1 57D      0.215100
      8 C9          1.7510    1.7910    0.1590 ca        1 57D     -0.234000
      9 C10         1.0130    0.6140    0.0010 ca        1 57D      0.212100
     10 O1         -0.3590    0.7990    0.0530 os        1 57D     -0.221200
     11 O4          1.2130   -2.9780   -0.5160 o         1 57D     -0.589100
     12 O5          3.7540   -1.8370   -0.3960 oh        1 57D     -0.497100
     13 O7          3.8410    2.8680    0.2790 oh        1 57D     -0.486100
     14 C2'        -3.0220    1.3080   -0.4100 ca        1 57D     -0.090500
     15 C3'        -4.3780    1.6240   -0.3590 ca        1 57D     -0.136500
     16 C4'        -5.3030    0.6730    0.0730 ca        1 57D     -0.106000
     17 C5'        -4.8710   -0.5960    0.4580 ca        1 57D     -0.136500
     18 C6'        -3.5170   -0.9210    0.4090 ca        1 57D     -0.090500
     19 C1'        -2.5840    0.0300   -0.0310 ca        1 57D     -0.081800
     20 H3         -1.3370   -2.4290   -0.4270 ha        1 57D      0.171000
     21 H7          4.8940    0.3970   -0.0940 ha        1 57D      0.160000
     22 H9          1.2550    2.7590    0.3090 ha        1 57D      0.173000
     23 HO5         3.1630   -2.6050   -0.4960 ho        1 57D      0.469000
     24 HO7         4.7900    2.6690    0.2370 ho        1 57D      0.430000
     25 H3'        -4.7160    2.6260   -0.6590 ha        1 57D      0.139000
     26 H4'        -6.3730    0.9250    0.1120 ha        1 57D      0.137000
     27 H5'        -5.5990   -1.3450    0.8020 ha        1 57D      0.139000
     28 H6'        -3.1790   -1.9210    0.7220 ha        1 57D      0.146000
     29 H2'        -2.2880    2.0570   -0.7460 ha        1 57D      0.146000
@<TRIPOS>BOND
     1    1    2 2   
     2    1   10 1   
     3    1   19 1   
     4    2    3 1   
     5    2   20 1   
     6    3    4 1   
     7    3   11 2   
     8    4    5 ar  
     9    4    9 ar  
    10    5    6 ar  
    11    5   12 1   
    12    6    7 ar  
    13    6   21 1   
    14    7    8 ar  
    15    7   13 1   
    16    8    9 ar  
    17    8   22 1   
    18    9   10 1   
    19   12   23 1   
    20   13   24 1   
    21   14   15 ar  
    22   14   19 ar  
    23   14   29 1   
    24   15   16 ar  
    25   15   25 1   
    26   16   17 ar  
    27   16   26 1   
    28   17   18 ar  
    29   17   27 1   
    30   18   19 ar  
    31   18   28 1   
@<TRIPOS>SUBSTRUCTURE
     1 57D         1 TEMP              0 ****  ****    0 ROOT
