@<TRIPOS>MOLECULE
57D
   29    24     1     0     0
SMALL
bcc


@<TRIPOS>ATOM
      1 C2          0.1550   -0.0540   -1.2110 c1        1 57D      0.032000
      2 C3          1.6270   -0.0600   -1.2880 c1        1 57D     -0.192500
      3 C4          2.4090   -0.0640   -0.0730 c1        1 57D      0.245000
      4 C5          1.7150   -0.0670    1.2620 c2        1 57D     -0.256000
      5 C6          2.4630   -0.0620    2.4420 c2        1 57D      0.197000
      6 C7          1.8170   -0.0310    3.6790 c1        1 57D     -0.294000
      7 C8          0.4140   -0.0060    3.7380 c1        1 57D      0.173000
      8 C9         -0.3350   -0.0110    2.5610 c1        1 57D     -0.292000
      9 C10         0.3100   -0.0420    1.3220 c1        1 57D      0.245000
     10 O1         -0.4940   -0.1350    0.0660 o         1 57D     -0.210500
     11 O4          3.6180   -0.1610   -0.1290 o         1 57D     -0.210500
     12 O5          3.8680   -0.0950    2.3840 oh        1 57D     -0.203000
     13 O7         -0.2360   -0.0260    4.9860 oh        1 57D     -0.241000
     14 C2'        -1.2890   -1.2310   -2.8350 c1        1 57D     -0.192500
     15 C3'        -2.6040   -1.2240   -3.2740 c1        1 57D     -0.117500
     16 C4'        -3.2990   -0.0280   -3.3590 c1        1 57D     -0.117500
     17 C5'        -2.6800    1.1610   -3.0050 c1        1 57D     -0.117500
     18 C6'        -1.3650    1.1530   -2.5660 c1        1 57D     -0.117500
     19 C1'        -0.6700   -0.0430   -2.4810 c1        1 57D      0.032000
     20 H3          2.0720   -0.0040   -2.1560 ha        1 57D      0.156000
     21 H7          2.3410   -0.0270    4.5030 ha        1 57D      0.160000
     22 H9         -1.3100    0.0060    2.6040 ha        1 57D      0.158000
     23 HO5         4.2040    0.4320    3.0170 ho        1 57D      0.223000
     24 HO7        -0.5670    0.7810    5.1600 ho        1 57D      0.228000
     25 H2'        -0.7990   -2.0740   -2.7750 ha        1 57D      0.156000
     26 H3'        -3.0400   -2.0610   -3.5230 ha        1 57D      0.140000
     27 H4'        -4.2250   -0.0230   -3.6680 ha        1 57D      0.140000
     28 H5'        -3.1700    2.0030   -3.0650 ha        1 57D      0.140000
     29 H6'        -0.9290    1.9900   -2.3160 ha        1 57D      0.140000
@<TRIPOS>BOND
     1    1    2 1   
     2    1   19 1   
     3    2   20 1   
     4    3    4 1   
     5    3   11 1   
     6    4    5 1   
     7    4    9 1   
     8    5    6 1   
     9    5   12 1   
    10    6   21 1   
    11    7    8 1   
    12    7   13 1   
    13    8   22 1   
    14    9   10 1   
    15   12   23 1   
    16   13   24 1   
    17   14   19 1   
    18   14   25 1   
    19   15   16 1   
    20   15   26 1   
    21   16   27 1   
    22   17   18 1   
    23   17   28 1   
    24   18   29 1   
@<TRIPOS>SUBSTRUCTURE
     1 57D         1 TEMP              0 ****  ****    0 ROOT
