@<TRIPOS>MOLECULE
57J
   55    57     1     0     0
SMALL
bcc


@<TRIPOS>ATOM
      1 N3         -0.2080   -0.1270   -0.5660 ns        1 57J     -0.345000
      2 C4         -2.3610    1.1120   -1.0060 c2        1 57J     -0.223000
      3 N2         -6.6470   -0.8110   -0.0300 n2        1 57J      0.130000
      4 C7         -5.1550    1.5500   -1.0840 c2        1 57J     -0.096000
      5 C6         -4.6470    0.1530   -1.1160 c3        1 57J     -0.063000
      6 C9         -0.8740    0.9900   -1.0110 c2        1 57J      0.353000
      7 C13        -0.5580   -1.2170    1.6580 c3        1 57J     -0.202000
      8 C20         1.2370   -6.3050    1.7280 ca        1 57J      0.022000
      9 C21         1.2640   -5.0460    1.1980 ca        1 57J     -0.175000
     10 C8         -5.3510   -0.7650   -0.1720 c2        1 57J     -0.303000
     11 C18         0.0860   -5.3610    3.5290 ca        1 57J     -0.083000
     12 C16         0.2800   -2.8050    4.1820 c2        1 57J      0.290000
     13 C19         1.1430   -6.1970    3.2050 ca        1 57J     -0.149000
     14 C2         -4.3060    2.6070   -1.0820 c2        1 57J     -0.139000
     15 C3         -2.8810    2.3840   -1.0600 c2        1 57J      0.067000
     16 C5         -3.1940   -0.0300   -0.9660 c1        1 57J     -0.071000
     17 N1         -7.7730   -0.8480    0.1360 n1        1 57J     -0.061000
     18 O1         -0.1840    1.9380   -1.4620 o         1 57J     -0.412000
     19 C10         2.9020   -0.5090    0.9470 c2        1 57J     -0.186000
     20 C11         1.7950   -0.3590    1.6690 c2        1 57J     -0.184000
     21 C12         0.8850   -1.4680    2.1130 c3        1 57J      0.119000
     22 C14        -0.7550   -1.2450    0.1410 c3        1 57J     -0.046000
     23 C15         0.9400   -1.5600    3.6420 c3        1 57J     -0.240000
     24 C17         0.4830   -3.9650    3.3400 ca        1 57J     -0.265000
     25 C22         1.0280   -3.8620    2.0670 ca        1 57J      0.174000
     26 O3          1.3660   -2.6830    1.4700 os        1 57J     -0.200000
     27 C23         1.3990   -7.5610    0.9890 c3        1 57J     -0.186000
     28 C24         2.3840   -6.2950    3.9870 c3        1 57J     -0.169000
     29 H13        -1.2050   -2.0240    2.0950 hc        1 57J      0.102000
     30 H12        -1.8640   -1.3280   -0.0760 h1        1 57J      0.127000
     31 H19         1.4570   -4.8440    0.1370 ha        1 57J      0.156000
     32 H7         -4.7480   -1.4960    0.3910 h4        1 57J      0.203000
     33 H18        -0.9630   -5.6170    3.3290 ha        1 57J      0.133000
     34 H3         -5.8940    4.0650   -1.1070 hc        1 57J      0.091667
     35 H4         -4.4090    4.5520   -0.1880 hc        1 57J      0.091667
     36 H2         -4.3890    4.5410   -2.0010 hc        1 57J      0.091667
     37 H5         -2.2140    3.2670   -1.0840 ha        1 57J      0.167000
     38 H6         -4.8160   -0.2230   -2.1890 hc        1 57J      0.171000
     39 H1         -6.2460    1.7020   -1.0950 ha        1 57J      0.138000
     40 H9          0.7900   -0.0610   -0.5720 hn        1 57J      0.230000
     41 H8          1.4530    0.6320    2.0110 ha        1 57J      0.137000
     42 H11         3.2580   -1.4880    0.5970 ha        1 57J      0.125500
     43 H10         3.5250    0.3490    0.6580 ha        1 57J      0.125500
     44 H14        -0.2520   -2.1750   -0.2590 h1        1 57J      0.127000
     45 H15        -0.8940   -0.2370    2.0840 hc        1 57J      0.102000
     46 H17         0.4530   -0.6480    4.0760 hc        1 57J      0.125000
     47 H16         2.0110   -1.5720    3.9780 hc        1 57J      0.125000
     48 H21         2.2670   -8.1370    1.4010 hc        1 57J      0.095667
     49 H20         0.4800   -8.1900    1.1060 hc        1 57J      0.095667
     50 H22         1.5720   -7.3800   -0.1000 hc        1 57J      0.095667
     51 H23         3.2910   -6.3680    3.3390 hc        1 57J      0.087333
     52 H25         2.3260   -7.2250    4.6130 hc        1 57J      0.087333
     53 H24         2.4970   -5.4220    4.6790 hc        1 57J      0.087333
     54 O2         -0.3240   -2.8010    5.2600 o         1 57J     -0.290000
     55 C1         -4.7790    4.0110   -1.0950 c3        1 57J     -0.183000
@<TRIPOS>BOND
     1    1    6 1   
     2    1   22 1   
     3    1   40 1   
     4    2    6 1   
     5    2   15 1   
     6    2   16 1   
     7    3   10 1   
     8    3   17 1   
     9    4    5 1   
    10    4   14 1   
    11    4   39 1   
    12    5   10 1   
    13    5   16 1   
    14    5   38 1   
    15    6   18 1   
    16    7   21 1   
    17    7   22 1   
    18    7   29 1   
    19    7   45 1   
    20    8    9 1   
    21    8   13 1   
    22    8   27 1   
    23    9   25 1   
    24    9   31 1   
    25   10   32 1   
    26   11   13 1   
    27   11   24 1   
    28   11   33 1   
    29   12   23 1   
    30   12   24 1   
    31   12   54 1   
    32   13   28 1   
    33   14   15 1   
    34   14   55 1   
    35   15   37 1   
    36   19   20 1   
    37   19   42 1   
    38   19   43 1   
    39   20   21 1   
    40   20   41 1   
    41   21   23 1   
    42   21   26 1   
    43   22   30 1   
    44   22   44 1   
    45   23   46 1   
    46   23   47 1   
    47   24   25 1   
    48   25   26 1   
    49   27   48 1   
    50   27   49 1   
    51   27   50 1   
    52   28   51 1   
    53   28   52 1   
    54   28   53 1   
    55   34   55 1   
    56   35   55 1   
    57   36   55 1   
@<TRIPOS>SUBSTRUCTURE
     1 57J         1 TEMP              0 ****  ****    0 ROOT
