@<TRIPOS>MOLECULE
57J
   55    59     1     0     0
SMALL
bcc


@<TRIPOS>ATOM
      1 N3         -0.1810   -0.3040   -0.4260 n         1 57J     -0.449800
      2 C4         -2.2930    0.9310   -0.8960 ca        1 57J     -0.164600
      3 N2         -6.6010   -0.0480   -2.2130 nc        1 57J     -0.507100
      4 C7         -5.0420    1.1920   -1.1270 ca        1 57J     -0.036200
      5 C6         -4.3500    0.1010   -1.7770 ca        1 57J     -0.223900
      6 C9         -0.8070    0.8990   -0.7720 c         1 57J      0.664700
      7 C13        -0.4310   -1.2940    1.8530 c3        1 57J     -0.113400
      8 C20         1.3010   -6.1370    2.4170 ca        1 57J     -0.015300
      9 C21         1.4610   -4.9700    1.6690 ca        1 57J     -0.174000
     10 C8         -5.4140   -0.6390   -2.4450 cd        1 57J      0.352800
     11 C18         0.9560   -4.8140    4.4170 ca        1 57J     -0.037000
     12 C16         1.0840   -2.3210    4.3430 c         1 57J      0.589700
     13 C19         1.0400   -6.0610    3.8000 ca        1 57J     -0.126300
     14 C2         -4.3500    2.1560   -0.3700 ca        1 57J     -0.092300
     15 C3         -2.9720    2.0060   -0.2790 ca        1 57J     -0.063000
     16 C5         -2.9690   -0.0210   -1.6520 ca        1 57J     -0.030000
     17 N1         -6.4020    1.0100   -1.4130 na        1 57J     -0.020100
     18 O1         -0.1290    1.9100   -1.0460 o         1 57J     -0.593100
     19 C10         1.2640   -0.3320   -0.3000 c3        1 57J      0.079500
     20 C11         1.7720   -0.2980    1.1410 c3        1 57J     -0.113400
     21 C12         1.0890   -1.3600    2.0110 c3        1 57J      0.162800
     22 C14        -0.8500   -1.2990    0.3820 c3        1 57J      0.079500
     23 C15         1.4920   -1.1660    3.4710 c3        1 57J     -0.208400
     24 C17         1.1290   -3.6330    3.6850 ca        1 57J     -0.248600
     25 C22         1.3720   -3.7200    2.3040 ca        1 57J      0.168100
     26 O3          1.5780   -2.6220    1.4970 os        1 57J     -0.324900
     27 C23         1.4010   -7.4570    1.7510 c3        1 57J     -0.061800
     28 C24         0.8580   -7.2980    4.5940 c3        1 57J     -0.047800
     29 H13        -0.8960   -2.1810    2.3570 hc        1 57J      0.065700
     30 H12        -0.8050   -0.3680    2.3610 hc        1 57J      0.065700
     31 H19         1.6620   -5.0120    0.5890 ha        1 57J      0.152000
     32 H7         -5.3130   -1.5400   -3.0510 h4        1 57J      0.057800
     33 H18         0.7560   -4.7360    5.5000 ha        1 57J      0.155000
     34 H3         -5.7840    2.8780    1.0470 hc        1 57J      0.048033
     35 H4         -4.3540    3.9650    0.7940 hc        1 57J      0.048033
     36 H2         -5.6460    3.8580   -0.4730 hc        1 57J      0.048033
     37 H5         -2.3770    2.7500    0.2770 ha        1 57J      0.151000
     38 H6         -2.4310   -0.8450   -2.1450 ha        1 57J      0.151000
     39 H1         -7.1320    1.6620   -1.2500 hn        1 57J      0.325700
     40 H9          1.6140   -1.2920   -0.7780 h1        1 57J      0.069700
     41 H8          1.7060    0.5370   -0.8650 h1        1 57J      0.069700
     42 H11         2.8770   -0.4810    1.1290 hc        1 57J      0.065700
     43 H10         1.5820    0.7050    1.6010 hc        1 57J      0.065700
     44 H14        -1.9660   -1.1650    0.3240 h1        1 57J      0.069700
     45 H15        -0.5900   -2.3080   -0.0550 h1        1 57J      0.069700
     46 H17         1.0430   -0.2150    3.8590 hc        1 57J      0.086700
     47 H16         2.6100   -1.0710    3.5380 hc        1 57J      0.086700
     48 H21         0.4470   -8.0280    1.8850 hc        1 57J      0.050367
     49 H20         1.6020   -7.3510    0.6570 hc        1 57J      0.050367
     50 H22         2.2290   -8.0550    2.2090 hc        1 57J      0.050367
     51 H23         1.7720   -7.9400    4.5270 hc        1 57J      0.044700
     52 H25         0.6670   -7.0670    5.6700 hc        1 57J      0.044700
     53 H24        -0.0090   -7.8880    4.2000 hc        1 57J      0.044700
     54 O2          0.7740   -2.1610    5.5290 o         1 57J     -0.532100
     55 C1         -5.0660    3.2710    0.2830 c3        1 57J     -0.051800
@<TRIPOS>BOND
     1    1    6 1   
     2    1   19 1   
     3    1   22 1   
     4    2    6 1   
     5    2   15 ar  
     6    2   16 ar  
     7    3   10 2   
     8    3   17 1   
     9    4    5 ar  
    10    4   14 ar  
    11    4   17 1   
    12    5   10 1   
    13    5   16 ar  
    14    6   18 2   
    15    7   21 1   
    16    7   22 1   
    17    7   29 1   
    18    7   30 1   
    19    8    9 ar  
    20    8   13 ar  
    21    8   27 1   
    22    9   25 ar  
    23    9   31 1   
    24   10   32 1   
    25   11   13 ar  
    26   11   24 ar  
    27   11   33 1   
    28   12   23 1   
    29   12   24 1   
    30   12   54 2   
    31   13   28 1   
    32   14   15 ar  
    33   14   55 1   
    34   15   37 1   
    35   16   38 1   
    36   17   39 1   
    37   19   20 1   
    38   19   40 1   
    39   19   41 1   
    40   20   21 1   
    41   20   42 1   
    42   20   43 1   
    43   21   23 1   
    44   21   26 1   
    45   22   44 1   
    46   22   45 1   
    47   23   46 1   
    48   23   47 1   
    49   24   25 ar  
    50   25   26 1   
    51   27   48 1   
    52   27   49 1   
    53   27   50 1   
    54   28   51 1   
    55   28   52 1   
    56   28   53 1   
    57   34   55 1   
    58   35   55 1   
    59   36   55 1   
@<TRIPOS>SUBSTRUCTURE
     1 57J         1 TEMP              0 ****  ****    0 ROOT
