@<TRIPOS>MOLECULE
57K
   56    59     1     0     0
SMALL
bcc


@<TRIPOS>ATOM
      1 N3         -0.0920   -0.3220   -0.3030 n         1 57K     -0.451800
      2 C4         -2.2160    0.8810   -0.8060 ca        1 57K     -0.164600
      3 N2         -6.4420   -0.1370   -2.3420 nc        1 57K     -0.507100
      4 C7         -4.9590    1.0890   -1.1400 ca        1 57K     -0.036200
      5 C6         -4.2140    0.0440   -1.8060 ca        1 57K     -0.223900
      6 C9         -0.7360    0.8790   -0.6230 c         1 57K      0.666700
      7 C13        -0.3830   -1.4880    1.8910 c3        1 57K     -0.092400
      8 C8         -5.2320   -0.6900   -2.5490 cd        1 57K      0.352800
      9 C18         1.7650   -4.9440    6.2860 c3        1 57K      0.183800
     10 C16         1.7510   -2.9420    1.8180 cy        1 57K      0.058500
     11 C19         0.6110   -5.9100    6.0690 c3        1 57K     -0.113433
     12 C2         -4.3220    2.0350   -0.3140 ca        1 57K     -0.092300
     13 C3         -2.9450    1.9120   -0.1720 ca        1 57K     -0.062000
     14 C5         -2.8370   -0.0520   -1.6300 ca        1 57K     -0.030000
     15 N1         -6.3020    0.8870   -1.4870 na        1 57K     -0.020100
     16 O1         -0.0740    1.9170   -0.8250 o         1 57K     -0.592100
     17 C10         1.3470   -0.3200   -0.1200 c3        1 57K      0.078000
     18 C11         1.7980   -0.4040    1.3390 c3        1 57K     -0.092400
     19 C12         1.1150   -1.5350    2.0660 cy        1 57K     -0.096000
     20 C14        -0.7730   -1.3770    0.4140 c3        1 57K      0.078000
     21 C15         1.5680   -1.6890    3.5550 cy        1 57K      0.058500
     22 N4          2.1880   -2.9880    3.2290 n         1 57K     -0.384800
     23 C17         1.9380   -4.1350    3.9910 c         1 57K      0.716100
     24 O2          1.9650   -5.3050    3.5790 o         1 57K     -0.577000
     25 O3          1.7130   -3.8630    5.3190 os        1 57K     -0.445900
     26 H13        -0.7900   -0.6130    2.4620 hc        1 57K      0.058450
     27 H12        -0.8530   -2.4160    2.3100 hc        1 57K      0.058450
     28 H24         1.6170   -4.9570    8.4470 hc        1 57K      0.051589
     29 H23         0.6300   -3.6600    7.6360 hc        1 57K      0.051589
     30 H25         2.4310   -3.4810    7.7600 hc        1 57K      0.051589
     31 H27         3.9360   -4.9100    6.2940 hc        1 57K      0.051589
     32 H26         3.1870   -6.3570    7.0990 hc        1 57K      0.051589
     33 H28         3.2080   -6.2330    5.2860 hc        1 57K      0.051589
     34 H7         -5.0850   -1.5610   -3.1880 h4        1 57K      0.057800
     35 H18         2.6310   -2.9440    1.1310 h1        1 57K      0.072200
     36 H19         1.0290   -3.7410    1.5210 h1        1 57K      0.072200
     37 H21         0.7550   -6.4830    5.1210 hc        1 57K      0.051589
     38 H22         0.5620   -6.6260    6.9230 hc        1 57K      0.051589
     39 H20        -0.3510   -5.3490    6.0080 hc        1 57K      0.051589
     40 H2         -5.8320    2.6630    1.0690 hc        1 57K      0.047700
     41 H3         -4.4170    3.7880    0.9270 hc        1 57K      0.047700
     42 H4         -5.6510    3.7130   -0.3990 hc        1 57K      0.047700
     43 H5         -2.3920    2.6440    0.4390 ha        1 57K      0.152000
     44 H6         -2.2600   -0.8410   -2.1350 ha        1 57K      0.151000
     45 H1         -7.0510    1.5220   -1.3370 hn        1 57K      0.324700
     46 H9          1.7830    0.6090   -0.5870 h1        1 57K      0.063950
     47 H8          1.7470   -1.2180   -0.6740 h1        1 57K      0.063950
     48 H11         1.5690    0.5610    1.8640 hc        1 57K      0.058450
     49 H10         2.9100   -0.5460    1.3590 hc        1 57K      0.058450
     50 H14        -0.5100   -2.3480   -0.0980 h1        1 57K      0.063950
     51 H15        -1.8880   -1.2390    0.3460 h1        1 57K      0.063950
     52 H17         2.3390   -0.9530    3.8860 h1        1 57K      0.072200
     53 H16         0.7340   -1.7340    4.2950 h1        1 57K      0.072200
     54 C1         -5.0910    3.1040    0.3550 c3        1 57K     -0.051800
     55 C20         1.6000   -4.2120    7.6170 c3        1 57K     -0.113433
     56 C21         3.1070   -5.6540    6.2360 c3        1 57K     -0.113433
@<TRIPOS>BOND
     1    1    6 1   
     2    1   17 1   
     3    1   20 1   
     4    2    6 1   
     5    2   13 ar  
     6    2   14 ar  
     7    3    8 2   
     8    3   15 1   
     9    4    5 ar  
    10    4   12 ar  
    11    4   15 1   
    12    5    8 1   
    13    5   14 ar  
    14    6   16 2   
    15    7   19 1   
    16    7   20 1   
    17    7   26 1   
    18    7   27 1   
    19    8   34 1   
    20    9   11 1   
    21    9   25 1   
    22    9   55 1   
    23    9   56 1   
    24   10   19 1   
    25   10   22 1   
    26   10   35 1   
    27   10   36 1   
    28   11   37 1   
    29   11   38 1   
    30   11   39 1   
    31   12   13 ar  
    32   12   54 1   
    33   13   43 1   
    34   14   44 1   
    35   15   45 1   
    36   17   18 1   
    37   17   46 1   
    38   17   47 1   
    39   18   19 1   
    40   18   48 1   
    41   18   49 1   
    42   19   21 1   
    43   20   50 1   
    44   20   51 1   
    45   21   22 1   
    46   21   52 1   
    47   21   53 1   
    48   22   23 1   
    49   23   24 2   
    50   23   25 1   
    51   28   55 1   
    52   29   55 1   
    53   30   55 1   
    54   31   56 1   
    55   32   56 1   
    56   33   56 1   
    57   40   54 1   
    58   41   54 1   
    59   42   54 1   
@<TRIPOS>SUBSTRUCTURE
     1 57K         1 TEMP              0 ****  ****    0 ROOT
