@<TRIPOS>MOLECULE
57K
   56    57     1     0     0
SMALL
bcc


@<TRIPOS>ATOM
      1 N3         -1.8550    0.0410   -4.3220 nt        1 57K     -0.413000
      2 C4         -2.5150    0.5110   -2.0090 c2        1 57K     -0.288000
      3 N2         -6.5880    0.2430   -0.0650 n2        1 57K     -0.029000
      4 C7         -4.3710    0.7580    0.0510 c2        1 57K      0.067000
      5 C6         -4.8060    1.0100   -1.3950 c3        1 57K     -0.135000
      6 C9         -1.4630    0.2320   -3.0250 c2        1 57K      0.368000
      7 C13         2.2450   -1.4170    0.3950 c3        1 57K     -0.155000
      8 C8         -6.2370    0.5090   -1.3120 c2        1 57K     -0.118000
      9 C18         0.5610   -5.1050    5.7120 c3        1 57K      0.042000
     10 C16         2.7590   -1.9920    2.8010 c3        1 57K     -0.095000
     11 C19        -0.3600   -5.7210    4.6800 c3        1 57K     -0.241000
     12 C2         -3.0340    0.7300    0.3930 c2        1 57K     -0.222000
     13 C3         -2.1100    0.6390   -0.6800 c2        1 57K      0.101000
     14 C5         -3.8490    0.6280   -2.4270 c1        1 57K     -0.094000
     15 N1         -5.5290    0.4610    0.7650 n7        1 57K     -0.228000
     16 O1         -0.2480    0.1670   -2.7150 o         1 57K     -0.432000
     17 C10         1.1300    0.5900    1.1150 c2        1 57K     -0.159000
     18 C11         1.0330   -0.2750    2.1390 c2        1 57K     -0.200000
     19 C12         1.6610   -1.6010    1.8120 c3        1 57K     -0.097000
     20 C14         1.8520   -0.0030   -0.0560 c3        1 57K     -0.159000
     21 C15         2.1950   -1.3460    5.1250 c1        1 57K     -0.093000
     22 N4          2.2790   -2.2420    4.1630 n         1 57K     -0.169000
     23 C17         1.9050   -3.6020    4.4260 c2        1 57K      0.409000
     24 O2          2.4240   -4.5960    3.9020 o         1 57K     -0.363000
     25 O3          0.8800   -3.7430    5.3130 os        1 57K     -0.226000
     26 H13         1.8240   -2.1840   -0.2990 hc        1 57K      0.089500
     27 H12         3.3560   -1.5330    0.4000 hc        1 57K      0.089500
     28 H24        -0.8900   -4.1570    7.0120 hc        1 57K      0.094000
     29 H23        -0.6400   -5.9320    7.2930 hc        1 57K      0.094000
     30 H25         1.6280   -5.4620    8.2660 hc        1 57K      0.081000
     31 H27         0.3450   -4.5250    9.1370 hc        1 57K      0.081000
     32 H26         1.4110   -3.6940    7.9260 hc        1 57K      0.081000
     33 H28         1.5150   -5.6950    5.7940 h1        1 57K      0.114000
     34 H7         -6.9060    0.4170   -2.1710 h4        1 57K      0.205000
     35 H18         3.2790   -2.9170    2.4180 h1        1 57K      0.115500
     36 H19         3.5170   -1.1600    2.8590 h1        1 57K      0.115500
     37 H21        -0.6270   -6.7600    4.9890 hc        1 57K      0.090000
     38 H22         0.1530   -5.7590    3.6880 hc        1 57K      0.090000
     39 H20        -1.2950   -5.1200    4.5790 hc        1 57K      0.090000
     40 H2         -1.4690    0.5050    1.8510 hc        1 57K      0.086667
     41 H3         -3.0860   -0.1480    2.3510 hc        1 57K      0.086667
     42 H4         -2.8040    1.6420    2.3180 hc        1 57K      0.086667
     43 H5         -1.0270    0.5990   -0.4370 ha        1 57K      0.170000
     44 H6         -4.8570    2.1420   -1.5630 hc        1 57K      0.207000
     45 H1         -5.5490    0.0440    1.6690 hn        1 57K      0.276000
     46 H9         -1.1770   -0.1370   -5.0180 hn        1 57K      0.235500
     47 H8         -2.8130    0.1130   -4.5630 hn        1 57K      0.235500
     48 H11         0.5660   -0.1060    3.1110 ha        1 57K      0.138000
     49 H10         0.7550    1.6150    1.0780 ha        1 57K      0.136000
     50 H14         2.7530    0.6060   -0.3150 hc        1 57K      0.116000
     51 H15         1.1890   -0.0340   -0.9610 hc        1 57K      0.116000
     52 H17         2.5120   -0.3200    4.8340 ha        1 57K      0.045000
     53 H16         0.8700   -2.3990    1.7970 hc        1 57K      0.105000
     54 C1         -2.5750    0.6790    1.7960 c3        1 57K     -0.170000
     55 C20        -0.1150   -4.9660    7.0710 c3        1 57K     -0.159000
     56 C21         0.8730   -4.6460    8.1610 c3        1 57K     -0.217000
@<TRIPOS>BOND
     1    1    6 1   
     2    1   46 1   
     3    1   47 1   
     4    2    6 1   
     5    2   13 1   
     6    2   14 1   
     7    3    8 1   
     8    3   15 1   
     9    4    5 1   
    10    4   12 1   
    11    4   15 1   
    12    5    8 1   
    13    5   14 1   
    14    5   44 1   
    15    6   16 1   
    16    7   19 1   
    17    7   20 1   
    18    7   26 1   
    19    7   27 1   
    20    8   34 1   
    21    9   11 1   
    22    9   25 1   
    23    9   33 1   
    24    9   55 1   
    25   10   19 1   
    26   10   22 1   
    27   10   35 1   
    28   10   36 1   
    29   11   37 1   
    30   11   38 1   
    31   11   39 1   
    32   12   13 1   
    33   12   54 1   
    34   13   43 1   
    35   15   45 1   
    36   17   18 1   
    37   17   20 1   
    38   17   49 1   
    39   18   19 1   
    40   18   48 1   
    41   19   53 1   
    42   20   50 1   
    43   20   51 1   
    44   21   22 1   
    45   21   52 1   
    46   22   23 1   
    47   23   24 1   
    48   23   25 1   
    49   28   55 1   
    50   29   55 1   
    51   30   56 1   
    52   31   56 1   
    53   32   56 1   
    54   40   54 1   
    55   41   54 1   
    56   42   54 1   
    57   55   56 1   
@<TRIPOS>SUBSTRUCTURE
     1 57K         1 TEMP              0 ****  ****    0 ROOT
