@<TRIPOS>MOLECULE
57L
   65    67     1     0     0
SMALL
bcc


@<TRIPOS>ATOM
      1 N3          0.2240   -0.2230    0.1360 n         1 57L     -0.267000
      2 C4          0.4040   -2.4590   -1.0420 c3        1 57L     -0.149000
      3 N2          3.1020   -3.9000   -4.5660 n2        1 57L     -0.095000
      4 C7          1.1810   -3.8800   -3.3720 c2        1 57L      0.065000
      5 C6          2.0860   -2.9410   -2.7390 c2        1 57L     -0.254000
      6 C9         -0.3270   -1.1470   -0.7430 c2        1 57L      0.348000
      7 C13        -0.2950    1.4220    1.9240 c3        1 57L     -0.161000
      8 C20         5.1760    4.0540    5.8070 c3        1 57L      0.006000
      9 C21         6.1660    5.1540    5.4070 c3        1 57L     -0.057000
     10 C8          3.2820   -3.0150   -3.5650 c2        1 57L     -0.052000
     11 C18         1.8630    0.4860    4.3750 c3        1 57L     -0.224000
     12 C16         2.5080    3.6690    2.6930 c3        1 57L     -0.034000
     13 C19         3.2560    2.9580    4.9280 c2        1 57L      0.388000
     14 C2         -0.1520   -4.0930   -2.8670 c2        1 57L     -0.107000
     15 C3         -0.5160   -3.3840   -1.7710 c2        1 57L     -0.072000
     16 C5          1.7430   -2.2040   -1.6220 c1        1 57L     -0.070000
     17 N1          1.8550   -4.4130   -4.4450 na        1 57L     -0.144000
     18 O1         -1.4480   -0.9290   -1.2460 o         1 57L     -0.367000
     19 C10         1.5220   -0.3040    0.6560 c2        1 57L     -0.025000
     20 C11         1.9910    0.5350    1.6040 c2        1 57L     -0.247000
     21 C12         1.1910    1.6480    2.1880 c3        1 57L     -0.023000
     22 C14        -0.5520    0.9550    0.4930 c3        1 57L     -0.032000
     23 C15         1.6790    2.9870    1.5990 c3        1 57L     -0.166000
     24 N4          2.2840    2.9490    3.9400 n         1 57L     -0.281000
     25 C17         1.4140    1.7880    3.7340 c3        1 57L      0.035000
     26 O2          3.2960    2.3000    5.9810 o         1 57L     -0.399000
     27 O3          4.2420    3.9070    4.7220 os        1 57L     -0.284000
     28 C22         5.4300    6.4690    5.2120 c3        1 57L     -0.204333
     29 C23         7.1780    5.2940    6.5350 c3        1 57L     -0.204333
     30 C24         6.8810    4.7670    4.1220 c3        1 57L     -0.204333
     31 H12        -0.6810    0.6540    2.6460 hc        1 57L      0.095500
     32 H13        -0.8700    2.3680    2.0930 hc        1 57L      0.095500
     33 H25         4.6130    4.3340    6.7350 h1        1 57L      0.093000
     34 H24         5.7000    3.0760    5.9660 h1        1 57L      0.093000
     35 H7          4.2080   -2.4520   -3.4280 h4        1 57L      0.199000
     36 H21         1.2130   -0.3410    4.0010 hc        1 57L      0.092333
     37 H22         1.7730    0.5530    5.4870 hc        1 57L      0.092333
     38 H23         2.9260    0.2470    4.1320 hc        1 57L      0.092333
     39 H18         2.1830    4.7350    2.8450 h1        1 57L      0.095000
     40 H19         3.6000    3.6790    2.4200 h1        1 57L      0.095000
     41 H3         -0.6100   -6.0650   -3.5720 hc        1 57L      0.089667
     42 H4         -2.0500   -5.0840   -3.0680 hc        1 57L      0.089667
     43 H2         -1.2040   -4.7120   -4.6270 hc        1 57L      0.089667
     44 H5         -1.5420   -3.4570   -1.3700 ha        1 57L      0.155000
     45 H6          0.6390   -2.9580   -0.0430 hc        1 57L      0.174000
     46 H1          1.5250   -5.0810   -5.1040 hn        1 57L      0.280000
     47 H8          3.0460   -3.1770    0.2080 ha        1 57L      0.001000
     48 H9          3.2760   -3.4160    0.7990 ha        1 57L      0.001000
     49 H11         2.1680   -1.0910    0.2060 h4        1 57L      0.199000
     50 H10         3.0290    0.4370    1.9500 ha        1 57L      0.143000
     51 H14        -0.2840    1.7870   -0.2200 h1        1 57L      0.102000
     52 H15        -1.6480    0.7260    0.3670 h1        1 57L      0.102000
     53 H16         0.8110    3.6320    1.3140 hc        1 57L      0.097000
     54 H17         2.3000    2.8220    0.6860 hc        1 57L      0.097000
     55 H20         0.4230    2.0780    4.2030 h1        1 57L      0.100000
     56 H28         4.9230    6.7740    6.1580 hc        1 57L      0.077556
     57 H27         4.6580    6.3590    4.4130 hc        1 57L      0.077556
     58 H26         6.1460    7.2720    4.9150 hc        1 57L      0.077556
     59 H29         6.6650    5.5700    7.4870 hc        1 57L      0.077556
     60 H30         7.9170    6.0920    6.2840 hc        1 57L      0.077556
     61 H31         7.7270    4.3350    6.6890 hc        1 57L      0.077556
     62 H32         7.4420    3.8130    4.2630 hc        1 57L      0.077556
     63 H34         7.6010    5.5660    3.8260 hc        1 57L      0.077556
     64 H33         6.1370    4.6270    3.3000 hc        1 57L      0.077556
     65 C1         -1.0510   -5.0360   -3.5670 c3        1 57L     -0.182000
@<TRIPOS>BOND
     1    1    6 1   
     2    1   19 1   
     3    1   22 1   
     4    2    6 1   
     5    2   15 1   
     6    2   16 1   
     7    2   45 1   
     8    3   10 1   
     9    3   17 1   
    10    4    5 1   
    11    4   14 1   
    12    4   17 1   
    13    5   10 1   
    14    5   16 1   
    15    6   18 1   
    16    7   21 1   
    17    7   22 1   
    18    7   31 1   
    19    7   32 1   
    20    8    9 1   
    21    8   27 1   
    22    8   33 1   
    23    8   34 1   
    24    9   28 1   
    25    9   29 1   
    26    9   30 1   
    27   10   35 1   
    28   11   25 1   
    29   11   36 1   
    30   11   37 1   
    31   11   38 1   
    32   12   23 1   
    33   12   24 1   
    34   12   39 1   
    35   12   40 1   
    36   13   24 1   
    37   13   26 1   
    38   13   27 1   
    39   14   15 1   
    40   14   65 1   
    41   15   44 1   
    42   17   46 1   
    43   19   20 1   
    44   19   49 1   
    45   20   21 1   
    46   20   50 1   
    47   21   23 1   
    48   21   25 1   
    49   22   51 1   
    50   22   52 1   
    51   23   53 1   
    52   23   54 1   
    53   24   25 1   
    54   25   55 1   
    55   28   56 1   
    56   28   57 1   
    57   28   58 1   
    58   29   59 1   
    59   29   60 1   
    60   29   61 1   
    61   30   62 1   
    62   30   63 1   
    63   30   64 1   
    64   41   65 1   
    65   42   65 1   
    66   43   65 1   
    67   47   48 1   
@<TRIPOS>SUBSTRUCTURE
     1 57L         1 TEMP              0 ****  ****    0 ROOT
