@<TRIPOS>MOLECULE
57L
   65    68     1     0     0
SMALL
bcc


@<TRIPOS>ATOM
      1 N3          0.1840    0.2980   -0.4620 n         1 57L     -0.452800
      2 C4          0.0510   -1.8970   -1.6360 ca        1 57L     -0.163600
      3 N2          2.2570   -4.0960   -5.0340 nc        1 57L     -0.507100
      4 C7          1.0610   -4.0150   -3.1070 ca        1 57L     -0.036200
      5 C6          1.2660   -2.6530   -3.5450 ca        1 57L     -0.223900
      6 C9         -0.5790   -0.8190   -0.8190 c         1 57L      0.666700
      7 C13         0.0090    1.3300    1.8120 c3        1 57L     -0.095400
      8 C20         5.3480    3.6360    5.9810 c3        1 57L      0.155400
      9 C21         6.2190    4.8830    5.7900 c3        1 57L     -0.057000
     10 C8          2.0350   -2.7930   -4.7760 cd        1 57L      0.351800
     11 C18         0.9210    1.5080    4.4480 c3        1 57L     -0.126100
     12 C16         3.2190    3.0860    2.4710 c3        1 57L      0.086000
     13 C19         3.7750    2.3390    4.7590 c         1 57L      0.737100
     14 C2          0.3400   -4.3120   -1.9350 ca        1 57L     -0.092300
     15 C3         -0.1620   -3.2310   -1.2220 ca        1 57L     -0.062000
     16 C5          0.7560   -1.5960   -2.7970 ca        1 57L     -0.031000
     17 N1          1.7200   -4.8240   -4.0440 na        1 57L     -0.020100
     18 O1         -1.7900   -0.8800   -0.5220 o         1 57L     -0.594100
     19 C10         1.6220    0.2230   -0.3300 c3        1 57L      0.077000
     20 C11         2.1300    0.2480    1.1140 c3        1 57L     -0.095400
     21 C12         1.5220    1.3800    1.9410 c3        1 57L     -0.052000
     22 C14        -0.4270    1.3360    0.3450 c3        1 57L      0.077000
     23 C15         2.0840    2.7440    1.4960 c3        1 57L     -0.088400
     24 N4          3.1880    2.0920    3.5310 n         1 57L     -0.432800
     25 C17         2.0110    1.2220    3.4220 c3        1 57L      0.110700
     26 O2          3.6980    1.6550    5.7940 o         1 57L     -0.588000
     27 O3          4.6040    3.4460    4.7630 os        1 57L     -0.442900
     28 C22         5.3420    6.0900    5.5040 c3        1 57L     -0.086433
     29 C23         6.9930    5.1040    7.0820 c3        1 57L     -0.086433
     30 C24         7.1910    4.6670    4.6420 c3        1 57L     -0.086433
     31 H12        -0.4590    2.2150    2.3180 hc        1 57L      0.057700
     32 H13        -0.3790    0.4040    2.3110 hc        1 57L      0.057700
     33 H25         5.9770    2.7270    6.1670 h1        1 57L      0.055200
     34 H24         4.6250    3.7730    6.8270 h1        1 57L      0.055200
     35 H7          2.3970   -1.9950   -5.4240 h4        1 57L      0.057800
     36 H21         1.3450    1.4510    5.4820 hc        1 57L      0.052700
     37 H22         0.1150    0.7400    4.3600 hc        1 57L      0.052700
     38 H23         0.4740    2.5200    4.3010 hc        1 57L      0.052700
     39 H18         3.1020    4.1280    2.8800 h1        1 57L      0.054200
     40 H19         4.2220    3.0270    1.9660 h1        1 57L      0.054200
     41 H3         -0.3770   -6.2960   -2.3080 hc        1 57L      0.048033
     42 H4          1.1110   -6.1980   -1.2750 hc        1 57L      0.048033
     43 H2         -0.5050   -5.7540   -0.5830 hc        1 57L      0.048033
     44 H5         -0.7600   -3.4060   -0.3120 ha        1 57L      0.152000
     45 H6          0.9040   -0.5550   -3.1210 ha        1 57L      0.150000
     46 H1          1.6470   -5.8100   -4.1270 hn        1 57L      0.325700
     47 H8          2.0500    1.1080   -0.8860 h1        1 57L      0.061450
     48 H9          2.0110   -0.7110   -0.8250 h1        1 57L      0.061450
     49 H11         3.2460    0.3570    1.0920 hc        1 57L      0.057700
     50 H10         1.8900   -0.7320    1.6050 hc        1 57L      0.057700
     51 H14        -0.1340    2.3240   -0.1160 h1        1 57L      0.061450
     52 H15        -1.5480    1.2380    0.2960 h1        1 57L      0.061450
     53 H16         2.4670    2.7060    0.4490 hc        1 57L      0.055700
     54 H17         1.2870    3.5280    1.5440 hc        1 57L      0.055700
     55 H20         2.3760    0.1670    3.5960 h1        1 57L      0.073700
     56 H28         4.7460    5.9170    4.5760 hc        1 57L      0.038589
     57 H27         4.6390    6.2690    6.3520 hc        1 57L      0.038589
     58 H26         5.9730    7.0010    5.3640 hc        1 57L      0.038589
     59 H29         6.2910    5.2640    7.9350 hc        1 57L      0.038589
     60 H30         7.6450    6.0050    6.9830 hc        1 57L      0.038589
     61 H31         7.6360    4.2210    7.3080 hc        1 57L      0.038589
     62 H32         6.6270    4.4640    3.6990 hc        1 57L      0.038589
     63 H34         7.8560    3.7950    4.8550 hc        1 57L      0.038589
     64 H33         7.8240    5.5740    4.4970 hc        1 57L      0.038589
     65 C1          0.1300   -5.7080   -1.5010 c3        1 57L     -0.051800
@<TRIPOS>BOND
     1    1    6 1   
     2    1   19 1   
     3    1   22 1   
     4    2    6 1   
     5    2   15 ar  
     6    2   16 ar  
     7    3   10 2   
     8    3   17 1   
     9    4    5 ar  
    10    4   14 ar  
    11    4   17 1   
    12    5   10 1   
    13    5   16 ar  
    14    6   18 2   
    15    7   21 1   
    16    7   22 1   
    17    7   31 1   
    18    7   32 1   
    19    8    9 1   
    20    8   27 1   
    21    8   33 1   
    22    8   34 1   
    23    9   28 1   
    24    9   29 1   
    25    9   30 1   
    26   10   35 1   
    27   11   25 1   
    28   11   36 1   
    29   11   37 1   
    30   11   38 1   
    31   12   23 1   
    32   12   24 1   
    33   12   39 1   
    34   12   40 1   
    35   13   24 1   
    36   13   26 2   
    37   13   27 1   
    38   14   15 ar  
    39   14   65 1   
    40   15   44 1   
    41   16   45 1   
    42   17   46 1   
    43   19   20 1   
    44   19   47 1   
    45   19   48 1   
    46   20   21 1   
    47   20   49 1   
    48   20   50 1   
    49   21   23 1   
    50   21   25 1   
    51   22   51 1   
    52   22   52 1   
    53   23   53 1   
    54   23   54 1   
    55   24   25 1   
    56   25   55 1   
    57   28   56 1   
    58   28   57 1   
    59   28   58 1   
    60   29   59 1   
    61   29   60 1   
    62   29   61 1   
    63   30   62 1   
    64   30   63 1   
    65   30   64 1   
    66   41   65 1   
    67   42   65 1   
    68   43   65 1   
@<TRIPOS>SUBSTRUCTURE
     1 57L         1 TEMP              0 ****  ****    0 ROOT
