@<TRIPOS>MOLECULE
57T
   36    37     1     0     0
SMALL
bcc


@<TRIPOS>ATOM
      1 CAD         0.5740   -0.9800    0.4120 ca        1 57T     -0.145500
      2 CAC         1.9590   -1.0470    0.5220 ca        1 57T     -0.105250
      3 CAB         2.5770   -0.7720    1.7430 ca        1 57T     -0.008600
      4 IAT         4.5970   -0.8620    1.8990 i         1 57T     -0.230900
      5 CAA         1.8010   -0.4360    2.8510 ca        1 57T     -0.105250
      6 CAF         0.4130   -0.3690    2.7460 ca        1 57T     -0.145500
      7 CAE        -0.2230   -0.6440    1.5250 ca        1 57T      0.042200
      8 CAG        -1.6560   -0.5660    1.3290 ce        1 57T     -0.192700
      9 CAH        -2.6390   -0.7060    2.2330 cf        1 57T     -0.010600
     10 CAI        -2.4380   -0.9750    3.7300 c         1 57T      0.915800
     11 OAR        -2.2070    0.0240    4.4710 o         1 57T     -0.809550
     12 OAQ        -2.4980   -2.1620    4.1430 o         1 57T     -0.809550
     13 SAJ        -4.2830   -0.6540    1.8480 ss        1 57T     -0.116100
     14 SAK        -4.6970    0.8970    0.4670 ss        1 57T     -0.116100
     15 CAL        -4.7010    0.4700   -1.1580 ce        1 57T     -0.010600
     16 CAN        -4.0750   -0.8360   -1.6850 c         1 57T      0.915800
     17 OAP        -2.8170   -0.9040   -1.6920 o         1 57T     -0.809550
     18 OAO        -4.8570   -1.7170   -2.1250 o         1 57T     -0.809550
     19 CAM        -5.2320    1.2760   -2.1090 cf        1 57T     -0.192700
     20 CAS        -5.8620    2.5630   -1.9820 ca        1 57T      0.042200
     21 CAU        -6.5790    3.0720   -3.0900 ca        1 57T     -0.145500
     22 CAV        -7.2130    4.3040   -3.0340 ca        1 57T     -0.105250
     23 CAW        -7.1490    5.0750   -1.8710 ca        1 57T     -0.008600
     24 IAZ        -8.0790    6.8710   -1.7930 i         1 57T     -0.230900
     25 CAX        -6.4400    4.5970   -0.7710 ca        1 57T     -0.105250
     26 CAY        -5.8020    3.3600   -0.8240 ca        1 57T     -0.145500
     27 H1          0.0810   -1.1940   -0.5510 ha        1 57T      0.163750
     28 H2          2.5580   -1.3170   -0.3600 ha        1 57T      0.120500
     29 H3          2.2750   -0.2210    3.8200 ha        1 57T      0.120500
     30 H4         -0.1990   -0.1030    3.6300 ha        1 57T      0.163750
     31 H5         -1.9420   -0.3960    0.2630 ha        1 57T      0.152000
     32 H8         -5.2020    0.8870   -3.1470 ha        1 57T      0.152000
     33 H9         -6.6360    2.4700   -4.0090 ha        1 57T      0.163750
     34 H10        -7.7670    4.6680   -3.9120 ha        1 57T      0.120500
     35 H11        -6.3750    5.1920    0.1530 ha        1 57T      0.120500
     36 H12        -5.2300    3.0190    0.0580 ha        1 57T      0.163750
@<TRIPOS>BOND
     1    1    2 ar  
     2    1    7 ar  
     3    1   27 1   
     4    2    3 ar  
     5    2   28 1   
     6    3    4 1   
     7    3    5 ar  
     8    5    6 ar  
     9    5   29 1   
    10    6    7 ar  
    11    6   30 1   
    12    7    8 1   
    13    8    9 2   
    14    8   31 1   
    15    9   10 1   
    16    9   13 1   
    17   10   11 1   
    18   10   12 1   
    19   13   14 1   
    20   14   15 1   
    21   15   16 1   
    22   15   19 2   
    23   16   17 1   
    24   16   18 1   
    25   19   20 1   
    26   19   32 1   
    27   20   21 ar  
    28   20   26 ar  
    29   21   22 ar  
    30   21   33 1   
    31   22   23 ar  
    32   22   34 1   
    33   23   24 1   
    34   23   25 ar  
    35   25   26 ar  
    36   25   35 1   
    37   26   36 1   
@<TRIPOS>SUBSTRUCTURE
     1 57T         1 TEMP              0 ****  ****    0 ROOT
