@<TRIPOS>MOLECULE
57U
   33    34     1     0     0
SMALL
bcc


@<TRIPOS>ATOM
      1 C8         -0.0690    0.2150    0.0280 cc        1 57U      0.284300
      2 C6          1.5580    0.0600    1.7960 cc        1 57U     -0.038400
      3 C5          2.7360   -0.0400    2.5850 cc        1 57U     -0.140300
      4 C4          3.9520   -0.6930    2.2420 cd        1 57U     -0.131000
      5 C3          4.8500   -0.5140    3.3260 cd        1 57U     -0.199000
      6 C2          4.1730    0.2460    4.3070 cc        1 57U     -0.102300
      7 N1          2.9000    0.5260    3.8590 na        1 57U     -0.137100
      8 C10         0.2160    0.1960    2.2360 cd        1 57U      0.271600
      9 C14        -1.5710   -0.8060   -1.5180 c         1 57U      0.627100
     10 C11        -0.2120    0.1850    3.6740 c3        1 57U      0.100100
     11 O18        -1.4610   -1.9860   -1.1950 o         1 57U     -0.438100
     12 N15        -2.7150   -0.5650   -2.5250 ny        1 57U     -0.683800
     13 C16        -3.8350    0.2010   -1.9030 c3        1 57U      0.109800
     14 C17        -5.0370    0.3210   -2.8160 c3        1 57U     -0.138100
     15 N13        -0.7370    0.2720   -1.2220 ns        1 57U     -0.411400
     16 S7          1.6270    0.0390    0.1270 ss        1 57U      0.119700
     17 N9         -0.7050    0.2900    1.2270 nd        1 57U     -0.615000
     18 O12         0.1170    1.3950    4.3260 oh        1 57U     -0.605800
     19 H1          4.1430   -1.2420    1.3230 ha        1 57U      0.157000
     20 H2          5.8670   -0.8890    3.3990 ha        1 57U      0.171000
     21 H3          4.5270    0.5930    5.2810 h4        1 57U      0.185000
     22 H4          2.2090    1.0560    4.3350 hn        1 57U      0.328700
     23 H5         -1.3130   -0.0200    3.7640 h1        1 57U      0.077200
     24 H6          0.3610   -0.6080    4.2310 h1        1 57U      0.077200
     25 H7         -2.3740   -0.0750   -3.3570 hn        1 57U      0.461800
     26 H8         -4.1220   -0.3340   -0.9500 hx        1 57U      0.108200
     27 H9         -3.4500    1.2270   -1.6370 hx        1 57U      0.108200
     28 H10        -5.4620   -0.6810   -3.0730 hc        1 57U      0.082367
     29 H11        -5.8260    0.9030   -2.2740 hc        1 57U      0.082367
     30 H12        -4.7900    0.8650   -3.7600 hc        1 57U      0.082367
     31 H13        -1.0860    1.1900   -1.4380 hn        1 57U      0.324500
     32 H14        -0.4330    2.0940    3.9520 ho        1 57U      0.417000
     33 H152       -3.0580   -1.4920   -2.8160 hn        1 57U      0.461800
@<TRIPOS>BOND
     1    1   15 1   
     2    1   16 1   
     3    1   17 2   
     4    2    3 1   
     5    2    8 2   
     6    2   16 1   
     7    3    4 2   
     8    3    7 1   
     9    4    5 1   
    10    4   19 1   
    11    5    6 2   
    12    5   20 1   
    13    6    7 1   
    14    6   21 1   
    15    7   22 1   
    16    8   10 1   
    17    8   17 1   
    18    9   11 2   
    19    9   12 1   
    20    9   15 1   
    21   10   18 1   
    22   10   23 1   
    23   10   24 1   
    24   12   13 1   
    25   12   25 1   
    26   12   33 1   
    27   13   14 1   
    28   13   26 1   
    29   13   27 1   
    30   14   28 1   
    31   14   29 1   
    32   14   30 1   
    33   15   31 1   
    34   18   32 1   
@<TRIPOS>SUBSTRUCTURE
     1 57U         1 TEMP              0 ****  ****    0 ROOT
