@<TRIPOS>MOLECULE
57U
   33    34     1     0     0
SMALL
bcc


@<TRIPOS>ATOM
      1 C8         -0.0660    0.2180    0.0300 cc        1 57U      0.284300
      2 C6          1.5520    0.0680    1.8060 cc        1 57U     -0.038400
      3 C5          2.7260   -0.0250    2.6010 cc        1 57U     -0.140300
      4 C4          3.9490   -0.6680    2.2620 cd        1 57U     -0.131000
      5 C3          4.8400   -0.4860    3.3520 cd        1 57U     -0.199000
      6 C2          4.1510    0.2640    4.3330 cc        1 57U     -0.102300
      7 N1          2.8780    0.5360    3.8790 na        1 57U     -0.137100
      8 C10         0.2070    0.1910    2.2390 cd        1 57U      0.271600
      9 C14        -1.5520   -0.8080   -1.5290 c         1 57U      0.627100
     10 C11        -0.2300    0.1710    3.6750 c3        1 57U      0.100100
     11 O18        -1.4340   -1.9880   -1.2110 o         1 57U     -0.438100
     12 N15        -2.6920   -0.5710   -2.5410 n4        1 57U     -0.683800
     13 C16        -3.8210    0.1830   -1.9210 c3        1 57U      0.109800
     14 C17        -5.0200    0.2970   -2.8390 c3        1 57U     -0.138100
     15 N13        -0.7280    0.2750   -1.2240 n         1 57U     -0.411400
     16 S7          1.6300    0.0550    0.1380 ss        1 57U      0.119700
     17 N9         -0.7100    0.2820    1.2260 nd        1 57U     -0.615000
     18 O12         0.0850    1.3800    4.3340 oh        1 57U     -0.605800
     19 H1          4.1500   -1.2110    1.3430 ha        1 57U      0.157000
     20 H2          5.8600   -0.8520    3.4290 ha        1 57U      0.171000
     21 H3          4.4960    0.6100    5.3100 h4        1 57U      0.185000
     22 H4          2.1800    1.0580    4.3540 hn        1 57U      0.328700
     23 H5          0.3470   -0.6200    4.2310 h1        1 57U      0.077200
     24 H6         -1.3300   -0.0440    3.7570 h1        1 57U      0.077200
     25 H7         -2.3520   -0.0750   -3.3690 hn        1 57U      0.461800
     26 H8         -4.1090   -0.3580   -0.9720 hx        1 57U      0.108200
     27 H9         -3.4460    1.2110   -1.6480 hx        1 57U      0.108200
     28 H10        -5.8160    0.8710   -2.2980 hc        1 57U      0.082367
     29 H11        -5.4360   -0.7060   -3.1030 hc        1 57U      0.082367
     30 H12        -4.7730    0.8470   -3.7800 hc        1 57U      0.082367
     31 H13        -1.0830    1.1920   -1.4380 hn        1 57U      0.324500
     32 H14        -0.4690    2.0760    3.9600 ho        1 57U      0.417000
     33 H152       -3.0270   -1.5000   -2.8370 hn        1 57U      0.461800
@<TRIPOS>BOND
     1    1   15 1   
     2    1   16 1   
     3    1   17 2   
     4    2    3 1   
     5    2    8 2   
     6    2   16 1   
     7    3    4 2   
     8    3    7 1   
     9    4    5 1   
    10    4   19 1   
    11    5    6 2   
    12    5   20 1   
    13    6    7 1   
    14    6   21 1   
    15    7   22 1   
    16    8   10 1   
    17    8   17 1   
    18    9   11 2   
    19    9   12 1   
    20    9   15 1   
    21   10   18 1   
    22   10   23 1   
    23   10   24 1   
    24   12   13 1   
    25   12   25 1   
    26   12   33 1   
    27   13   14 1   
    28   13   26 1   
    29   13   27 1   
    30   14   28 1   
    31   14   29 1   
    32   14   30 1   
    33   15   31 1   
    34   18   32 1   
@<TRIPOS>SUBSTRUCTURE
     1 57U         1 TEMP              0 ****  ****    0 ROOT
