@<TRIPOS>MOLECULE
57V
   42    44     1     0     0
SMALL
bcc


@<TRIPOS>ATOM
      1 O           0.8660   -2.8870   -1.3530 o         1 57V     -0.435100
      2 C1         -0.5060   -1.0960    2.5780 c3        1 57V     -0.136100
      3 C8         -3.3970    1.0150   -2.4440 ca        1 57V     -0.169100
      4 C7         -3.4780    0.5620   -3.8230 ce        1 57V     -0.066200
      5 C5         -1.0980   -0.1110   -4.2110 cd        1 57V      0.410100
      6 C4          0.6410   -0.4100   -2.8400 cc        1 57V      0.301300
      7 C3          1.0080   -1.7500   -0.9100 c         1 57V      0.632100
      8 C2         -0.3140   -1.0130    1.0800 c3        1 57V      0.110800
      9 N1          0.9440   -1.6840    0.6240 n4        1 57V     -0.684800
     10 C9         -3.6320    2.3630   -2.1310 ca        1 57V     -0.073000
     11 C10        -3.5450    2.7750   -0.8010 ca        1 57V     -0.236300
     12 C14        -0.0560    0.1100   -6.5400 cc        1 57V     -0.127300
     13 N2          1.3360   -0.5830   -1.6100 n         1 57V     -0.409400
     14 C13        -0.0150   -0.0890   -5.1250 cc        1 57V     -0.096400
     15 C12        -3.1110    0.1310   -1.3800 ca        1 57V      0.423200
     16 C11        -3.2130    1.8230    0.1780 ca        1 57V      0.389200
     17 S           1.4370   -0.3090   -4.3370 ss        1 57V      0.153700
     18 N5         -0.7800   -0.6960   -7.4330 na        1 57V     -0.156100
     19 C17        -0.5690   -0.2330   -8.7190 cc        1 57V     -0.115300
     20 C16         0.2880    0.8820   -8.6660 cd        1 57V     -0.195000
     21 C15         0.6150    1.0990   -7.2950 cd        1 57V     -0.134000
     22 N3         -0.7130   -0.3050   -2.9040 nd        1 57V     -0.637000
     23 N4         -2.9940    0.5220   -0.0980 nb        1 57V     -0.720000
     24 H1          0.3130   -0.5780    3.1320 hc        1 57V      0.080367
     25 H2         -0.5730   -2.1540    2.9300 hc        1 57V      0.080367
     26 H3         -1.4750   -0.5870    2.8230 hc        1 57V      0.080367
     27 H4         -4.4850    0.6760   -4.2720 ha        1 57V      0.148000
     28 H5         -2.7090   -0.1880   -5.6380 ha        1 57V      0.144000
     29 H6         -1.1810   -1.5090    0.5480 hx        1 57V      0.119200
     30 H7         -0.2730    0.0660    0.7510 hx        1 57V      0.119200
     31 H8          0.9530   -2.6540    0.9710 hn        1 57V      0.458300
     32 H9         -3.8790    3.0830   -2.9260 ha        1 57V      0.153000
     33 H10        -3.7340    3.8210   -0.5200 ha        1 57V      0.157000
     34 H11         1.3700    0.2670   -1.0700 hn        1 57V      0.319500
     35 H12        -2.9740   -0.9490   -1.5710 h4        1 57V      0.024100
     36 H13        -3.1320    2.1130    1.2410 h4        1 57V      0.021100
     37 H14        -1.3250   -1.4770   -7.1750 hn        1 57V      0.302700
     38 H15        -1.0330   -0.7160   -9.5820 h4        1 57V      0.182000
     39 H16         0.6320    1.4680   -9.5140 ha        1 57V      0.170000
     40 H17         1.2490    1.8880   -6.8990 ha        1 57V      0.159000
     41 H121        1.7590   -1.2000    1.0100 hn        1 57V      0.458300
     42 C6         -2.4900    0.0770   -4.5880 cf        1 57V     -0.207800
@<TRIPOS>BOND
     1    1    7 2   
     2    2    8 1   
     3    2   24 1   
     4    2   25 1   
     5    2   26 1   
     6    3    4 1   
     7    3   10 ar  
     8    3   15 ar  
     9    4   27 1   
    10    4   42 2   
    11    5   14 2   
    12    5   22 1   
    13    5   42 1   
    14    6   13 1   
    15    6   17 1   
    16    6   22 2   
    17    7    9 1   
    18    7   13 1   
    19    8    9 1   
    20    8   29 1   
    21    8   30 1   
    22    9   31 1   
    23    9   41 1   
    24   10   11 ar  
    25   10   32 1   
    26   11   16 ar  
    27   11   33 1   
    28   12   14 1   
    29   12   18 1   
    30   12   21 2   
    31   13   34 1   
    32   14   17 1   
    33   15   23 ar  
    34   15   35 1   
    35   16   23 ar  
    36   16   36 1   
    37   18   19 1   
    38   18   37 1   
    39   19   20 2   
    40   19   38 1   
    41   20   21 1   
    42   20   39 1   
    43   21   40 1   
    44   28   42 1   
@<TRIPOS>SUBSTRUCTURE
     1 57V         1 TEMP              0 ****  ****    0 ROOT
