@<TRIPOS>MOLECULE
57V
   42    41     1     0     0
SMALL
bcc


@<TRIPOS>ATOM
      1 O           0.9270    0.2760    0.7960 os        1 57V     -0.270000
      2 C1          1.1980   -1.2770    2.6670 c3        1 57V     -0.262000
      3 C8         -4.6470   -0.2000   -3.4560 c2        1 57V     -0.101000
      4 C7         -3.2610   -0.0610   -3.2650 c1        1 57V      0.018000
      5 C5         -0.6870    0.1960   -3.0720 c2        1 57V      0.099000
      6 C4          1.3500    0.4190   -1.9870 c2        1 57V     -0.070000
      7 C3          2.1870    0.4960    0.2750 c2        1 57V      0.349000
      8 C2          0.7200    0.0740    2.2060 c3        1 57V     -0.026000
      9 N1          3.2570    0.6780    1.0980 n8        1 57V     -0.350000
     10 C9         -5.4700   -0.4890   -2.4190 c2        1 57V      0.018000
     11 C10        -6.8930   -0.6650   -2.4890 c2        1 57V     -0.487000
     12 C14        -0.1470    0.2070   -5.4880 c1        1 57V     -0.253000
     13 N2          2.3390    0.5460   -1.0650 n2        1 57V     -0.298000
     14 C13         0.1910    0.2660   -4.1580 c2        1 57V     -0.187000
     15 C12        -5.0940    0.0440   -4.8480 c2        1 57V     -0.026000
     16 C11        -7.6710   -0.9460   -3.5210 c1        1 57V      0.281000
     17 S           1.7960    0.4360   -3.6480 ss        1 57V      0.713000
     18 N5          1.2130    0.4100   -9.0890 n8        1 57V     -0.366000
     19 C17        -0.1230    0.1960   -9.0700 c2        1 57V      0.102000
     20 C16        -0.9150    0.0740   -7.9590 c2        1 57V     -0.286000
     21 C15        -0.4830    0.1490   -6.6480 c1        1 57V      0.078000
     22 N3         -0.0140    0.2830   -1.8400 na        1 57V     -0.173000
     23 N4         -5.8060   -0.6790   -5.6170 n2        1 57V     -0.192000
     24 H1          0.8460   -2.0780    1.9710 hc        1 57V      0.105333
     25 H2          2.3100   -1.3350    2.7340 hc        1 57V      0.105333
     26 H3          0.7770   -1.4820    3.6840 hc        1 57V      0.105333
     27 H4         -1.3290    1.4220    0.6730 ha        1 57V      0.003000
     28 H5         -1.8620    1.0160    0.5700 ha        1 57V      0.003000
     29 H6          1.1660    0.9190    2.7920 h1        1 57V      0.120500
     30 H7         -0.4060    0.1440    2.2700 h1        1 57V      0.120500
     31 H8          3.1590    0.5870    2.0810 hn        1 57V      0.271000
     32 H9         -5.0400   -0.6010   -1.4050 ha        1 57V      0.137000
     33 H10        -7.4260   -0.5720   -1.5120 ha        1 57V      0.208000
     34 H11        -0.4910    0.2590   -0.9610 hn        1 57V      0.293000
     35 H12        -4.7250    1.0090   -5.2660 h4        1 57V      0.163000
     36 H13        -6.1420   -1.5540   -5.2650 hn        1 57V      0.151000
     37 H14         1.7280    0.5000   -8.2490 hn        1 57V      0.234000
     38 H15         1.6960    0.4880   -9.9480 hn        1 57V      0.234000
     39 H16        -0.6010    0.1140  -10.0710 h4        1 57V      0.159000
     40 H17        -1.9970   -0.1010   -8.1010 ha        1 57V      0.175000
     41 H121        4.1590    0.8550    0.7150 hn        1 57V      0.271000
     42 C6         -2.0730    0.0580   -3.1360 c1        1 57V     -0.168000
@<TRIPOS>BOND
     1    1    7 1   
     2    1    8 1   
     3    2    8 1   
     4    2   24 1   
     5    2   25 1   
     6    2   26 1   
     7    3    4 1   
     8    3   10 1   
     9    3   15 1   
    10    4   42 1   
    11    5   14 1   
    12    5   22 1   
    13    5   42 1   
    14    6   13 1   
    15    6   17 1   
    16    6   22 1   
    17    7    9 1   
    18    7   13 1   
    19    8   29 1   
    20    8   30 1   
    21    9   31 1   
    22    9   41 1   
    23   10   11 1   
    24   10   32 1   
    25   11   16 1   
    26   11   33 1   
    27   12   14 1   
    28   12   21 1   
    29   14   17 1   
    30   15   23 1   
    31   15   35 1   
    32   18   19 1   
    33   18   37 1   
    34   18   38 1   
    35   19   20 1   
    36   19   39 1   
    37   20   21 1   
    38   20   40 1   
    39   22   34 1   
    40   23   36 1   
    41   27   28 1   
@<TRIPOS>SUBSTRUCTURE
     1 57V         1 TEMP              0 ****  ****    0 ROOT
