@<TRIPOS>MOLECULE
57W
   46    49     1     0     0
SMALL
bcc


@<TRIPOS>ATOM
      1 O           0.4250    1.7180   -0.0100 o         1 57W     -0.463100
      2 C1          3.2520   -0.1770    3.0130 c3        1 57W     -0.138100
      3 C8          2.9560   -0.3520   -4.8820 ca        1 57W      0.415200
      4 C7          1.2150   -0.2560   -3.4200 ca        1 57W      0.386100
      5 C6          0.2480   -0.1460   -4.4950 ca        1 57W     -0.120500
      6 C5         -0.9140   -0.1170   -2.5350 cc        1 57W      0.004900
      7 C4          0.4410   -0.2440   -2.1810 cd        1 57W     -0.257200
      8 C3          1.1590    0.7370   -0.1250 c         1 57W      0.620100
      9 C2          2.1960   -0.2910    1.9330 c3        1 57W      0.109800
     10 N1          2.3350    0.7540    0.8790 ny        1 57W     -0.684800
     11 C9          2.0890   -0.2550   -6.0140 cp        1 57W     -0.117300
     12 C10         0.7100   -0.1490   -5.8200 ca        1 57W     -0.050000
     13 C14         4.3420    0.3420   -8.9620 ca        1 57W     -0.241300
     14 N2          0.9890   -0.4040   -0.9000 ns        1 57W     -0.322100
     15 C13         3.6130   -0.3740   -9.9310 ca        1 57W      0.413200
     16 C12         1.9970   -0.9650   -8.4010 ca        1 57W      0.415200
     17 C11         2.6510   -0.2720   -7.3540 cp        1 57W     -0.177300
     18 N4          2.5500   -0.3560   -3.6090 nb        1 57W     -0.671000
     19 C15         3.8510    0.3910   -7.6580 ca        1 57W     -0.077000
     20 N5          2.4610   -1.0190   -9.6620 nb        1 57W     -0.654000
     21 N3         -1.0360   -0.0810   -3.9200 na        1 57W     -0.070200
     22 C16        -2.2710    0.1290   -4.5980 ca        1 57W      0.474800
     23 N6         -2.2520    0.8460   -5.7630 nb        1 57W     -0.673000
     24 C20        -3.4250    1.0380   -6.3840 ca        1 57W      0.426200
     25 C19        -4.6600    0.5530   -5.9070 ca        1 57W     -0.230300
     26 C18        -4.6660   -0.1790   -4.7230 ca        1 57W     -0.069000
     27 C17        -3.4650   -0.4080   -4.0480 ca        1 57W     -0.245300
     28 H1          3.0730   -0.9930    3.7600 hc        1 57W      0.080700
     29 H2          4.2820   -0.3030    2.6000 hc        1 57W      0.080700
     30 H3          3.1920    0.8020    3.5490 hc        1 57W      0.080700
     31 H4          4.0480   -0.4410   -5.0390 h4        1 57W      0.036100
     32 H5         -1.7920   -0.0460   -1.8830 h4        1 57W      0.197000
     33 H6          2.2630   -1.3020    1.4360 hx        1 57W      0.106200
     34 H7          1.1670   -0.1800    2.3830 hx        1 57W      0.106200
     35 H8          3.2220    0.6350    0.3810 hn        1 57W      0.459300
     36 H9          0.0240   -0.0620   -6.6770 ha        1 57W      0.179000
     37 H10         5.2750    0.8520   -9.2350 ha        1 57W      0.154000
     38 H11         1.7410   -1.0730   -0.8970 hn        1 57W      0.333500
     39 H12         3.9670   -0.4380  -10.9770 h4        1 57W      0.036100
     40 H13         1.0550   -1.5100   -8.2130 h4        1 57W      0.025100
     41 H14         4.3910    0.9500   -6.8800 ha        1 57W      0.139000
     42 H15        -3.3670    1.6210   -7.3230 h4        1 57W      0.045100
     43 H16        -5.5860    0.7510   -6.4640 ha        1 57W      0.166000
     44 H17        -5.6060   -0.5850   -4.3180 ha        1 57W      0.159000
     45 H18        -3.4540   -1.0000   -3.1220 ha        1 57W      0.152000
     46 H121        2.3360    1.6840    1.3210 hn        1 57W      0.459300
@<TRIPOS>BOND
     1    1    8 2   
     2    2    9 1   
     3    2   28 1   
     4    2   29 1   
     5    2   30 1   
     6    3   11 ar  
     7    3   18 ar  
     8    3   31 1   
     9    4    5 ar  
    10    4    7 1   
    11    4   18 ar  
    12    5   12 ar  
    13    5   21 1   
    14    6    7 2   
    15    6   21 1   
    16    6   32 1   
    17    7   14 1   
    18    8   10 1   
    19    8   14 1   
    20    9   10 1   
    21    9   33 1   
    22    9   34 1   
    23   10   35 1   
    24   10   46 1   
    25   11   12 ar  
    26   11   17 1   
    27   12   36 1   
    28   13   15 ar  
    29   13   19 ar  
    30   13   37 1   
    31   14   38 1   
    32   15   20 ar  
    33   15   39 1   
    34   16   17 ar  
    35   16   20 ar  
    36   16   40 1   
    37   17   19 ar  
    38   19   41 1   
    39   21   22 1   
    40   22   23 ar  
    41   22   27 ar  
    42   23   24 ar  
    43   24   25 ar  
    44   24   42 1   
    45   25   26 ar  
    46   25   43 1   
    47   26   27 ar  
    48   26   44 1   
    49   27   45 1   
@<TRIPOS>SUBSTRUCTURE
     1 57W         1 TEMP              0 ****  ****    0 ROOT
