@<TRIPOS>MOLECULE
57W
   46    49     1     0     0
SMALL
bcc


@<TRIPOS>ATOM
      1 O           0.4740    1.6630    0.0060 o         1 57W     -0.464100
      2 C1          3.2030   -0.3890    3.0190 c3        1 57W     -0.138100
      3 C8          2.9650   -0.2230   -4.8580 ca        1 57W      0.415200
      4 C7          1.2050   -0.2250   -3.4150 ca        1 57W      0.386100
      5 C6          0.2480   -0.0980   -4.4970 ca        1 57W     -0.121500
      6 C5         -0.9370   -0.1620   -2.5510 cc        1 57W      0.006900
      7 C4          0.4160   -0.2740   -2.1860 cd        1 57W     -0.258200
      8 C3          1.1650    0.6510   -0.1160 c         1 57W      0.622100
      9 C2          2.1500   -0.4460    1.9330 c3        1 57W      0.109800
     10 N1          2.3360    0.6070    0.8930 n4        1 57W     -0.684800
     11 C9          2.1080   -0.1010   -5.9950 cp        1 57W     -0.116300
     12 C10         0.7250   -0.0330   -5.8150 ca        1 57W     -0.050000
     13 C14         4.3790    0.6500   -8.8950 ca        1 57W     -0.241300
     14 N2          0.9510   -0.4730   -0.9040 n         1 57W     -0.323100
     15 C13         3.6730   -0.0420   -9.8980 ca        1 57W      0.413200
     16 C12         2.0540   -0.7210   -8.4090 ca        1 57W      0.415200
     17 C11         2.6850   -0.0560   -7.3300 cp        1 57W     -0.178300
     18 N4          2.5450   -0.2820   -3.5910 nb        1 57W     -0.672000
     19 C15         3.8750    0.6400   -7.5950 ca        1 57W     -0.078000
     20 N5          2.5310   -0.7180   -9.6650 nb        1 57W     -0.654000
     21 N3         -1.0410   -0.0370   -3.9330 na        1 57W     -0.071200
     22 C16        -2.2820   -0.0050   -4.6300 ca        1 57W      0.474800
     23 N6         -2.3480   -0.6090   -5.8570 nb        1 57W     -0.674000
     24 C20        -3.5260   -0.5730   -6.4960 ca        1 57W      0.426200
     25 C19        -4.6860    0.0380   -5.9790 ca        1 57W     -0.230300
     26 C18        -4.6060    0.6540   -4.7330 ca        1 57W     -0.070000
     27 C17        -3.3950    0.6450   -4.0360 ca        1 57W     -0.244300
     28 H1          4.2300   -0.5510    2.6090 hc        1 57W      0.080367
     29 H2          2.9890   -1.2070    3.7540 hc        1 57W      0.080367
     30 H3          3.1800    0.5840    3.5670 hc        1 57W      0.080367
     31 H4          4.0600   -0.2820   -5.0040 h4        1 57W      0.036100
     32 H5         -1.8250   -0.1640   -1.9100 h4        1 57W      0.196000
     33 H6          1.1230   -0.3000    2.3800 hx        1 57W      0.106200
     34 H7          2.1780   -1.4520    1.4230 hx        1 57W      0.106200
     35 H8          2.3730    1.5300    1.3480 hn        1 57W      0.459800
     36 H9          0.0470    0.0680   -6.6760 ha        1 57W      0.178000
     37 H10         5.3060    1.1880   -9.1380 ha        1 57W      0.154000
     38 H11         1.6740   -1.1720   -0.9060 hn        1 57W      0.333500
     39 H12         4.0380   -0.0580  -10.9410 h4        1 57W      0.035100
     40 H13         1.1210   -1.2920   -8.2500 h4        1 57W      0.029100
     41 H14         4.3970    1.1790   -6.7910 ha        1 57W      0.139000
     42 H15        -3.5370   -1.0710   -7.4850 h4        1 57W      0.045100
     43 H16        -5.6220    0.0270   -6.5550 ha        1 57W      0.167000
     44 H17        -5.4860    1.1510   -4.2950 ha        1 57W      0.159000
     45 H18        -3.3150    1.1430   -3.0600 ha        1 57W      0.153000
     46 H121        3.2190    0.4580    0.3970 hn        1 57W      0.459800
@<TRIPOS>BOND
     1    1    8 2   
     2    2    9 1   
     3    2   28 1   
     4    2   29 1   
     5    2   30 1   
     6    3   11 ar  
     7    3   18 ar  
     8    3   31 1   
     9    4    5 ar  
    10    4    7 1   
    11    4   18 ar  
    12    5   12 ar  
    13    5   21 1   
    14    6    7 2   
    15    6   21 1   
    16    6   32 1   
    17    7   14 1   
    18    8   10 1   
    19    8   14 1   
    20    9   10 1   
    21    9   33 1   
    22    9   34 1   
    23   10   35 1   
    24   10   46 1   
    25   11   12 ar  
    26   11   17 1   
    27   12   36 1   
    28   13   15 ar  
    29   13   19 ar  
    30   13   37 1   
    31   14   38 1   
    32   15   20 ar  
    33   15   39 1   
    34   16   17 ar  
    35   16   20 ar  
    36   16   40 1   
    37   17   19 ar  
    38   19   41 1   
    39   21   22 1   
    40   22   23 ar  
    41   22   27 ar  
    42   23   24 ar  
    43   24   25 ar  
    44   24   42 1   
    45   25   26 ar  
    46   25   43 1   
    47   26   27 ar  
    48   26   44 1   
    49   27   45 1   
@<TRIPOS>SUBSTRUCTURE
     1 57W         1 TEMP              0 ****  ****    0 ROOT
