@<TRIPOS>MOLECULE
57X
   39    42     1     0     0
SMALL
bcc


@<TRIPOS>ATOM
      1 C1          0.0910   -0.3790   -0.2460 cc        1 57X     -0.269200
      2 C6          1.4470   -0.3290   -0.2010 cd        1 57X      0.027800
      3 C5          2.0820   -0.1760    1.0540 cd        1 57X     -0.306100
      4 C4          1.2660   -0.0800    2.2340 cc        1 57X      0.084300
      5 C2         -0.7520   -0.2830    0.9520 c         1 57X      0.708700
      6 C9          3.4440   -0.0770    1.5450 cd        1 57X      0.453800
      7 C10         4.6340   -0.1180    0.7510 cd        1 57X     -0.237900
      8 C14         5.9420    0.0010    1.2340 cc        1 57X      0.370200
      9 C12         6.3830   -0.2450   -0.9310 cd        1 57X      0.454900
     10 O24        -1.9950   -0.3320    0.9250 o         1 57X     -0.625500
     11 N3         -0.1130   -0.1130    2.2170 n         1 57X     -0.335000
     12 C21        -0.8800   -0.0210    3.4400 c3        1 57X      0.073000
     13 C22        -0.8770   -1.2860    4.2990 c3        1 57X     -0.101400
     14 C23        -1.6970   -1.0630    5.5430 c3        1 57X     -0.095100
     15 N7          2.1530    0.0730    3.3100 na        1 57X     -0.036600
     16 N8          3.4300    0.0640    2.9060 nc        1 57X     -0.495800
     17 N13         6.9320   -0.0700    0.2830 nc        1 57X     -0.633000
     18 S11         4.6620   -0.3200   -0.9210 ss        1 57X     -0.068300
     19 C15         7.1270   -0.3610   -2.1700 ca        1 57X     -0.249800
     20 C20         8.4920   -0.0410   -2.2480 ca        1 57X     -0.049000
     21 C19         9.1450   -0.1710   -3.4740 ca        1 57X     -0.249300
     22 C18         8.4120   -0.6190   -4.5880 ca        1 57X      0.403200
     23 N17         7.1010   -0.9340   -4.5340 nb        1 57X     -0.660000
     24 C16         6.4820   -0.8070   -3.3490 ca        1 57X      0.403200
     25 H1         -0.4680   -0.4990   -1.1850 ha        1 57X      0.168000
     26 H2          2.0630   -0.4040   -1.1130 ha        1 57X      0.146000
     27 H3          6.2230    0.1420    2.2860 h4        1 57X      0.060100
     28 H4         -0.4810    0.8410    4.0490 h1        1 57X      0.073200
     29 H5         -1.9470    0.2190    3.1550 h1        1 57X      0.073200
     30 H6         -1.3040   -2.1420    3.7120 hc        1 57X      0.050200
     31 H7          0.1710   -1.5670    4.5810 hc        1 57X      0.050200
     32 H8         -2.7540   -0.8150    5.2800 hc        1 57X      0.040367
     33 H9         -1.6980   -1.9860    6.1710 hc        1 57X      0.040367
     34 H10        -1.2800   -0.2240    6.1510 hc        1 57X      0.040367
     35 H11         1.9310    0.1190    4.2770 hn        1 57X      0.332700
     36 H12         9.0380    0.3060   -1.3570 ha        1 57X      0.163000
     37 H13        10.2110    0.0700   -3.5720 ha        1 57X      0.149000
     38 H14         8.8920   -0.7350   -5.5760 h4        1 57X      0.026100
     39 H15         5.4090   -1.0790   -3.3370 h4        1 57X      0.022100
@<TRIPOS>BOND
     1    1    2 2   
     2    1    5 1   
     3    1   25 1   
     4    2    3 1   
     5    2   26 1   
     6    3    4 2   
     7    3    6 1   
     8    4   11 1   
     9    4   15 1   
    10    5   10 2   
    11    5   11 1   
    12    6    7 1   
    13    6   16 2   
    14    7    8 2   
    15    7   18 1   
    16    8   17 1   
    17    8   27 1   
    18    9   17 2   
    19    9   18 1   
    20    9   19 1   
    21   11   12 1   
    22   12   13 1   
    23   12   28 1   
    24   12   29 1   
    25   13   14 1   
    26   13   30 1   
    27   13   31 1   
    28   14   32 1   
    29   14   33 1   
    30   14   34 1   
    31   15   16 1   
    32   15   35 1   
    33   19   20 ar  
    34   19   24 ar  
    35   20   21 ar  
    36   20   36 1   
    37   21   22 ar  
    38   21   37 1   
    39   22   23 ar  
    40   22   38 1   
    41   23   24 ar  
    42   24   39 1   
@<TRIPOS>SUBSTRUCTURE
     1 57X         1 TEMP              0 ****  ****    0 ROOT
