@<TRIPOS>MOLECULE
57X
   39    42     1     0     0
SMALL
bcc


@<TRIPOS>ATOM
      1 C1          0.0920   -0.3820   -0.2480 cc        1 57X     -0.269200
      2 C6          1.4480   -0.3310   -0.2030 cd        1 57X      0.027800
      3 C5          2.0820   -0.1760    1.0530 cd        1 57X     -0.306100
      4 C4          1.2640   -0.0790    2.2330 cc        1 57X      0.084300
      5 C2         -0.7520   -0.2840    0.9490 c         1 57X      0.708700
      6 C9          3.4430   -0.0760    1.5450 cd        1 57X      0.453800
      7 C10         4.6340   -0.1170    0.7520 cd        1 57X     -0.237900
      8 C14         5.9410    0.0030    1.2360 cc        1 57X      0.370200
      9 C12         6.3840   -0.2460   -0.9290 cd        1 57X      0.454900
     10 O24        -1.9950   -0.3340    0.9210 o         1 57X     -0.625500
     11 N3         -0.1140   -0.1120    2.2140 n         1 57X     -0.335000
     12 C21        -0.8820   -0.0190    3.4360 c3        1 57X      0.073000
     13 C22        -0.8790   -1.2830    4.2970 c3        1 57X     -0.101400
     14 C23        -1.7000   -1.0580    5.5400 c3        1 57X     -0.095100
     15 N7          2.1510    0.0770    3.3080 na        1 57X     -0.036600
     16 N8          3.4280    0.0680    2.9050 nc        1 57X     -0.495800
     17 N13         6.9320   -0.0690    0.2850 nc        1 57X     -0.633000
     18 S11         4.6630   -0.3220   -0.9200 ss        1 57X     -0.068300
     19 C15         7.1300   -0.3630   -2.1670 ca        1 57X     -0.249800
     20 C20         8.4950   -0.0450   -2.2440 ca        1 57X     -0.049000
     21 C19         9.1480   -0.1770   -3.4700 ca        1 57X     -0.249300
     22 C18         8.4160   -0.6240   -4.5830 ca        1 57X      0.403200
     23 N17         7.1050   -0.9370   -4.5300 nb        1 57X     -0.660000
     24 C16         6.4850   -0.8090   -3.3460 ca        1 57X      0.403200
     25 H1         -0.4660   -0.5040   -1.1880 ha        1 57X      0.168000
     26 H2          2.0650   -0.4070   -1.1140 ha        1 57X      0.146000
     27 H3          6.2210    0.1460    2.2880 h4        1 57X      0.060100
     28 H4         -1.9490    0.2200    3.1500 h1        1 57X      0.073200
     29 H5         -0.4840    0.8440    4.0450 h1        1 57X      0.073200
     30 H6         -1.3060   -2.1400    3.7110 hc        1 57X      0.050200
     31 H7          0.1690   -1.5620    4.5800 hc        1 57X      0.050200
     32 H8         -1.7010   -1.9810    6.1700 hc        1 57X      0.040367
     33 H9         -2.7570   -0.8110    5.2760 hc        1 57X      0.040367
     34 H10        -1.2840   -0.2180    6.1470 hc        1 57X      0.040367
     35 H11         1.9280    0.1240    4.2750 hn        1 57X      0.332700
     36 H12         9.0410    0.3020   -1.3530 ha        1 57X      0.163000
     37 H13        10.2160    0.0630   -3.5660 ha        1 57X      0.149000
     38 H14         8.8970   -0.7410   -5.5710 h4        1 57X      0.026100
     39 H15         5.4120   -1.0790   -3.3360 h4        1 57X      0.022100
@<TRIPOS>BOND
     1    1    2 2   
     2    1    5 1   
     3    1   25 1   
     4    2    3 1   
     5    2   26 1   
     6    3    4 2   
     7    3    6 1   
     8    4   11 1   
     9    4   15 1   
    10    5   10 2   
    11    5   11 1   
    12    6    7 1   
    13    6   16 2   
    14    7    8 2   
    15    7   18 1   
    16    8   17 1   
    17    8   27 1   
    18    9   17 2   
    19    9   18 1   
    20    9   19 1   
    21   11   12 1   
    22   12   13 1   
    23   12   28 1   
    24   12   29 1   
    25   13   14 1   
    26   13   30 1   
    27   13   31 1   
    28   14   32 1   
    29   14   33 1   
    30   14   34 1   
    31   15   16 1   
    32   15   35 1   
    33   19   20 ar  
    34   19   24 ar  
    35   20   21 ar  
    36   20   36 1   
    37   21   22 ar  
    38   21   37 1   
    39   22   23 ar  
    40   22   38 1   
    41   23   24 ar  
    42   24   39 1   
@<TRIPOS>SUBSTRUCTURE
     1 57X         1 TEMP              0 ****  ****    0 ROOT
