@<TRIPOS>MOLECULE
57Y
   43    46     1     0     0
SMALL
bcc


@<TRIPOS>ATOM
      1 C20        -0.1140    0.5740    0.0290 ca        1 57Y     -0.034000
      2 C21         1.2440    0.7510    0.0220 ca        1 57Y     -0.211000
      3 C15        -7.1920    0.1400   -2.1010 ca        1 57Y     -0.114000
      4 C18        -5.2150    1.1400   -3.0580 ca        1 57Y      0.357200
      5 C10        -4.5610   -0.4230    1.2980 cc        1 57Y      0.352200
      6 C19        -0.7360    0.1650    1.2230 ca        1 57Y     -0.162000
      7 C14        -5.8390    0.4890   -1.9700 ca        1 57Y     -0.280800
      8 C4          1.4710    0.1210    2.4090 ca        1 57Y     -0.085300
      9 C5          0.0560   -0.0680    2.4320 ca        1 57Y     -0.039000
     10 C22         2.0210    0.5260    1.2040 ca        1 57Y      0.121100
     11 C16        -7.8430    0.4450   -3.3050 ca        1 57Y      0.039800
     12 C8         -2.0800   -0.1100    1.6100 cd        1 57Y      0.026700
     13 C9         -3.2850   -0.0550    0.8540 cd        1 57Y     -0.196200
     14 CA         -7.1200    1.0740   -4.3690 ca        1 57Y      0.329800
     15 C12        -5.0840    0.2040   -0.7710 cd        1 57Y      0.523900
     16 C          -7.8500    1.3480   -5.7050 c         1 57Y      0.821100
     17 C1          3.3870   -1.7740    5.1160 c3        1 57Y     -0.090100
     18 C3          2.2880   -0.0980    3.6280 c3        1 57Y     -0.017100
     19 C2          2.5620   -1.5720    3.8710 c3        1 57Y     -0.076400
     20 N          -5.8280    1.4220   -4.2200 nb        1 57Y     -0.617000
     21 N11        -5.5770   -0.2780    0.3840 nc        1 57Y     -0.648000
     22 N7         -2.0040   -0.4690    2.9560 na        1 57Y      0.050800
     23 N6         -0.7740   -0.4550    3.4600 nc        1 57Y     -0.291400
     24 O          -7.2480    1.1320   -6.7790 o         1 57Y     -0.799300
     25 O23         3.3900    0.7160    1.1660 oh        1 57Y     -0.505100
     26 O17        -9.1620    0.0980   -3.3820 oh        1 57Y     -0.532100
     27 OXT        -9.0510    1.7350   -5.5950 o         1 57Y     -0.799300
     28 S13        -3.3770    0.4780   -0.7420 ss        1 57Y     -0.072300
     29 H1         -0.7230    0.7420   -0.8740 ha        1 57Y      0.142000
     30 H2          1.7630    1.0700   -0.8940 ha        1 57Y      0.131000
     31 H5         -4.8120   -0.8110    2.2910 h4        1 57Y      0.028100
     32 H6          3.5820   -2.8620    5.2780 hc        1 57Y      0.027700
     33 H7          4.3680   -1.2490    5.0290 hc        1 57Y      0.027700
     34 H8          2.8530   -1.3740    6.0110 hc        1 57Y      0.027700
     35 H9          3.2650    0.4480    3.5280 hc        1 57Y      0.052200
     36 H10         1.7520    0.3300    4.5180 hc        1 57Y      0.052200
     37 H11         1.5890   -2.1210    3.9660 hc        1 57Y      0.045200
     38 H12         3.1020   -1.9990    2.9850 hc        1 57Y      0.045200
     39 H13        -2.7740   -0.7260    3.5320 hn        1 57Y      0.321700
     40 H14         3.6170    1.0400    0.2830 ho        1 57Y      0.414000
     41 H15        -9.5470    0.4980   -4.1910 ho        1 57Y      0.481000
     42 H3         -7.7400   -0.3550   -1.2880 ha        1 57Y      0.154000
     43 H4         -4.1570    1.4540   -2.9930 h4        1 57Y     -0.001900
@<TRIPOS>BOND
     1    1    2 ar  
     2    1    6 ar  
     3    1   29 1   
     4    2   10 ar  
     5    2   30 1   
     6    3    7 ar  
     7    3   11 ar  
     8    3   42 1   
     9    4    7 ar  
    10    4   20 ar  
    11    4   43 1   
    12    5   13 2   
    13    5   21 1   
    14    5   31 1   
    15    6    9 ar  
    16    6   12 2   
    17    7   15 1   
    18    8    9 ar  
    19    8   10 ar  
    20    8   18 1   
    21    9   23 2   
    22   10   25 1   
    23   11   14 ar  
    24   11   26 1   
    25   12   13 1   
    26   12   22 1   
    27   13   28 1   
    28   14   16 1   
    29   14   20 ar  
    30   15   21 2   
    31   15   28 1   
    32   16   24 1   
    33   16   27 1   
    34   17   19 1   
    35   17   32 1   
    36   17   33 1   
    37   17   34 1   
    38   18   19 1   
    39   18   35 1   
    40   18   36 1   
    41   19   37 1   
    42   19   38 1   
    43   22   23 1   
    44   22   39 1   
    45   25   40 1   
    46   26   41 1   
@<TRIPOS>SUBSTRUCTURE
     1 57Y         1 TEMP              0 ****  ****    0 ROOT
