@<TRIPOS>MOLECULE
57Z
   52    54     1     0     0
SMALL
bcc


@<TRIPOS>ATOM
      1 OAC         0.4000   -1.9190    0.9290 o         1 57Z     -0.686500
      2 CAY         1.4100   -1.2710    0.5590 c         1 57Z      0.703700
      3 NAR         2.3950   -0.9410    1.4790 ns        1 57Z     -0.405100
      4 CBA         3.5510   -0.2590    1.1160 ca        1 57Z      0.103600
      5 CAV         4.5490    0.0680    2.0830 ca        1 57Z     -0.114300
      6 CAB         4.3750   -0.3060    3.5060 c3        1 57Z     -0.066800
      7 CAK         5.6880    0.7430    1.6710 ca        1 57Z     -0.056000
      8 CAT         5.8890    1.1160    0.3260 ca        1 57Z     -0.085300
      9 CAA         7.1280    1.8370   -0.0490 c3        1 57Z     -0.061800
     10 CAL         4.9240    0.8040   -0.6160 ca        1 57Z     -0.073000
     11 CAZ         3.7490    0.1190   -0.2430 ca        1 57Z     -0.153800
     12 CAM         2.7390   -0.1940   -1.2090 cc        1 57Z      0.062800
     13 CAX         1.6070   -0.8520   -0.8380 cd        1 57Z     -0.302400
     14 CAP         0.4600   -1.0960   -1.7530 c3        1 57Z      0.184000
     15 NBB         0.0940   -2.5480   -1.8630 nx        1 57Z     -0.559200
     16 CAO        -1.2670   -2.7530   -2.4420 c3        1 57Z      0.066800
     17 CAN        -1.7680   -1.7110   -3.4470 c3        1 57Z      0.112400
     18 OAD        -0.9210   -1.6360   -4.5730 oh        1 57Z     -0.623800
     19 CAS         1.1600   -3.4150   -2.5530 c         1 57Z      0.326400
     20 SAF         1.6660   -4.5990   -1.6470 s         1 57Z     -0.271400
     21 NAQ         1.5070   -3.0240   -3.8060 ns        1 57Z     -0.345100
     22 CAW         2.3890   -3.7150   -4.6760 ca        1 57Z     -0.048400
     23 CAI         2.2800   -3.4330   -6.0630 ca        1 57Z     -0.093000
     24 CAG         3.1230   -4.0430   -6.9730 ca        1 57Z     -0.167500
     25 CAU         4.0980   -4.9540   -6.5160 ca        1 57Z      0.157100
     26 OAE         4.8920   -5.5210   -7.4740 oh        1 57Z     -0.474100
     27 CAH         4.2180   -5.2370   -5.1490 ca        1 57Z     -0.167500
     28 CAJ         3.3700   -4.6210   -4.2330 ca        1 57Z     -0.093000
     29 H1          2.2630   -1.2050    2.4340 hn        1 57Z      0.355500
     30 H2          4.2870   -1.4160    3.6170 hc        1 57Z      0.058367
     31 H3          5.2490    0.0310    4.1180 hc        1 57Z      0.058367
     32 H4          3.4550    0.1710    3.9320 hc        1 57Z      0.058367
     33 H5          6.4640    0.9990    2.4130 ha        1 57Z      0.156000
     34 H6          7.1610    2.0510   -1.1450 hc        1 57Z      0.057700
     35 H7          7.1910    2.8090    0.5020 hc        1 57Z      0.057700
     36 H8          8.0270    1.2260    0.2190 hc        1 57Z      0.057700
     37 H9          5.0620    1.0900   -1.6710 ha        1 57Z      0.146000
     38 H10         2.9040    0.1260   -2.2530 ha        1 57Z      0.150000
     39 H11         0.6520   -0.6780   -2.7810 hx        1 57Z      0.103200
     40 H12        -0.4470   -0.5740   -1.3160 hx        1 57Z      0.103200
     41 H13        -1.9950   -2.7590   -1.5760 hx        1 57Z      0.109700
     42 H14        -1.2820   -3.7720   -2.9250 hx        1 57Z      0.109700
     43 H15        -1.7820   -0.6780   -3.0020 h1        1 57Z      0.084700
     44 H16        -2.8180   -1.9960   -3.7290 h1        1 57Z      0.084700
     45 H17        -1.3270   -2.1350   -5.2930 ho        1 57Z      0.435000
     46 H18         1.0300   -2.2510   -4.2410 hn        1 57Z      0.352500
     47 H19         1.5240   -2.7210   -6.4350 ha        1 57Z      0.158500
     48 H20         3.0460   -3.8320   -8.0510 ha        1 57Z      0.165500
     49 H21         5.5140   -6.1290   -7.0420 ho        1 57Z      0.437000
     50 H22         4.9790   -5.9470   -4.7920 ha        1 57Z      0.165500
     51 H23         3.4830   -4.8640   -3.1610 ha        1 57Z      0.158500
     52 HBB1        0.0730   -2.9290   -0.8790 hn        1 57Z      0.509800
@<TRIPOS>BOND
     1    1    2 2   
     2    2    3 1   
     3    2   13 1   
     4    3    4 1   
     5    3   29 1   
     6    4    5 ar  
     7    4   11 ar  
     8    5    6 1   
     9    5    7 ar  
    10    6   30 1   
    11    6   31 1   
    12    6   32 1   
    13    7    8 ar  
    14    7   33 1   
    15    8    9 1   
    16    8   10 ar  
    17    9   34 1   
    18    9   35 1   
    19    9   36 1   
    20   10   11 ar  
    21   10   37 1   
    22   11   12 1   
    23   12   13 2   
    24   12   38 1   
    25   13   14 1   
    26   14   15 1   
    27   14   39 1   
    28   14   40 1   
    29   15   16 1   
    30   15   19 1   
    31   15   52 1   
    32   16   17 1   
    33   16   41 1   
    34   16   42 1   
    35   17   18 1   
    36   17   43 1   
    37   17   44 1   
    38   18   45 1   
    39   19   20 2   
    40   19   21 1   
    41   21   22 1   
    42   21   46 1   
    43   22   23 ar  
    44   22   28 ar  
    45   23   24 ar  
    46   23   47 1   
    47   24   25 ar  
    48   24   48 1   
    49   25   26 1   
    50   25   27 ar  
    51   26   49 1   
    52   27   28 ar  
    53   27   50 1   
    54   28   51 1   
@<TRIPOS>SUBSTRUCTURE
     1 57Z         1 TEMP              0 ****  ****    0 ROOT
