@<TRIPOS>MOLECULE
57Z
   52    54     1     0     0
SMALL
bcc


@<TRIPOS>ATOM
      1 OAC         0.4240   -1.2070    0.0410 o         1 57Z     -0.712500
      2 CAY         1.5850   -0.7410    0.1630 c         1 57Z      0.701700
      3 NAR         2.0840   -0.4870    1.4320 n         1 57Z     -0.405100
      4 CBA         3.3850   -0.0390    1.6450 ca        1 57Z      0.098600
      5 CAV         3.8730    0.2140    2.9610 ca        1 57Z     -0.114300
      6 CAB         3.0000    0.0200    4.1430 c3        1 57Z     -0.066800
      7 CAK         5.1810    0.6450    3.1200 ca        1 57Z     -0.056000
      8 CAT         6.0420    0.8410    2.0200 ca        1 57Z     -0.084300
      9 CAA         7.4300    1.3000    2.2580 c3        1 57Z     -0.061800
     10 CAL         5.5710    0.6020    0.7410 ca        1 57Z     -0.070000
     11 CAZ         4.2470    0.1650    0.5300 ca        1 57Z     -0.152800
     12 CAM         3.7470   -0.0690   -0.7910 cc        1 57Z      0.073800
     13 CAX         2.4620   -0.4790   -0.9870 cd        1 57Z     -0.304400
     14 CAP         1.8660   -0.6000   -2.3460 c3        1 57Z      0.197000
     15 NBB         1.1790   -1.9300   -2.5860 n4        1 57Z     -0.549200
     16 CAO        -0.2830   -1.7200   -2.8210 c3        1 57Z      0.076800
     17 CAN        -0.6680   -0.9470   -4.0840 c3        1 57Z      0.117400
     18 OAD        -0.9590   -1.9080   -5.0840 oh        1 57Z     -0.632800
     19 CAS         1.9640   -2.7960   -3.5890 c         1 57Z      0.334400
     20 SAF         3.5360   -2.6820   -3.5020 s         1 57Z     -0.310400
     21 NAQ         1.2170   -3.6320   -4.3600 n         1 57Z     -0.335100
     22 CAW         1.7580   -4.4510   -5.3890 ca        1 57Z     -0.059400
     23 CAI         2.9630   -5.1680   -5.2340 ca        1 57Z     -0.075500
     24 CAG         3.4140   -6.0020   -6.2470 ca        1 57Z     -0.174500
     25 CAU         2.6670   -6.1280   -7.4320 ca        1 57Z      0.163100
     26 OAE         3.1760   -6.9660   -8.3850 oh        1 57Z     -0.473100
     27 CAH         1.4670   -5.4170   -7.5970 ca        1 57Z     -0.174500
     28 CAJ         1.0160   -4.5830   -6.5850 ca        1 57Z     -0.075500
     29 H1          1.4870   -0.6390    2.2200 hn        1 57Z      0.354500
     30 H2          2.6630   -1.0450    4.2170 hc        1 57Z      0.057700
     31 H3          3.5440    0.2720    5.0880 hc        1 57Z      0.057700
     32 H4          2.0970    0.6780    4.0820 hc        1 57Z      0.057700
     33 H5          5.5670    0.8420    4.1350 ha        1 57Z      0.156000
     34 H6          7.9930    1.4120    1.2990 hc        1 57Z      0.058033
     35 H7          7.4250    2.2890    2.7820 hc        1 57Z      0.058033
     36 H8          7.9740    0.5660    2.9040 hc        1 57Z      0.058033
     37 H9          6.2270    0.7510   -0.1320 ha        1 57Z      0.149000
     38 H10         4.4290    0.1030   -1.6430 ha        1 57Z      0.159000
     39 H11         1.0840    0.2080   -2.4660 hx        1 57Z      0.110700
     40 H12         2.6620   -0.4490   -3.1350 hx        1 57Z      0.110700
     41 H13        -0.6650   -1.1500   -1.9150 hx        1 57Z      0.126700
     42 H14        -0.8040   -2.7220   -2.8180 hx        1 57Z      0.126700
     43 H15        -1.5810   -0.3330   -3.8530 h1        1 57Z      0.064200
     44 H16         0.1510   -0.2670   -4.4440 h1        1 57Z      0.064200
     45 H17        -1.4410   -1.4600   -5.7910 ho        1 57Z      0.444000
     46 H18         0.2170   -3.5350   -4.4160 hn        1 57Z      0.354500
     47 H19         3.5630   -5.0720   -4.3120 ha        1 57Z      0.156000
     48 H20         4.3530   -6.5660   -6.1350 ha        1 57Z      0.164500
     49 H21         2.5760   -6.9680   -9.1480 ho        1 57Z      0.435000
     50 H22         0.8860   -5.5190   -8.5270 ha        1 57Z      0.164500
     51 H23         0.0730   -4.0280   -6.7240 ha        1 57Z      0.156000
     52 HBB1        1.2290   -2.4550   -1.6900 hn        1 57Z      0.477800
@<TRIPOS>BOND
     1    1    2 2   
     2    2    3 1   
     3    2   13 1   
     4    3    4 1   
     5    3   29 1   
     6    4    5 ar  
     7    4   11 ar  
     8    5    6 1   
     9    5    7 ar  
    10    6   30 1   
    11    6   31 1   
    12    6   32 1   
    13    7    8 ar  
    14    7   33 1   
    15    8    9 1   
    16    8   10 ar  
    17    9   34 1   
    18    9   35 1   
    19    9   36 1   
    20   10   11 ar  
    21   10   37 1   
    22   11   12 1   
    23   12   13 2   
    24   12   38 1   
    25   13   14 1   
    26   14   15 1   
    27   14   39 1   
    28   14   40 1   
    29   15   16 1   
    30   15   19 1   
    31   15   52 1   
    32   16   17 1   
    33   16   41 1   
    34   16   42 1   
    35   17   18 1   
    36   17   43 1   
    37   17   44 1   
    38   18   45 1   
    39   19   20 2   
    40   19   21 1   
    41   21   22 1   
    42   21   46 1   
    43   22   23 ar  
    44   22   28 ar  
    45   23   24 ar  
    46   23   47 1   
    47   24   25 ar  
    48   24   48 1   
    49   25   26 1   
    50   25   27 ar  
    51   26   49 1   
    52   27   28 ar  
    53   27   50 1   
    54   28   51 1   
@<TRIPOS>SUBSTRUCTURE
     1 57Z         1 TEMP              0 ****  ****    0 ROOT
