@<TRIPOS>MOLECULE
580
   38    41     1     0     0
SMALL
bcc


@<TRIPOS>ATOM
      1 C1         -0.3130   -0.0150   -1.0280 cc        1 580     -0.144300
      2 C2          1.1400   -0.0010   -0.8710 cc        1 580      0.250300
      3 N3          1.7630    0.1230   -2.0900 nd        1 580     -0.469800
      4 N4          0.7880    0.1870   -2.9830 na        1 580      0.085400
      5 C5         -0.5050    0.1130   -2.4110 cd        1 580     -0.115600
      6 C6          0.7430    0.3180   -4.4320 c3        1 580      0.056300
      7 C7         -0.7690    0.3210   -4.7800 c3        1 580     -0.098400
      8 C8         -1.5550    0.1870   -3.4580 c3        1 580     -0.010100
      9 C15         1.8930   -0.0750    0.3870 ca        1 580      0.386300
     10 C16        -1.3250   -0.1520   -0.0110 ca        1 580      0.002000
     11 C17        -2.4940    0.6220   -0.0720 ca        1 580     -0.091500
     12 C18        -3.4880    0.4910    0.8910 ca        1 580     -0.166500
     13 C19        -3.3190   -0.4320    1.9390 ca        1 580      0.118900
     14 C20        -2.1520   -1.2140    2.0110 ca        1 580     -0.166500
     15 C21        -1.1680   -1.0680    1.0400 ca        1 580     -0.091500
     16 C26         3.0090   -0.9390    0.4600 ca        1 580     -0.228300
     17 C27         3.7250   -1.0010    1.6550 ca        1 580     -0.097000
     18 C28         3.3200   -0.2140    2.7300 ca        1 580     -0.248300
     19 C29         2.1950    0.6280    2.5760 ca        1 580      0.412600
     20 N30         1.4890    0.7010    1.4220 nb        1 580     -0.650000
     21 F34        -4.2840   -0.5680    2.8810 f         1 580     -0.144900
     22 C35         1.7720    1.4840    3.7280 c3        1 580     -0.148400
     23 H61         1.2410    1.2740   -4.7470 h1        1 580      0.068700
     24 H62         1.2750   -0.5450   -4.9130 h1        1 580      0.068700
     25 H71        -1.0350    1.2730   -5.2990 hc        1 580      0.060700
     26 H72        -1.0020   -0.5310   -5.4620 hc        1 580      0.060700
     27 H81        -2.2210    1.0700   -3.2930 hc        1 580      0.069700
     28 H82        -2.1880   -0.7360   -3.4560 hc        1 580      0.069700
     29 H17        -2.6210    1.3470   -0.8900 ha        1 580      0.138500
     30 H18        -4.4010    1.1020    0.8450 ha        1 580      0.145500
     31 H20        -2.0280   -1.9320    2.8340 ha        1 580      0.145500
     32 H21        -0.2510   -1.6750    1.0970 ha        1 580      0.138500
     33 H26         3.3040   -1.5410   -0.4100 ha        1 580      0.153000
     34 H27         4.5990   -1.6620    1.7450 ha        1 580      0.137000
     35 H28         3.8630   -0.2400    3.6840 ha        1 580      0.141000
     36 H351        1.9640    2.5610    3.4950 hc        1 580      0.053367
     37 H352        0.6800    1.3610    3.9370 hc        1 580      0.053367
     38 H353        2.3450    1.2070    4.6450 hc        1 580      0.053367
@<TRIPOS>BOND
     1    1    2 1   
     2    1    5 2   
     3    1   10 1   
     4    2    3 2   
     5    2    9 1   
     6    3    4 1   
     7    4    5 1   
     8    4    6 1   
     9    5    8 1   
    10    6    7 1   
    11    6   23 1   
    12    6   24 1   
    13    7    8 1   
    14    7   25 1   
    15    7   26 1   
    16    8   27 1   
    17    8   28 1   
    18    9   16 ar  
    19    9   20 ar  
    20   10   11 ar  
    21   10   15 ar  
    22   11   12 ar  
    23   11   29 1   
    24   12   13 ar  
    25   12   30 1   
    26   13   14 ar  
    27   13   21 1   
    28   14   15 ar  
    29   14   31 1   
    30   15   32 1   
    31   16   17 ar  
    32   16   33 1   
    33   17   18 ar  
    34   17   34 1   
    35   18   19 ar  
    36   18   35 1   
    37   19   20 ar  
    38   19   22 1   
    39   22   36 1   
    40   22   37 1   
    41   22   38 1   
@<TRIPOS>SUBSTRUCTURE
     1 580         1 TEMP              0 ****  ****    0 ROOT
