@<TRIPOS>MOLECULE
580
   38    41     1     0     0
SMALL
bcc


@<TRIPOS>ATOM
      1 C1         -0.1250   -0.0580   -0.0960 cc        1 580     -0.144300
      2 C2          1.3360   -0.0210   -0.0780 cc        1 580      0.250300
      3 N3          1.8140   -0.1100    1.2080 nd        1 580     -0.469800
      4 N4          0.7420   -0.2000    1.9790 na        1 580      0.085400
      5 C5         -0.4750   -0.1780    1.2570 cd        1 580     -0.115600
      6 C6          0.5290   -0.3170    3.4150 c3        1 580      0.056300
      7 C7         -1.0130   -0.3710    3.5810 c3        1 580     -0.098400
      8 C8         -1.6390   -0.2790    2.1730 c3        1 580     -0.010100
      9 C15         2.2310    0.0670   -1.2380 ca        1 580      0.386300
     10 C16        -1.0120    0.0310   -1.2270 ca        1 580      0.002000
     11 C17        -2.1520   -0.7840   -1.2940 ca        1 580     -0.091500
     12 C18        -3.0280   -0.7000   -2.3700 ca        1 580     -0.166500
     13 C19        -2.7680    0.2180   -3.4040 ca        1 580      0.118900
     14 C20        -1.6290    1.0410   -3.3480 ca        1 580     -0.166500
     15 C21        -0.7630    0.9410   -2.2660 ca        1 580     -0.091500
     16 C26         3.3170    0.9700   -1.1910 ca        1 580     -0.228300
     17 C27         4.1670    1.0460   -2.2940 ca        1 580     -0.097000
     18 C28         3.9210    0.2330   -3.3980 ca        1 580     -0.248300
     19 C29         2.8160   -0.6480   -3.3660 ca        1 580      0.412600
     20 N30         1.9810   -0.7340   -2.3030 nb        1 580     -0.650000
     21 F34        -3.6180    0.3090   -4.4560 f         1 580     -0.144900
     22 C35         2.5640   -1.5300   -4.5470 c3        1 580     -0.148400
     23 H61         1.0180   -1.2500    3.8010 h1        1 580      0.068700
     24 H62         0.9690    0.5710    3.9430 h1        1 580      0.068700
     25 H71        -1.3060   -1.3260    4.0790 hc        1 580      0.060700
     26 H72        -1.3550    0.4790    4.2180 hc        1 580      0.060700
     27 H81        -2.2990    0.6200    2.0820 hc        1 580      0.069700
     28 H82        -2.2510   -1.1880    1.9430 hc        1 580      0.069700
     29 H17        -2.3510   -1.5050   -0.4860 ha        1 580      0.138500
     30 H18        -3.9180   -1.3430   -2.4240 ha        1 580      0.145500
     31 H20        -1.4320    1.7540   -4.1610 ha        1 580      0.145500
     32 H21         0.1330    1.5800   -2.2230 ha        1 580      0.138500
     33 H26         3.4840    1.5910   -0.3010 ha        1 580      0.153000
     34 H27         5.0220    1.7380   -2.2890 ha        1 580      0.137000
     35 H28         4.5730    0.2690   -4.2810 ha        1 580      0.141000
     36 H351        3.2270   -1.2360   -5.3970 hc        1 580      0.053367
     37 H352        1.4990   -1.4570   -4.8810 hc        1 580      0.053367
     38 H353        2.7740   -2.5960   -4.2790 hc        1 580      0.053367
@<TRIPOS>BOND
     1    1    2 1   
     2    1    5 2   
     3    1   10 1   
     4    2    3 2   
     5    2    9 1   
     6    3    4 1   
     7    4    5 1   
     8    4    6 1   
     9    5    8 1   
    10    6    7 1   
    11    6   23 1   
    12    6   24 1   
    13    7    8 1   
    14    7   25 1   
    15    7   26 1   
    16    8   27 1   
    17    8   28 1   
    18    9   16 ar  
    19    9   20 ar  
    20   10   11 ar  
    21   10   15 ar  
    22   11   12 ar  
    23   11   29 1   
    24   12   13 ar  
    25   12   30 1   
    26   13   14 ar  
    27   13   21 1   
    28   14   15 ar  
    29   14   31 1   
    30   15   32 1   
    31   16   17 ar  
    32   16   33 1   
    33   17   18 ar  
    34   17   34 1   
    35   18   19 ar  
    36   18   35 1   
    37   19   20 ar  
    38   19   22 1   
    39   22   36 1   
    40   22   37 1   
    41   22   38 1   
@<TRIPOS>SUBSTRUCTURE
     1 580         1 TEMP              0 ****  ****    0 ROOT
