@<TRIPOS>MOLECULE
580
   38    41     1     0     0
SMALL
bcc


@<TRIPOS>ATOM
      1 C1         -0.1280   -0.0470   -0.0990 cc        1 580     -0.144300
      2 C2          1.3330   -0.0380   -0.0730 cc        1 580      0.250300
      3 N3          1.8010   -0.1350    1.2160 nd        1 580     -0.469800
      4 N4          0.7230   -0.2030    1.9810 na        1 580      0.085400
      5 C5         -0.4890   -0.1600    1.2520 cd        1 580     -0.115600
      6 C6          0.5000   -0.3150    3.4160 c3        1 580      0.056300
      7 C7         -1.0440   -0.3400    3.5730 c3        1 580     -0.098400
      8 C8         -1.6600   -0.2370    2.1610 c3        1 580     -0.010100
      9 C15         2.2360    0.0310   -1.2280 ca        1 580      0.386300
     10 C16        -1.0070    0.0580   -1.2350 ca        1 580      0.002000
     11 C17        -2.1630   -0.7350   -1.3080 ca        1 580     -0.091500
     12 C18        -3.0310   -0.6340   -2.3890 ca        1 580     -0.166500
     13 C19        -2.7470    0.2770   -3.4230 ca        1 580      0.118900
     14 C20        -1.5910    1.0770   -3.3610 ca        1 580     -0.166500
     15 C21        -0.7340    0.9620   -2.2730 ca        1 580     -0.091500
     16 C26         3.3390    0.9140   -1.1750 ca        1 580     -0.228300
     17 C27         4.1970    0.9710   -2.2730 ca        1 580     -0.097000
     18 C28         3.9420    0.1620   -3.3770 ca        1 580     -0.248300
     19 C29         2.8200   -0.6980   -3.3510 ca        1 580      0.412600
     20 N30         1.9770   -0.7660   -2.2930 nb        1 580     -0.650000
     21 F34        -3.5880    0.3830   -4.4800 f         1 580     -0.144900
     22 C35         2.5570   -1.5760   -4.5330 c3        1 580     -0.148400
     23 H61         0.9690   -1.2580    3.8050 h1        1 580      0.068700
     24 H62         0.9540    0.5640    3.9460 h1        1 580      0.068700
     25 H71        -1.3580   -1.2880    4.0690 hc        1 580      0.060700
     26 H72        -1.3730    0.5180    4.2070 hc        1 580      0.060700
     27 H81        -2.3020    0.6740    2.0660 hc        1 580      0.069700
     28 H82        -2.2870   -1.1340    1.9290 hc        1 580      0.069700
     29 H17        -2.3800   -1.4510   -0.5010 ha        1 580      0.138500
     30 H18        -3.9330   -1.2600   -2.4480 ha        1 580      0.145500
     31 H20        -1.3760    1.7860   -4.1740 ha        1 580      0.145500
     32 H21         0.1730    1.5830   -2.2260 ha        1 580      0.138500
     33 H26         3.5130    1.5320   -0.2850 ha        1 580      0.153000
     34 H27         5.0650    1.6470   -2.2640 ha        1 580      0.137000
     35 H28         4.5990    0.1850   -4.2560 ha        1 580      0.141000
     36 H351        2.7350   -2.6460   -4.2600 hc        1 580      0.053367
     37 H352        1.4990   -1.4740   -4.8790 hc        1 580      0.053367
     38 H353        3.2380   -1.3030   -5.3750 hc        1 580      0.053367
@<TRIPOS>BOND
     1    1    2 1   
     2    1    5 2   
     3    1   10 1   
     4    2    3 2   
     5    2    9 1   
     6    3    4 1   
     7    4    5 1   
     8    4    6 1   
     9    5    8 1   
    10    6    7 1   
    11    6   23 1   
    12    6   24 1   
    13    7    8 1   
    14    7   25 1   
    15    7   26 1   
    16    8   27 1   
    17    8   28 1   
    18    9   16 ar  
    19    9   20 ar  
    20   10   11 ar  
    21   10   15 ar  
    22   11   12 ar  
    23   11   29 1   
    24   12   13 ar  
    25   12   30 1   
    26   13   14 ar  
    27   13   21 1   
    28   14   15 ar  
    29   14   31 1   
    30   15   32 1   
    31   16   17 ar  
    32   16   33 1   
    33   17   18 ar  
    34   17   34 1   
    35   18   19 ar  
    36   18   35 1   
    37   19   20 ar  
    38   19   22 1   
    39   22   36 1   
    40   22   37 1   
    41   22   38 1   
@<TRIPOS>SUBSTRUCTURE
     1 580         1 TEMP              0 ****  ****    0 ROOT
