@<TRIPOS>MOLECULE
580
   38    33     1     0     0
SMALL
bcc


@<TRIPOS>ATOM
      1 C1         -0.5420   -0.0510    0.7850 c2        1 580     -0.085000
      2 C2          0.8540   -0.0460    0.7450 c2        1 580     -0.078000
      3 N3          1.3150   -0.0130    2.0350 n2        1 580     -0.038000
      4 N4          0.2280    0.0020    2.8760 n2        1 580     -0.130000
      5 C5         -0.9260   -0.0220    2.0890 c1        1 580     -0.083000
      6 C6         -0.1810   -0.1160    4.3000 c2        1 580     -0.049000
      7 C7         -1.6390    0.0090    4.3670 c3        1 580     -0.177000
      8 C8         -2.1280    0.0750    3.0110 c2        1 580     -0.049000
      9 C15         1.6460   -0.2000   -0.4120 c1        1 580      0.066000
     10 C16        -1.3970   -0.0760   -0.3250 c1        1 580     -0.018000
     11 C17        -1.7810    1.1130   -0.9330 c1        1 580     -0.129500
     12 C18        -2.5970    1.0880   -2.0600 c1        1 580     -0.129500
     13 C19        -3.0310   -0.1280   -2.5790 c1        1 580      0.089000
     14 C20        -2.6490   -1.3170   -1.9730 c1        1 580     -0.175000
     15 C21        -1.8290   -1.2910   -0.8430 c1        1 580     -0.095000
     16 C26         2.1030   -1.4640   -0.7900 c1        1 580     -0.160000
     17 C27         2.9630   -1.5920   -1.8470 c1        1 580     -0.129500
     18 C28         3.3740   -0.4830   -2.5330 c1        1 580     -0.129500
     19 C29         2.9170    0.7780   -2.1540 c1        1 580     -0.009000
     20 N30         2.0560    0.9070   -1.0970 n1        1 580     -0.134000
     21 F34        -3.7930   -0.1530   -3.6850 f         1 580     -0.111000
     22 C35         3.3400    2.0020   -2.9410 c3        1 580     -0.172000
     23 H61         0.0950   -0.9940    4.6540 ha        1 580      0.108750
     24 H62         0.2340    0.5950    4.8220 ha        1 580      0.108750
     25 H71        -1.8570    0.8380    4.8140 hc        1 580      0.099500
     26 H72        -2.0120   -0.8110    4.8000 hc        1 580      0.099500
     27 H81        -2.6970   -0.6850    2.8520 ha        1 580      0.108750
     28 H82        -2.5660    0.9620    2.8720 ha        1 580      0.108750
     29 H17        -1.4800    1.9590   -0.5730 ha        1 580      0.145250
     30 H18        -2.8670    1.9250   -2.4870 ha        1 580      0.145250
     31 H20        -2.9540   -2.1740   -2.3380 ha        1 580      0.145000
     32 H21        -1.5650   -2.1160   -0.4210 ha        1 580      0.137000
     33 H26         1.8090   -2.2560   -0.3010 ha        1 580      0.153000
     34 H27         3.2880   -2.4910   -2.1140 ha        1 580      0.145250
     35 H28         3.9840   -0.5730   -3.2820 ha        1 580      0.145250
     36 H351        4.2980    2.1290   -2.8510 hc        1 580      0.092000
     37 H352        3.1140    1.8770   -3.8890 hc        1 580      0.092000
     38 H353        2.8720    2.7920   -2.5950 hc        1 580      0.092000
@<TRIPOS>BOND
     1    1    2 1   
     2    1    5 1   
     3    1   10 1   
     4    2    3 1   
     5    2    9 1   
     6    3    4 1   
     7    4    5 1   
     8    6    7 1   
     9    6   23 1   
    10    6   24 1   
    11    7    8 1   
    12    7   25 1   
    13    7   26 1   
    14    8   27 1   
    15    8   28 1   
    16    9   16 1   
    17   10   15 1   
    18   11   12 1   
    19   11   29 1   
    20   12   30 1   
    21   13   14 1   
    22   13   21 1   
    23   14   31 1   
    24   15   32 1   
    25   16   33 1   
    26   17   18 1   
    27   17   34 1   
    28   18   35 1   
    29   19   20 1   
    30   19   22 1   
    31   22   36 1   
    32   22   37 1   
    33   22   38 1   
@<TRIPOS>SUBSTRUCTURE
     1 580         1 TEMP              0 ****  ****    0 ROOT
