@<TRIPOS>MOLECULE
581
   31    32     1     0     0
SMALL
bcc


@<TRIPOS>ATOM
      1 O5          0.2030    1.0230    0.2220 o         1 581     -0.607100
      2 C12         1.3140    0.4830    0.0570 c         1 581      0.664100
      3 C13         2.3480    0.4960    1.1640 c3        1 581     -0.179100
      4 N3          1.6920   -0.1530   -1.1120 n         1 581     -0.467100
      5 C3          0.9360   -0.3260   -2.2850 ca        1 581      0.053600
      6 C2         -0.4280    0.0160   -2.3840 ca        1 581     -0.155000
      7 C1         -1.1130   -0.2150   -3.5740 ca        1 581     -0.119000
      8 C4          1.5870   -0.8830   -3.4130 ca        1 581     -0.135000
      9 C5          0.8820   -1.1020   -4.5970 ca        1 581     -0.081900
     10 C6         -0.4770   -0.7750   -4.6780 ca        1 581     -0.150000
     11 C7          1.5990   -1.6980   -5.7570 cc        1 581      0.435500
     12 N2          1.2690   -1.2030   -7.0290 n         1 581     -0.480400
     13 C10         1.8780   -1.7230   -8.1800 c         1 581      0.680700
     14 O1          1.5410   -1.2570   -9.2870 o         1 581     -0.660500
     15 C9          2.8770   -2.7820   -7.9290 cc        1 581      0.013900
     16 O2          3.4390   -3.2720   -9.0700 oh        1 581     -0.507100
     17 C8          3.1760   -3.1770   -6.6350 cd        1 581     -0.005600
     18 N1          2.5070   -2.6420   -5.5480 nd        1 581     -0.534300
     19 C11         4.2830   -4.2230   -6.3750 c         1 581      0.938800
     20 O3          4.9920   -4.1180   -5.3480 o         1 581     -0.806800
     21 O4          4.4180   -5.1090   -7.2700 o         1 581     -0.806800
     22 H1          2.6060   -0.5460    1.4710 hc        1 581      0.065367
     23 H2          1.9210    1.0390    2.0420 hc        1 581      0.065367
     24 H3          3.2750    1.0190    0.8290 hc        1 581      0.065367
     25 H4          2.6090   -0.5450   -1.1400 hn        1 581      0.323500
     26 H5         -0.9600    0.4610   -1.5280 ha        1 581      0.165000
     27 H6         -2.1800    0.0450   -3.6350 ha        1 581      0.127000
     28 H7          2.6520   -1.1670   -3.3620 ha        1 581      0.167000
     29 H8         -1.0510   -0.9740   -5.5940 ha        1 581      0.135000
     30 H9          3.9800   -4.0570   -8.8300 ho        1 581      0.478000
     31 H12         0.5960   -0.4780   -7.1200 hn        1 581      0.317500
@<TRIPOS>BOND
     1    1    2 2   
     2    2    3 1   
     3    2    4 1   
     4    3   22 1   
     5    3   23 1   
     6    3   24 1   
     7    4    5 1   
     8    4   25 1   
     9    5    6 ar  
    10    5    8 ar  
    11    6    7 ar  
    12    6   26 1   
    13    7   10 ar  
    14    7   27 1   
    15    8    9 ar  
    16    8   28 1   
    17    9   10 ar  
    18    9   11 1   
    19   10   29 1   
    20   11   12 1   
    21   11   18 2   
    22   12   13 1   
    23   12   31 1   
    24   13   14 2   
    25   13   15 1   
    26   15   16 1   
    27   15   17 2   
    28   16   30 1   
    29   17   18 1   
    30   17   19 1   
    31   19   20 1   
    32   19   21 1   
@<TRIPOS>SUBSTRUCTURE
     1 581         1 TEMP              0 ****  ****    0 ROOT
