@<TRIPOS>MOLECULE
581
   31    28     1     0     0
SMALL
bcc


@<TRIPOS>ATOM
      1 O5          3.8610    1.9970    1.2440 o         1 581     -0.367000
      2 C12         3.2580    1.7940    2.2790 c1        1 581      0.308000
      3 C13         4.0100    1.7130    3.5870 c2        1 581     -0.247000
      4 N3          1.8580    1.5800    2.2520 n3        1 581     -0.322000
      5 C3          1.1600    1.6030    1.0190 c2        1 581      0.062000
      6 C2          1.2850    2.6940    0.1730 c2        1 581     -0.154000
      7 C1          0.6440    2.6950   -1.0550 c1        1 581     -0.118000
      8 C4          0.3960    0.5140    0.6350 c1        1 581     -0.135000
      9 C5         -0.2450    0.5150   -0.5940 c1        1 581      0.004000
     10 C6         -0.1200    1.6050   -1.4390 c1        1 581     -0.150000
     11 C7         -1.0230   -0.7000   -1.0390 c2        1 581      0.055000
     12 N2         -0.3940   -1.6910   -1.9100 n         1 581     -0.321000
     13 C10        -1.1480   -2.7880   -2.3980 c2        1 581      0.319000
     14 O1         -0.6710   -3.5280   -3.2350 o         1 581     -0.385000
     15 C9         -2.5380   -2.9730   -1.9600 c2        1 581     -0.007000
     16 O2         -3.3040   -4.0290   -2.4780 oh        1 581     -0.262000
     17 C8         -3.1470   -2.0080   -1.0340 c1        1 581     -0.129000
     18 N1         -2.3840   -0.9150   -0.5500 n1        1 581     -0.104000
     19 C11        -4.6100   -2.1280   -0.6700 c2        1 581      0.387000
     20 O3         -4.9470   -2.6830    0.4090 o         1 581     -0.540500
     21 O4         -5.4920   -1.6870   -1.4530 o         1 581     -0.540500
     22 H1          4.9730    1.6910    3.4100 ha        1 581      0.104333
     23 H2          3.7960    2.4960    4.1360 ha        1 581      0.104333
     24 H3          3.7480    0.8980    4.0650 ha        1 581      0.104333
     25 H4          1.4050    1.4270    3.0290 hn        1 581      0.235000
     26 H5          1.8240    3.4630    0.4440 ha        1 581      0.165000
     27 H6          0.7320    3.4640   -1.6510 ha        1 581      0.127000
     28 H7          0.2990   -0.2500    1.2360 ha        1 581      0.163000
     29 H8         -0.5530    1.5960   -2.3140 ha        1 581      0.135000
     30 H9         -3.1580   -4.7650   -1.9990 ho        1 581      0.279000
     31 H12         0.4840   -1.6030   -2.1410 hn        1 581      0.231000
@<TRIPOS>BOND
     1    1    2 1   
     2    2    4 1   
     3    3   22 1   
     4    3   23 1   
     5    3   24 1   
     6    4    5 1   
     7    4   25 1   
     8    5    6 1   
     9    5    8 1   
    10    6    7 1   
    11    6   26 1   
    12    7   27 1   
    13    8   28 1   
    14    9   10 1   
    15    9   11 1   
    16   10   29 1   
    17   11   12 1   
    18   11   18 1   
    19   12   13 1   
    20   12   31 1   
    21   13   14 1   
    22   13   15 1   
    23   15   16 1   
    24   15   17 1   
    25   16   30 1   
    26   17   19 1   
    27   19   20 1   
    28   19   21 1   
@<TRIPOS>SUBSTRUCTURE
     1 581         1 TEMP              0 ****  ****    0 ROOT
