@<TRIPOS>MOLECULE
581
   32    33     1     0     0
SMALL
bcc


@<TRIPOS>ATOM
      1 O5          1.2000   -1.2240    0.0820 o         1 581     -0.435100
      2 C12         1.9540   -0.7560   -0.7540 c         1 581      0.589100
      3 C13         3.1710   -1.3260   -1.3720 c3        1 581     -0.215100
      4 N3          1.5440    0.6830   -1.1820 n4        1 581     -0.563200
      5 C3          0.7940    0.6420   -2.4370 ca        1 581     -0.060400
      6 C2         -0.5650    0.9970   -2.5120 ca        1 581     -0.109000
      7 C1         -1.2480    0.7670   -3.7050 ca        1 581     -0.110000
      8 C4          1.4520    0.1350   -3.5610 ca        1 581     -0.071000
      9 C5          0.7010   -0.2680   -4.6810 ca        1 581     -0.070900
     10 C6         -0.6420    0.0970   -4.7740 ca        1 581     -0.078000
     11 C7          1.3800   -1.2790   -5.5290 cc        1 581      0.404500
     12 N2          1.1770   -1.3820   -6.9050 n         1 581     -0.472400
     13 C10         1.8560   -2.3820   -7.6330 c         1 581      0.676700
     14 O1          1.6480   -2.4550   -8.8550 o         1 581     -0.609500
     15 C9          2.7710   -3.2510   -6.8410 cc        1 581      0.075900
     16 O2          3.4140   -4.1750   -7.5900 oh        1 581     -0.480100
     17 C8          2.9060   -3.0610   -5.4740 cd        1 581     -0.051600
     18 N1          2.1750   -2.0880   -4.8390 nd        1 581     -0.561300
     19 C11         3.8830   -3.8590   -4.5820 c         1 581      0.955800
     20 O3          4.0310   -3.5000   -3.3830 o         1 581     -0.808800
     21 O4          4.4840   -4.8140   -5.1410 o         1 581     -0.808800
     22 H1          2.9230   -2.0370   -2.2370 hc        1 581      0.146700
     23 H2          3.6910   -1.9640   -0.6070 hc        1 581      0.146700
     24 H3          3.8790   -0.5570   -1.7610 hc        1 581      0.146700
     25 H4          0.9590    1.0990   -0.4500 hn        1 581      0.446300
     26 H5         -1.0950    1.4290   -1.6500 ha        1 581      0.148000
     27 H6         -2.3050    1.0710   -3.7850 ha        1 581      0.158000
     28 H7          2.5440   -0.0430   -3.5450 ha        1 581      0.181000
     29 H8         -1.2350   -0.1730   -5.6620 ha        1 581      0.163000
     30 H9          3.9920   -4.7130   -6.9990 ho        1 581      0.494000
     31 H12         0.5750   -0.7530   -7.3810 hn        1 581      0.325500
     32 H32         2.3870    1.2490   -1.3090 hn        1 581      0.446300
@<TRIPOS>BOND
     1    1    2 2   
     2    2    3 1   
     3    2    4 1   
     4    3   22 1   
     5    3   23 1   
     6    3   24 1   
     7    4    5 1   
     8    4   25 1   
     9    4   32 1   
    10    5    6 ar  
    11    5    8 ar  
    12    6    7 ar  
    13    6   26 1   
    14    7   10 ar  
    15    7   27 1   
    16    8    9 ar  
    17    8   28 1   
    18    9   10 ar  
    19    9   11 1   
    20   10   29 1   
    21   11   12 1   
    22   11   18 2   
    23   12   13 1   
    24   12   31 1   
    25   13   14 2   
    26   13   15 1   
    27   15   16 1   
    28   15   17 2   
    29   16   30 1   
    30   17   18 1   
    31   17   19 1   
    32   19   20 1   
    33   19   21 1   
@<TRIPOS>SUBSTRUCTURE
     1 581         1 TEMP              0 ****  ****    0 ROOT
