@<TRIPOS>MOLECULE
581
   31    32     1     0     0
SMALL
bcc


@<TRIPOS>ATOM
      1 O5          5.8660   -0.1730   -0.0160 o         1 581     -0.606100
      2 C12         5.1860    0.8630   -0.1480 c         1 581      0.665100
      3 C13         5.8560    2.1990   -0.3890 c3        1 581     -0.179100
      4 N3          3.8030    0.8840   -0.0910 n         1 581     -0.468100
      5 C3          2.9320   -0.1970    0.1300 ca        1 581      0.054600
      6 C2          3.3730   -1.4850    0.4930 ca        1 581     -0.152000
      7 C1          2.4430   -2.4960    0.7230 ca        1 581     -0.119000
      8 C4          1.5410    0.0370   -0.0080 ca        1 581     -0.132000
      9 C5          0.6280   -0.9910    0.2230 ca        1 581     -0.089900
     10 C6          1.0770   -2.2630    0.5980 ca        1 581     -0.147000
     11 C7         -0.8260   -0.7050    0.0750 cc        1 581      0.461500
     12 N2         -1.6050   -1.7010   -0.5320 n         1 581     -0.468400
     13 C10        -2.9730   -1.4860   -0.7400 c         1 581      0.651700
     14 O1         -3.6660   -2.4010   -1.2440 o         1 581     -0.700500
     15 C9         -3.4850   -0.1820   -0.3010 cc        1 581     -0.066100
     16 O2         -4.7930    0.1140   -0.6020 oh        1 581     -0.462100
     17 C8         -2.6550    0.7340    0.3200 cd        1 581      0.108400
     18 N1         -1.3110    0.4560    0.5020 nd        1 581     -0.561300
     19 C11        -3.1630    2.1150    0.8300 c         1 581      0.955800
     20 O3         -2.9520    3.0950    0.0770 o         1 581     -0.794800
     21 O4         -3.7270    2.1120    1.9500 o         1 581     -0.794800
     22 H1          6.9620    2.0410   -0.4170 hc        1 581      0.065700
     23 H2          5.5270    2.6340   -1.3630 hc        1 581      0.065700
     24 H3          5.6120    2.9140    0.4330 hc        1 581      0.065700
     25 H4          3.3570    1.7670   -0.2210 hn        1 581      0.322500
     26 H5          4.4480   -1.7030    0.6000 ha        1 581      0.166000
     27 H6          2.8010   -3.4940    1.0160 ha        1 581      0.128000
     28 H7          1.1650    1.0380   -0.2830 ha        1 581      0.166000
     29 H8          0.3630   -3.0710    0.8140 ha        1 581      0.136000
     30 H9         -5.2890   -0.7150   -0.5050 ho        1 581      0.410000
     31 H12        -1.1850   -2.5440   -0.8450 hn        1 581      0.318500
@<TRIPOS>BOND
     1    1    2 2   
     2    2    3 1   
     3    2    4 1   
     4    3   22 1   
     5    3   23 1   
     6    3   24 1   
     7    4    5 1   
     8    4   25 1   
     9    5    6 ar  
    10    5    8 ar  
    11    6    7 ar  
    12    6   26 1   
    13    7   10 ar  
    14    7   27 1   
    15    8    9 ar  
    16    8   28 1   
    17    9   10 ar  
    18    9   11 1   
    19   10   29 1   
    20   11   12 1   
    21   11   18 2   
    22   12   13 1   
    23   12   31 1   
    24   13   14 2   
    25   13   15 1   
    26   15   16 1   
    27   15   17 2   
    28   16   30 1   
    29   17   18 1   
    30   17   19 1   
    31   19   20 1   
    32   19   21 1   
@<TRIPOS>SUBSTRUCTURE
     1 581         1 TEMP              0 ****  ****    0 ROOT
