@<TRIPOS>MOLECULE
581
   31    32     1     0     0
SMALL
bcc


@<TRIPOS>ATOM
      1 O5          0.1020    0.8210    0.2810 o         1 581     -0.606100
      2 C12         1.1200    0.1120    0.1670 c         1 581      0.664100
      3 C13         1.9550   -0.2370    1.3810 c3        1 581     -0.179100
      4 N3          1.5630   -0.4060   -1.0380 ns        1 581     -0.468100
      5 C3          0.9970   -0.2290   -2.3130 ca        1 581      0.054600
      6 C2         -0.0520    0.6750   -2.5750 ca        1 581     -0.154000
      7 C1         -0.5340    0.8150   -3.8740 ca        1 581     -0.118000
      8 C4          1.5260   -0.9940   -3.3820 ca        1 581     -0.135000
      9 C5          1.0250   -0.8410   -4.6750 ca        1 581     -0.079900
     10 C6         -0.0050    0.0740   -4.9260 ca        1 581     -0.150000
     11 C7          1.6120   -1.6530   -5.7750 cc        1 581      0.433500
     12 N2          0.7240   -2.1280   -6.7540 ns        1 581     -0.481400
     13 C10         1.1860   -2.9210   -7.8140 c         1 581      0.680700
     14 O1          0.3570   -3.3170   -8.6580 o         1 581     -0.660500
     15 C9          2.6380   -3.1970   -7.7980 cc        1 581      0.017900
     16 O2          3.0420   -3.9870   -8.8320 oh        1 581     -0.507100
     17 C8          3.4460   -2.6700   -6.8030 cd        1 581     -0.007600
     18 N1          2.9160   -1.8980   -5.7840 nd        1 581     -0.532300
     19 C11         4.9650   -2.9480   -6.7990 c         1 581      0.936800
     20 O3          5.7480   -2.0950   -6.3260 o         1 581     -0.805800
     21 O4          5.3170   -4.0500   -7.3180 o         1 581     -0.805800
     22 H1          2.9960    0.1510    1.2650 hc        1 581      0.065033
     23 H2          1.9920   -1.3430    1.5280 hc        1 581      0.065033
     24 H3          1.4900    0.2340    2.2800 hc        1 581      0.065033
     25 H4          2.3850   -0.9690   -1.0150 hn        1 581      0.321500
     26 H5         -0.4930    1.2750   -1.7640 ha        1 581      0.165000
     27 H6         -1.3460    1.5330   -4.0680 ha        1 581      0.127000
     28 H7          2.3530   -1.7030   -3.2070 ha        1 581      0.163000
     29 H8         -0.3840    0.2310   -5.9460 ha        1 581      0.135000
     30 H9          3.9760   -4.2470   -8.6720 ho        1 581      0.480000
     31 H12        -0.2460   -1.9270   -6.6850 hn        1 581      0.317500
@<TRIPOS>BOND
     1    1    2 2   
     2    2    3 1   
     3    2    4 1   
     4    3   22 1   
     5    3   23 1   
     6    3   24 1   
     7    4    5 1   
     8    4   25 1   
     9    5    6 ar  
    10    5    8 ar  
    11    6    7 ar  
    12    6   26 1   
    13    7   10 ar  
    14    7   27 1   
    15    8    9 ar  
    16    8   28 1   
    17    9   10 ar  
    18    9   11 1   
    19   10   29 1   
    20   11   12 1   
    21   11   18 2   
    22   12   13 1   
    23   12   31 1   
    24   13   14 2   
    25   13   15 1   
    26   15   16 1   
    27   15   17 2   
    28   16   30 1   
    29   17   18 1   
    30   17   19 1   
    31   19   20 1   
    32   19   21 1   
@<TRIPOS>SUBSTRUCTURE
     1 581         1 TEMP              0 ****  ****    0 ROOT
