@<TRIPOS>MOLECULE
582
   30    26     1     0     0
SMALL
bcc


@<TRIPOS>ATOM
      1 C1         -2.8570   -0.1500   -2.2160 c1        1 582     -0.122500
      2 C2         -1.4620   -0.1500   -2.2160 c1        1 582     -0.184000
      3 C3         -0.7620   -0.1500   -1.0040 c1        1 582      0.129000
      4 C4         -1.4650   -0.1500    0.2120 c1        1 582     -0.095000
      5 C5         -2.8650   -0.1500    0.2090 c1        1 582     -0.078000
      6 C6         -3.5600   -0.1500   -1.0000 c1        1 582     -0.122500
      7 N11         0.6820   -0.1500   -1.0030 n         1 582     -0.263000
      8 C12         1.3710   -0.1500    0.1960 c2        1 582      0.393000
      9 C13         0.6250   -0.1500    1.4840 c2        1 582     -0.247000
     10 C14        -0.7360   -0.1500    1.4810 c1        1 582      0.004500
     11 O2          2.5780   -0.0160    0.2020 o         1 582     -0.358000
     12 C18         1.3930   -0.3300   -2.2220 c3        1 582     -0.037000
     13 N1         -1.1600   -0.1500    2.7800 n2        1 582     -0.118000
     14 C23         1.0470   -0.1500    2.7990 c1        1 582      0.004500
     15 C9          2.2570   -0.0220    3.6980 c2        1 582     -0.163000
     16 N2         -0.0500   -0.1500    3.5900 n2        1 582     -0.118000
     17 C7          2.0930    0.9590   -2.5930 c3        1 582     -0.234000
     18 H1         -3.3450   -0.1500   -3.0620 ha        1 582      0.138500
     19 H2         -0.9740   -0.1500   -3.0620 ha        1 582      0.144000
     20 H5         -3.3540   -0.1500    1.0540 ha        1 582      0.128000
     21 H6         -4.5370   -0.1500   -1.0020 ha        1 582      0.138500
     22 H181        0.7680   -0.5760   -2.9300 h1        1 582      0.108000
     23 H182        2.0550   -1.0390   -2.1110 h1        1 582      0.108000
     24 HN1        -2.0280   -0.1500    3.0600 DU        1 582      0.277000
     25 H91         2.6260    0.8790    3.6220 ha        1 582      0.104000
     26 H92         2.9330   -0.6730    3.4300 ha        1 582      0.104000
     27 H93         1.9940   -0.1880    4.6230 ha        1 582      0.104000
     28 H71         1.6460    1.7090   -2.1570 hc        1 582      0.085667
     29 H72         3.0230    0.9200   -2.3000 hc        1 582      0.085667
     30 H73         2.0620    1.0790   -3.5610 hc        1 582      0.085667
@<TRIPOS>BOND
     1    1    6 1   
     2    1   18 1   
     3    2    3 1   
     4    2   19 1   
     5    3    7 1   
     6    4    5 1   
     7    5   20 1   
     8    6   21 1   
     9    7    8 1   
    10    7   12 1   
    11    8    9 1   
    12    8   11 1   
    13    9   10 1   
    14    9   14 1   
    15   10   13 1   
    16   12   17 1   
    17   12   22 1   
    18   12   23 1   
    19   13   16 1   
    20   14   16 1   
    21   15   25 1   
    22   15   26 1   
    23   15   27 1   
    24   17   28 1   
    25   17   29 1   
    26   17   30 1   
@<TRIPOS>SUBSTRUCTURE
     1 582         1 TEMP              0 ****  ****    0 ROOT
