@<TRIPOS>MOLECULE
582
   30    32     1     0     0
SMALL
bcc


@<TRIPOS>ATOM
      1 C1         -0.0390    0.0990    0.0460 ca        1 582     -0.080000
      2 C2          1.3450    0.0790    0.0210 ca        1 582     -0.184000
      3 C3          2.1020    0.0350    1.2240 ca        1 582      0.121600
      4 C4          1.3660    0.0330    2.4510 ca        1 582     -0.095000
      5 C5         -0.0350    0.0540    2.4480 ca        1 582     -0.078000
      6 C6         -0.7410    0.0830    1.2570 ca        1 582     -0.165000
      7 N11         3.5010   -0.0130    1.2040 n         1 582     -0.360000
      8 C12         4.2880    0.0070    2.3870 c         1 582      0.756100
      9 C13         3.5580    0.0080    3.6340 cc        1 582     -0.332900
     10 C14         2.1380    0.0160    3.6590 cd        1 582      0.013700
     11 O2          5.5310    0.0090    2.2950 o         1 582     -0.633500
     12 C18         4.2030   -0.0450   -0.0690 c3        1 582      0.079000
     13 N1          1.7760    0.0130    4.9990 na        1 582     -0.003600
     14 C23         3.9630    0.0010    5.0240 cc        1 582      0.393600
     15 C9          5.3530   -0.0080    5.5160 c3        1 582     -0.139400
     16 N2          2.8450    0.0040    5.8090 nd        1 582     -0.520800
     17 C7          4.3360    1.3000   -0.7640 c3        1 582     -0.116100
     18 H1         -0.5960    0.1300   -0.9030 ha        1 582      0.137000
     19 H2          1.8500    0.1060   -0.9570 ha        1 582      0.144000
     20 H5         -0.5770    0.0470    3.4070 ha        1 582      0.128000
     21 H6         -1.8390    0.0980    1.2590 ha        1 582      0.140000
     22 H181        3.6800   -0.7760   -0.7490 h1        1 582      0.068700
     23 H182        5.2410   -0.4510    0.1220 h1        1 582      0.068700
     24 HN1         0.8590    0.0170    5.3780 hn        1 582      0.326700
     25 H91         5.5450   -0.9210    6.1330 hc        1 582      0.064700
     26 H92         6.0540   -0.0030    4.6430 hc        1 582      0.064700
     27 H93         5.5520    0.8930    6.1490 hc        1 582      0.064700
     28 H71         4.8620    1.1460   -1.7380 hc        1 582      0.046367
     29 H72         4.9360    2.0090   -0.1430 hc        1 582      0.046367
     30 H73         3.3400    1.7620   -0.9640 hc        1 582      0.046367
@<TRIPOS>BOND
     1    1    2 ar  
     2    1    6 ar  
     3    1   18 1   
     4    2    3 ar  
     5    2   19 1   
     6    3    4 ar  
     7    3    7 1   
     8    4    5 ar  
     9    4   10 1   
    10    5    6 ar  
    11    5   20 1   
    12    6   21 1   
    13    7    8 1   
    14    7   12 1   
    15    8    9 1   
    16    8   11 2   
    17    9   10 2   
    18    9   14 1   
    19   10   13 1   
    20   12   17 1   
    21   12   22 1   
    22   12   23 1   
    23   13   16 1   
    24   13   24 1   
    25   14   15 1   
    26   14   16 2   
    27   15   25 1   
    28   15   26 1   
    29   15   27 1   
    30   17   28 1   
    31   17   29 1   
    32   17   30 1   
@<TRIPOS>SUBSTRUCTURE
     1 582         1 TEMP              0 ****  ****    0 ROOT
