@<TRIPOS>MOLECULE
582
   30    32     1     0     0
SMALL
bcc


@<TRIPOS>ATOM
      1 C1         -0.0430    0.1170    0.0520 ca        1 582     -0.080000
      2 C2          1.3410    0.0870    0.0240 ca        1 582     -0.184000
      3 C3          2.0990    0.0390    1.2260 ca        1 582      0.121600
      4 C4          1.3660    0.0450    2.4540 ca        1 582     -0.095000
      5 C5         -0.0350    0.0770    2.4540 ca        1 582     -0.078000
      6 C6         -0.7430    0.1100    1.2630 ca        1 582     -0.165000
      7 N11         3.4980   -0.0210    1.2030 n         1 582     -0.360000
      8 C12         4.2870   -0.0040    2.3850 c         1 582      0.756100
      9 C13         3.5590    0.0050    3.6330 cc        1 582     -0.332900
     10 C14         2.1400    0.0240    3.6600 cd        1 582      0.013700
     11 O2          5.5300   -0.0120    2.2910 o         1 582     -0.633500
     12 C18         4.1970   -0.0610   -0.0700 c3        1 582      0.079000
     13 N1          1.7800    0.0260    5.0010 na        1 582     -0.003600
     14 C23         3.9670   -0.0020    5.0230 cc        1 582      0.393600
     15 C9          5.3570   -0.0210    5.5130 c3        1 582     -0.139400
     16 N2          2.8500    0.0110    5.8090 nd        1 582     -0.520800
     17 C7          4.3400    1.2830   -0.7690 c3        1 582     -0.116100
     18 H1         -0.6020    0.1510   -0.8970 ha        1 582      0.137000
     19 H2          1.8440    0.1080   -0.9550 ha        1 582      0.144000
     20 H5         -0.5750    0.0760    3.4130 ha        1 582      0.128000
     21 H6         -1.8410    0.1330    1.2670 ha        1 582      0.140000
     22 H181        3.6680   -0.7890   -0.7490 h1        1 582      0.068700
     23 H182        5.2330   -0.4740    0.1190 h1        1 582      0.068700
     24 HN1         0.8630    0.0390    5.3810 hn        1 582      0.326700
     25 H91         6.0570   -0.0260    4.6380 hc        1 582      0.064700
     26 H92         5.5650    0.8810    6.1410 hc        1 582      0.064700
     27 H93         5.5420   -0.9330    6.1330 hc        1 582      0.064700
     28 H71         4.9460    1.9880   -0.1500 hc        1 582      0.046367
     29 H72         3.3470    1.7520   -0.9680 hc        1 582      0.046367
     30 H73         4.8620    1.1230   -1.7430 hc        1 582      0.046367
@<TRIPOS>BOND
     1    1    2 ar  
     2    1    6 ar  
     3    1   18 1   
     4    2    3 ar  
     5    2   19 1   
     6    3    4 ar  
     7    3    7 1   
     8    4    5 ar  
     9    4   10 1   
    10    5    6 ar  
    11    5   20 1   
    12    6   21 1   
    13    7    8 1   
    14    7   12 1   
    15    8    9 1   
    16    8   11 2   
    17    9   10 2   
    18    9   14 1   
    19   10   13 1   
    20   12   17 1   
    21   12   22 1   
    22   12   23 1   
    23   13   16 1   
    24   13   24 1   
    25   14   15 1   
    26   14   16 2   
    27   15   25 1   
    28   15   26 1   
    29   15   27 1   
    30   17   28 1   
    31   17   29 1   
    32   17   30 1   
@<TRIPOS>SUBSTRUCTURE
     1 582         1 TEMP              0 ****  ****    0 ROOT
