@<TRIPOS>MOLECULE
582
   30    32     1     0     0
SMALL
bcc


@<TRIPOS>ATOM
      1 C1         -0.0420    0.1120    0.0500 ca        1 582     -0.080000
      2 C2          1.3420    0.0860    0.0220 ca        1 582     -0.184000
      3 C3          2.1000    0.0380    1.2250 ca        1 582      0.121600
      4 C4          1.3660    0.0380    2.4530 ca        1 582     -0.095000
      5 C5         -0.0350    0.0650    2.4520 ca        1 582     -0.078000
      6 C6         -0.7420    0.0980    1.2610 ca        1 582     -0.165000
      7 N11         3.4990   -0.0160    1.2030 n         1 582     -0.360000
      8 C12         4.2880    0.0010    2.3850 c         1 582      0.756100
      9 C13         3.5590    0.0040    3.6330 cc        1 582     -0.332900
     10 C14         2.1390    0.0180    3.6600 cd        1 582      0.013700
     11 O2          5.5310   -0.0020    2.2920 o         1 582     -0.633500
     12 C18         4.2000   -0.0500   -0.0700 c3        1 582      0.079000
     13 N1          1.7790    0.0150    5.0000 na        1 582     -0.003600
     14 C23         3.9660   -0.0050    5.0230 cc        1 582      0.393600
     15 C9          5.3560   -0.0200    5.5140 c3        1 582     -0.139400
     16 N2          2.8480    0.0020    5.8090 nd        1 582     -0.520800
     17 C7          4.3380    1.2950   -0.7650 c3        1 582     -0.116100
     18 H1         -0.6000    0.1450   -0.8990 ha        1 582      0.137000
     19 H2          1.8460    0.1120   -0.9560 ha        1 582      0.144000
     20 H5         -0.5760    0.0600    3.4100 ha        1 582      0.128000
     21 H6         -1.8410    0.1170    1.2640 ha        1 582      0.140000
     22 H181        3.6730   -0.7790   -0.7510 h1        1 582      0.068700
     23 H182        5.2370   -0.4600    0.1190 h1        1 582      0.068700
     24 HN1         0.8620    0.0230    5.3800 hn        1 582      0.326700
     25 H91         5.5450   -0.9350    6.1280 hc        1 582      0.064700
     26 H92         6.0560   -0.0160    4.6400 hc        1 582      0.064700
     27 H93         5.5590    0.8790    6.1470 hc        1 582      0.064700
     28 H71         4.8610    1.1400   -1.7390 hc        1 582      0.046367
     29 H72         4.9410    2.0010   -0.1450 hc        1 582      0.046367
     30 H73         3.3430    1.7610   -0.9640 hc        1 582      0.046367
@<TRIPOS>BOND
     1    1    2 ar  
     2    1    6 ar  
     3    1   18 1   
     4    2    3 ar  
     5    2   19 1   
     6    3    4 ar  
     7    3    7 1   
     8    4    5 ar  
     9    4   10 1   
    10    5    6 ar  
    11    5   20 1   
    12    6   21 1   
    13    7    8 1   
    14    7   12 1   
    15    8    9 1   
    16    8   11 2   
    17    9   10 2   
    18    9   14 1   
    19   10   13 1   
    20   12   17 1   
    21   12   22 1   
    22   12   23 1   
    23   13   16 1   
    24   13   24 1   
    25   14   15 1   
    26   14   16 2   
    27   15   25 1   
    28   15   26 1   
    29   15   27 1   
    30   17   28 1   
    31   17   29 1   
    32   17   30 1   
@<TRIPOS>SUBSTRUCTURE
     1 582         1 TEMP              0 ****  ****    0 ROOT
