@<TRIPOS>MOLECULE
582
   30    32     1     0     0
SMALL
bcc


@<TRIPOS>ATOM
      1 C1         -3.4860   -1.0460   -0.0200 ca        1 582     -0.080000
      2 C2         -2.7550    0.1250   -0.1140 ca        1 582     -0.184000
      3 C3         -1.3330    0.1060   -0.1130 ca        1 582      0.121600
      4 C4         -0.7030   -1.1740    0.0080 ca        1 582     -0.095000
      5 C5         -1.4680   -2.3440    0.1010 ca        1 582     -0.078000
      6 C6         -2.8520   -2.2890    0.0850 ca        1 582     -0.165000
      7 N11        -0.5880    1.2850   -0.2360 n         1 582     -0.360000
      8 C12         0.8330    1.3070   -0.1740 c         1 582      0.756100
      9 C13         1.4810    0.0210   -0.0480 cc        1 582     -0.332900
     10 C14         0.7300   -1.1810    0.0350 cd        1 582      0.013700
     11 O2          1.4310    2.3980   -0.2420 o         1 582     -0.633500
     12 C18        -1.2720    2.5570   -0.3920 c3        1 582      0.079000
     13 N1          1.6570   -2.2080    0.1430 na        1 582     -0.003600
     14 C23         2.8680   -0.3910    0.0200 cc        1 582      0.393600
     15 C9          4.0360    0.5070   -0.0270 c3        1 582     -0.139400
     16 N2          2.9180   -1.7510    0.1360 nd        1 582     -0.520800
     17 C7         -1.8240    3.1540    0.8930 c3        1 582     -0.116100
     18 H1         -4.5870   -0.9980   -0.0260 ha        1 582      0.137000
     19 H2         -3.3010    1.0780   -0.1810 ha        1 582      0.144000
     20 H5         -0.9590   -3.3160    0.1890 ha        1 582      0.128000
     21 H6         -3.4480   -3.2100    0.1560 ha        1 582      0.140000
     22 H181       -0.5360    3.2910   -0.8370 h1        1 582      0.068700
     23 H182       -2.1050    2.4270   -1.1410 h1        1 582      0.068700
     24 HN1         1.4760   -3.1800    0.2220 hn        1 582      0.326700
     25 H91         4.6480    0.4050    0.9040 hc        1 582      0.064700
     26 H92         4.6850    0.2610   -0.9040 hc        1 582      0.064700
     27 H93         3.6850    1.5670   -0.1180 hc        1 582      0.064700
     28 H71        -2.3500    4.1070    0.6450 hc        1 582      0.046367
     29 H72        -2.5470    2.4650    1.3910 hc        1 582      0.046367
     30 H73        -0.9980    3.3780    1.6110 hc        1 582      0.046367
@<TRIPOS>BOND
     1    1    2 ar  
     2    1    6 ar  
     3    1   18 1   
     4    2    3 ar  
     5    2   19 1   
     6    3    4 ar  
     7    3    7 1   
     8    4    5 ar  
     9    4   10 1   
    10    5    6 ar  
    11    5   20 1   
    12    6   21 1   
    13    7    8 1   
    14    7   12 1   
    15    8    9 1   
    16    8   11 2   
    17    9   10 2   
    18    9   14 1   
    19   10   13 1   
    20   12   17 1   
    21   12   22 1   
    22   12   23 1   
    23   13   16 1   
    24   13   24 1   
    25   14   15 1   
    26   14   16 2   
    27   15   25 1   
    28   15   26 1   
    29   15   27 1   
    30   17   28 1   
    31   17   29 1   
    32   17   30 1   
@<TRIPOS>SUBSTRUCTURE
     1 582         1 TEMP              0 ****  ****    0 ROOT
