@<TRIPOS>MOLECULE
583
   31    41     1     0     0
SMALL
bcc


@<TRIPOS>ATOM
      1 C1          0.0000    0.0000    0.0000 c2        1 583      0.074000
      2 C2          1.4170    0.0000    0.0000 c2        1 583     -0.256000
      3 C3         -0.8780   -0.0050   -1.1960 DU        1 583      0.100000
      4 C11        -1.4900    0.9140   -3.3290 c2        1 583     -0.040000
      5 C12         2.7160   -0.6910   -3.4590 c2        1 583     -0.178000
      6 C13         4.3110    0.6890   -2.2980 c2        1 583     -0.132000
      7 C14        -2.5170   -0.0150   -3.4290 DU        1 583      0.094000
      8 C15         3.9210   -0.0010   -3.4380 DU        1 583      0.173000
      9 C4         -0.4100    0.0000    1.3000 c2        1 583     -0.043000
     10 C5          2.2900   -0.0000   -1.1990 c3        1 583      0.076000
     11 N1          1.8190    0.0000    1.2510 n2        1 583      0.295000
     12 C6         -1.9160   -0.9290   -1.2970 c3        1 583     -0.055000
     13 C7         -0.6700    0.9180   -2.2200 c2        1 583     -0.431000
     14 N2          0.6910    0.0010    2.0800 na        1 583     -0.264000
     15 C8          1.9020   -0.6920   -2.3450 c2        1 583     -0.254000
     16 C9          3.5010    0.6910   -1.1820 c2        1 583     -0.148000
     17 C10        -2.7310   -0.9320   -2.4090 c2        1 583     -0.191000
     18 H1         -3.5750    0.2380   -3.6500 DU        1 583      0.249000
     19 H2          4.6530   -0.6770   -3.8830 DU        1 583      0.239000
     20 H3         -2.5580    1.0940   -3.3020 DU        1 583      0.123000
     21 H4          3.7850   -0.8390   -3.3570 DU        1 583      0.101000
     22 H5          3.2930    0.8600   -2.6290 ha        1 583      0.093000
     23 H6          0.0650   -0.2070    0.3490 h4        1 583     -0.047000
     24 H8         -0.8880   -0.6200   -1.4390 DU        1 583     -0.034000
     25 H9         -0.8760    0.6720   -1.1850 DU        1 583      0.306000
     26 H10         0.9420   -0.9220   -1.9000 ha        1 583      0.147000
     27 H11         2.4960    0.9760   -1.4680 DU        1 583      0.170000
     28 H12        -1.6520   -1.0200   -2.3950 DU        1 583      0.113000
     29 H7          1.4510    0.3010    1.5020 hn        1 583      0.159000
     30 O1         -3.3250   -0.0160   -4.5230 oh        1 583     -0.212000
     31 O2          4.7210   -0.0010   -4.5360 oh        1 583     -0.226000
@<TRIPOS>BOND
     1    1    2 1   
     2    1    3 1   
     3    1    9 1   
     4    2   10 1   
     5    2   11 1   
     6    3   12 1   
     7    3   13 1   
     8    3   24 1   
     9    3   25 1   
    10    4    7 1   
    11    4   13 1   
    12    4   20 1   
    13    5    8 1   
    14    5   15 1   
    15    5   21 1   
    16    6    8 1   
    17    6   16 1   
    18    6   22 1   
    19    7   17 1   
    20    7   18 1   
    21    7   20 1   
    22    7   30 1   
    23    8   19 1   
    24    8   21 1   
    25    8   31 1   
    26    9   14 1   
    27    9   23 1   
    28   10   15 1   
    29   10   16 1   
    30   10   27 1   
    31   11   14 1   
    32   12   17 1   
    33   12   24 1   
    34   12   28 1   
    35   13   25 1   
    36   14   29 1   
    37   15   26 1   
    38   16   27 1   
    39   17   28 1   
    40   18   30 1   
    41   19   31 1   
@<TRIPOS>SUBSTRUCTURE
     1 583         1 TEMP              0 ****  ****    0 ROOT
