@<TRIPOS>MOLECULE
584
   51    53     1     0     0
SMALL
bcc


@<TRIPOS>ATOM
      1 C1          0.2410    0.2730   -0.1460 ca        1 584      0.863900
      2 C2         -0.0720   -0.2910    2.1120 ca        1 584      0.688200
      3 C3          1.3550   -0.1190    2.3340 ca        1 584     -0.242000
      4 O2          2.2990    0.3590   -6.3140 oh        1 584     -0.473100
      5 C11        -5.5190    1.0490    2.9150 c3        1 584     -0.091600
      6 C12        -5.1190   -1.1740    1.8790 c3        1 584     -0.091600
      7 C14         0.3530    0.4770   -2.5980 ca        1 584      0.140600
      8 C15        -0.0400   -0.4330   -3.6020 ca        1 584     -0.151500
      9 C16         0.6140   -0.4560   -4.8400 ca        1 584      0.104400
     10 C17         1.6890    0.4290   -5.0880 ca        1 584      0.051100
     11 C18         2.0790    1.3330   -4.0770 ca        1 584      0.104400
     12 C19         1.4160    1.3670   -2.8430 ca        1 584     -0.151500
     13 N1          1.6020    0.4560   -0.0150 nb        1 584     -0.733000
     14 N2         -0.6130   -0.0990    0.8790 nb        1 584     -0.779000
     15 C4          2.1170    0.2620    1.2090 ca        1 584      0.438200
     16 N3         -0.3860    0.5510   -1.3920 nh        1 584     -0.694300
     17 N4         -0.8660   -0.7460    3.1770 nh        1 584     -0.762300
     18 C5         -2.2770   -1.0110    2.9940 c3        1 584      0.219800
     19 C6         -3.1950    0.1870    2.7440 c3        1 584     -0.108400
     20 C7         -4.6550   -0.1970    2.9380 c3        1 584     -0.064700
     21 C8         -0.4180   -0.4130    4.5180 c3        1 584      0.158500
     22 C9          1.1060   -0.5630    4.6970 c         1 584      0.698500
     23 N5          1.9270   -0.3460    3.5970 n         1 584     -0.350000
     24 C10        -0.7880    0.9780    5.0340 c3        1 584     -0.126100
     25 F1          0.2210   -1.3280   -5.7950 f         1 584     -0.128900
     26 F2          3.1100    2.1820   -4.3210 f         1 584     -0.128900
     27 H1          3.0160    1.0140   -6.3260 ho        1 584      0.433000
     28 H2         -5.2130    1.7520    3.7270 hc        1 584      0.035533
     29 H3         -5.4200    1.5750    1.9360 hc        1 584      0.035533
     30 H4         -6.5910    0.7780    3.0660 hc        1 584      0.035533
     31 H5         -6.2040   -1.4010    2.0110 hc        1 584      0.035533
     32 H6         -4.9690   -0.7460    0.8580 hc        1 584      0.035533
     33 H7         -4.5460   -2.1300    1.9490 hc        1 584      0.035533
     34 H8          3.6320   -0.7540    4.7520 h1        1 584      0.055367
     35 H9          3.7670   -1.1630    2.9730 h1        1 584      0.055367
     36 H10         3.8150    0.5830    3.5170 h1        1 584      0.055367
     37 H11        -0.8690   -1.1390   -3.4370 ha        1 584      0.167000
     38 H12         1.7440    2.0940   -2.0830 ha        1 584      0.167000
     39 H13         3.2110    0.4160    1.2780 h4        1 584      0.035100
     40 H14        -1.3090    0.1650   -1.4690 hn        1 584      0.432800
     41 H15        -2.6300   -1.5530    3.9190 h1        1 584      0.060700
     42 H16        -2.3720   -1.7220    2.1220 h1        1 584      0.060700
     43 H17        -3.0500    0.5720    1.7020 hc        1 584      0.056200
     44 H18        -2.9430    1.0250    3.4460 hc        1 584      0.056200
     45 H19        -4.7690   -0.6860    3.9480 hc        1 584      0.042700
     46 H20        -0.8840   -1.1830    5.2100 h1        1 584      0.097700
     47 H21        -0.4960    1.7740    4.3090 hc        1 584      0.057367
     48 H22        -1.8870    1.0410    5.2180 hc        1 584      0.057367
     49 H23        -0.2580    1.1580    6.0020 hc        1 584      0.057367
     50 O1          1.5750   -0.8370    5.8160 o         1 584     -0.622500
     51 C13         3.3580   -0.4250    3.7140 c3        1 584      0.073300
@<TRIPOS>BOND
     1    1   13 ar  
     2    1   14 ar  
     3    1   16 1   
     4    2    3 ar  
     5    2   14 ar  
     6    2   17 1   
     7    3   15 ar  
     8    3   23 1   
     9    4   10 1   
    10    4   27 1   
    11    5   20 1   
    12    5   28 1   
    13    5   29 1   
    14    5   30 1   
    15    6   20 1   
    16    6   31 1   
    17    6   32 1   
    18    6   33 1   
    19    7    8 ar  
    20    7   12 ar  
    21    7   16 1   
    22    8    9 ar  
    23    8   37 1   
    24    9   10 ar  
    25    9   25 1   
    26   10   11 ar  
    27   11   12 ar  
    28   11   26 1   
    29   12   38 1   
    30   13   15 ar  
    31   15   39 1   
    32   16   40 1   
    33   17   18 1   
    34   17   21 1   
    35   18   19 1   
    36   18   41 1   
    37   18   42 1   
    38   19   20 1   
    39   19   43 1   
    40   19   44 1   
    41   20   45 1   
    42   21   22 1   
    43   21   24 1   
    44   21   46 1   
    45   22   23 1   
    46   22   50 2   
    47   23   51 1   
    48   24   47 1   
    49   24   48 1   
    50   24   49 1   
    51   34   51 1   
    52   35   51 1   
    53   36   51 1   
@<TRIPOS>SUBSTRUCTURE
     1 584         1 TEMP              0 ****  ****    0 ROOT
