@<TRIPOS>MOLECULE
585
   57    60     1     0     0
SMALL
bcc


@<TRIPOS>ATOM
      1 N1          6.0630   -0.2000    1.5530 n         1 585     -0.545400
      2 N2          0.3380   -1.2440   -0.0680 nb        1 585     -0.785000
      3 C3          5.0270   -0.3370    0.6110 ca        1 585      0.511200
      4 C4          0.9420   -2.4550    0.0820 ca        1 585      0.679200
      5 C5          6.8150    0.9670    1.6050 c         1 585      0.683500
      6 N6          4.1500   -1.3680    0.7190 nb        1 585     -0.721000
      7 C7         -1.0360   -1.1860    0.1150 ca        1 585      0.892900
      8 O8          5.8680    1.6370   -0.5920 os        1 585     -0.307900
      9 C9          6.4810    2.1050    0.6280 c3        1 585      0.097800
     10 C11         0.1630   -3.6220    0.4250 ca        1 585     -0.207700
     11 C12        -5.7110    0.8740   -0.6390 ca        1 585      0.036100
     12 C13         4.9270    0.6400   -0.4320 ca        1 585     -0.042200
     13 C14         3.1720   -1.4720   -0.2300 ca        1 585      0.621200
     14 C15        -5.3020    0.1080    0.4720 ca        1 585      0.148600
     15 C16        -4.7230    1.3840   -1.5080 ca        1 585      0.148600
     16 N17        -1.8470   -2.2720    0.4150 nb        1 585     -0.733000
     17 C18        -2.9800    0.3110   -0.1960 ca        1 585      0.184600
     18 C19        -3.9500   -0.1690    0.7020 ca        1 585     -0.232500
     19 C20        -3.3720    1.0940   -1.3040 ca        1 585     -0.232500
     20 N21        -1.5990    0.1050    0.0430 nh        1 585     -0.705300
     21 C22        -1.2300   -3.4490    0.5630 ca        1 585      0.458200
     22 O23         7.7130    1.0730    2.4560 o         1 585     -0.603500
     23 C24         3.9070    0.5300   -1.3780 ca        1 585     -0.083000
     24 F25         0.7360   -4.8320    0.6040 f         1 585     -0.126900
     25 C26         3.0190   -0.5390   -1.2880 ca        1 585     -0.211300
     26 O28        -5.1960    2.1730   -2.5350 os        1 585     -0.311900
     27 O29        -6.3190   -0.3010    1.3110 os        1 585     -0.311900
     28 C30         5.5490    3.0810    1.3320 c3        1 585     -0.103600
     29 C31         7.7670    2.7850    0.1750 c3        1 585     -0.103600
     30 C32        -7.7250    1.9680   -0.1030 c3        1 585      0.114700
     31 C33        -4.2640    2.4960   -3.5620 c3        1 585      0.110700
     32 C34        -5.9690   -1.2610    2.3040 c3        1 585      0.110700
     33 HN1         6.2100   -0.9120    2.2360 hn        1 585      0.349500
     34 HN10        2.7050   -3.4080    0.3040 hn        1 585      0.444800
     35 H19        -3.6510   -0.7630    1.5770 ha        1 585      0.151500
     36 H20        -2.6170    1.4810   -2.0040 ha        1 585      0.151500
     37 HN21       -1.0060    0.7950   -0.3760 hn        1 585      0.440800
     38 H22        -1.8780   -4.3130    0.8070 h4        1 585      0.044100
     39 H24         3.8260    1.2720   -2.1860 ha        1 585      0.161000
     40 H26         2.2130   -0.6540   -2.0260 ha        1 585      0.165000
     41 H30         6.0390    3.4650    2.2580 hc        1 585      0.061367
     42 H30A        5.3250    3.9380    0.6520 hc        1 585      0.061367
     43 H30B        4.5890    2.5800    1.6020 hc        1 585      0.061367
     44 H31         8.3860    2.0780   -0.4250 hc        1 585      0.061367
     45 H31A        7.5200    3.6730   -0.4540 hc        1 585      0.061367
     46 H31B        8.3430    3.1070    1.0760 hc        1 585      0.061367
     47 H32        -7.6890    1.6170    0.9570 h1        1 585      0.041700
     48 H32A       -7.2740    2.9850   -0.1970 h1        1 585      0.041700
     49 H32B       -8.7730    1.9600   -0.4930 h1        1 585      0.041700
     50 H33        -3.8130    1.5730   -3.9980 h1        1 585      0.046867
     51 H33A       -4.8940    3.0260   -4.3220 h1        1 585      0.046867
     52 H33B       -3.4690    3.1760   -3.1690 h1        1 585      0.046867
     53 H34        -5.4840   -2.1540    1.8430 h1        1 585      0.046867
     54 H34A       -5.3000   -0.8000    3.0710 h1        1 585      0.046867
     55 H34B       -6.9570   -1.5330    2.7560 h1        1 585      0.046867
     56 N10         2.3160   -2.6140   -0.1740 nh        1 585     -0.805600
     57 O27        -7.0450    1.0440   -0.9550 os        1 585     -0.308900
@<TRIPOS>BOND
     1    1    3 1   
     2    1    5 1   
     3    1   33 1   
     4    2    4 ar  
     5    2    7 ar  
     6    3    6 ar  
     7    3   12 ar  
     8    4   10 ar  
     9    4   56 1   
    10    5    9 1   
    11    5   22 2   
    12    6   13 ar  
    13    7   16 ar  
    14    7   20 1   
    15    8    9 1   
    16    8   12 1   
    17    9   28 1   
    18    9   29 1   
    19   10   21 ar  
    20   10   24 1   
    21   11   14 ar  
    22   11   15 ar  
    23   11   57 1   
    24   12   23 ar  
    25   13   25 ar  
    26   13   56 1   
    27   14   18 ar  
    28   14   27 1   
    29   15   19 ar  
    30   15   26 1   
    31   16   21 ar  
    32   17   18 ar  
    33   17   19 ar  
    34   17   20 1   
    35   18   35 1   
    36   19   36 1   
    37   20   37 1   
    38   21   38 1   
    39   23   25 ar  
    40   23   39 1   
    41   25   40 1   
    42   26   31 1   
    43   27   32 1   
    44   28   41 1   
    45   28   42 1   
    46   28   43 1   
    47   29   44 1   
    48   29   45 1   
    49   29   46 1   
    50   30   47 1   
    51   30   48 1   
    52   30   49 1   
    53   30   57 1   
    54   31   50 1   
    55   31   51 1   
    56   31   52 1   
    57   32   53 1   
    58   32   54 1   
    59   32   55 1   
    60   34   56 1   
@<TRIPOS>SUBSTRUCTURE
     1 585         1 TEMP              0 ****  ****    0 ROOT
