@<TRIPOS>MOLECULE
585
   57    60     1     0     0
SMALL
bcc


@<TRIPOS>ATOM
      1 N1          2.4050    1.1550   -2.2480 n         1 585     -0.545400
      2 N2          1.7180   -0.0860    3.6240 nb        1 585     -0.785000
      3 C3          2.3240    0.2820   -1.1490 ca        1 585      0.511200
      4 C4          3.0260    0.2350    3.4300 ca        1 585      0.679200
      5 C5          1.5580    0.9950   -3.3370 c         1 585      0.683500
      6 N6          2.9820    0.5830    0.0010 nb        1 585     -0.721000
      7 C7          1.1840    0.1310    4.8860 ca        1 585      0.892900
      8 O8          0.9270   -1.2480   -2.4740 os        1 585     -0.307900
      9 C9          0.5220   -0.1390   -3.3050 c3        1 585      0.097800
     10 C11         3.8110    0.7860    4.5100 ca        1 585     -0.207700
     11 C12        -2.1760   -0.7840    8.6990 ca        1 585      0.036100
     12 C13         1.5240   -0.9000   -1.2800 ca        1 585     -0.042200
     13 C14         2.8890   -0.3050    1.0370 ca        1 585      0.621200
     14 C15        -1.4820    0.4200    8.4650 ca        1 585      0.148600
     15 C16        -2.2040   -1.7570    7.6760 ca        1 585      0.148600
     16 N17         1.8880    0.6280    5.9740 nb        1 585     -0.733000
     17 C18        -0.8110   -0.3500    6.2660 ca        1 585      0.184600
     18 C19        -0.8090    0.6460    7.2580 ca        1 585     -0.232500
     19 C20        -1.5160   -1.5550    6.4770 ca        1 585     -0.232500
     20 N21        -0.1970   -0.1280    5.0090 nh        1 585     -0.705300
     21 C22         3.1700    0.9420    5.7570 ca        1 585      0.458200
     22 O23         1.6370    1.7870   -4.2900 o         1 585     -0.603500
     23 C24         1.4220   -1.7810   -0.2030 ca        1 585     -0.083000
     24 F25         5.1050    1.1370    4.3430 f         1 585     -0.126900
     25 C26         2.1150   -1.4920    0.9700 ca        1 585     -0.211300
     26 O28        -2.9530   -2.8800    7.9560 os        1 585     -0.311900
     27 O29        -1.5540    1.3480    9.4840 os        1 585     -0.311900
     28 C30        -0.7960    0.4300   -2.7990 c3        1 585     -0.103600
     29 C31         0.3740   -0.7380   -4.6990 c3        1 585     -0.103600
     30 C32        -3.9370   -0.3630   10.2020 c3        1 585      0.114700
     31 C33        -2.8030   -3.9770    7.0600 c3        1 585      0.110700
     32 C34        -0.6810    2.4700    9.3780 c3        1 585      0.110700
     33 HN1         3.0240    1.9370   -2.2160 hn        1 585      0.349500
     34 HN10        4.4670    0.5470    2.0530 hn        1 585      0.444800
     35 H19        -0.2790    1.5950    7.0930 ha        1 585      0.151500
     36 H20        -1.5300   -2.3330    5.7000 ha        1 585      0.151500
     37 HN21       -0.5860   -0.6710    4.2630 hn        1 585      0.440800
     38 H22         3.7290    1.3420    6.6250 h4        1 585      0.044100
     39 H24         0.8160   -2.6940   -0.2970 ha        1 585      0.161000
     40 H26         2.0590   -2.1750    1.8300 ha        1 585      0.165000
     41 H30        -0.6820    0.8090   -1.7550 hc        1 585      0.061367
     42 H30A       -1.5750   -0.3700   -2.8050 hc        1 585      0.061367
     43 H30B       -1.1220    1.2660   -3.4620 hc        1 585      0.061367
     44 H31         0.1380    0.0800   -5.4210 hc        1 585      0.061367
     45 H31A       -0.4480   -1.4920   -4.6980 hc        1 585      0.061367
     46 H31B        1.3230   -1.2380   -5.0050 hc        1 585      0.061367
     47 H32        -3.7470    0.7380   10.1910 h1        1 585      0.041700
     48 H32A       -4.7240   -0.6340    9.4580 h1        1 585      0.041700
     49 H32B       -4.2210   -0.7100   11.2260 h1        1 585      0.041700
     50 H33        -3.3980   -4.7900    7.5480 h1        1 585      0.046867
     51 H33A       -1.7300   -4.2740    6.9680 h1        1 585      0.046867
     52 H33B       -3.2290   -3.7250    6.0590 h1        1 585      0.046867
     53 H34        -0.9980    3.1300    8.5340 h1        1 585      0.046867
     54 H34A       -0.8170    2.9930   10.3590 h1        1 585      0.046867
     55 H34B        0.3780    2.1420    9.2460 h1        1 585      0.046867
     56 N10         3.6640   -0.0380    2.2060 nh        1 585     -0.805600
     57 O27        -2.7300   -1.0780    9.9290 os        1 585     -0.308900
@<TRIPOS>BOND
     1    1    3 1   
     2    1    5 1   
     3    1   33 1   
     4    2    4 ar  
     5    2    7 ar  
     6    3    6 ar  
     7    3   12 ar  
     8    4   10 ar  
     9    4   56 1   
    10    5    9 1   
    11    5   22 2   
    12    6   13 ar  
    13    7   16 ar  
    14    7   20 1   
    15    8    9 1   
    16    8   12 1   
    17    9   28 1   
    18    9   29 1   
    19   10   21 ar  
    20   10   24 1   
    21   11   14 ar  
    22   11   15 ar  
    23   11   57 1   
    24   12   23 ar  
    25   13   25 ar  
    26   13   56 1   
    27   14   18 ar  
    28   14   27 1   
    29   15   19 ar  
    30   15   26 1   
    31   16   21 ar  
    32   17   18 ar  
    33   17   19 ar  
    34   17   20 1   
    35   18   35 1   
    36   19   36 1   
    37   20   37 1   
    38   21   38 1   
    39   23   25 ar  
    40   23   39 1   
    41   25   40 1   
    42   26   31 1   
    43   27   32 1   
    44   28   41 1   
    45   28   42 1   
    46   28   43 1   
    47   29   44 1   
    48   29   45 1   
    49   29   46 1   
    50   30   47 1   
    51   30   48 1   
    52   30   49 1   
    53   30   57 1   
    54   31   50 1   
    55   31   51 1   
    56   31   52 1   
    57   32   53 1   
    58   32   54 1   
    59   32   55 1   
    60   34   56 1   
@<TRIPOS>SUBSTRUCTURE
     1 585         1 TEMP              0 ****  ****    0 ROOT
