@<TRIPOS>MOLECULE
585
   57    54     1     0     0
SMALL
bcc


@<TRIPOS>ATOM
      1 N1          5.3430   -0.6290   -3.3290 n         1 585     -0.546400
      2 N2         -0.4660    1.4060   -0.3740 n1        1 585     -0.583800
      3 C3          3.9280   -0.3360   -3.4240 ca        1 585      0.511200
      4 C4          0.8230    1.6220   -0.6460 c1        1 585      0.212800
      5 C5          5.7850   -1.6740   -3.9550 c         1 585      0.683500
      6 N6          3.3220    0.5840   -2.6130 nb        1 585     -0.723000
      7 C7         -0.8600    1.1210    0.9060 c1        1 585      0.554600
      8 O8          3.8740   -1.9970   -5.2720 os        1 585     -0.307900
      9 C9          5.2450   -1.9550   -5.2690 c3        1 585      0.097800
     10 N10         1.3110    1.8540   -1.9960 nh        1 585     -0.669500
     11 C11         1.7450    1.5580    0.3460 c1        1 585     -0.110900
     12 C12        -4.4660    0.4240    4.4470 c1        1 585      0.067600
     13 C13         3.1600   -1.0710   -4.3680 ca        1 585     -0.044200
     14 C14         1.9590    0.8030   -2.7070 ca        1 585      0.621200
     15 C15        -4.2430    1.7290    3.9910 c1        1 585      0.110600
     16 C16        -3.9520   -0.6880    3.7050 c1        1 585      0.067600
     17 N17         0.0610    1.0570    1.8980 n1        1 585     -0.529800
     18 C18        -3.0160    0.8220    2.0900 c1        1 585      0.134800
     19 C19        -3.5330    1.9390    2.8340 c1        1 585     -0.078500
     20 C20        -3.2320   -0.4630    2.5320 c1        1 585     -0.183500
     21 N21        -2.3190    1.0410    0.8950 n3        1 585     -0.540400
     22 C22         1.3550    1.2730    1.6270 c1        1 585      0.377300
     23 O23         6.8280   -2.2230   -3.5820 o         1 585     -0.604500
     24 C24         1.8050   -0.8540   -4.4630 ca        1 585     -0.082000
     25 F25         2.9510    2.0650    0.0850 f         1 585     -0.094100
     26 C26         1.1920    0.0790   -3.6400 ca        1 585     -0.211300
     27 O27        -5.1090    0.4490    5.7330 os        1 585     -0.307900
     28 O28        -4.1100   -1.7330    4.6660 os        1 585     -0.307900
     29 O29        -4.7740    2.8650    4.7350 os        1 585     -0.321400
     30 C30         5.7840   -0.9770   -6.3220 c3        1 585     -0.103600
     31 C31         5.8250   -3.2770   -5.8180 c3        1 585     -0.103600
     32 C32        -6.5280    0.3310    5.6760 c3        1 585      0.114200
     33 C33        -4.4040   -2.9780    4.1080 c3        1 585      0.114200
     34 C34        -3.8020    3.5220    5.5810 c3        1 585      0.115700
     35 HN1         5.8160   -0.2700   -2.7010 hn        1 585      0.349500
     36 HN10        1.2500    2.7030   -2.3730 hn        1 585      0.444800
     37 H19        -3.3690    2.9010    2.4970 ha        1 585      0.114500
     38 H20        -2.8790   -1.2220    2.0220 ha        1 585      0.083500
     39 HN21       -2.7710    1.0840    0.1060 hn        1 585      0.440800
     40 H22         2.0510    1.2250    2.3750 ha        1 585      0.124500
     41 H24         1.2360   -1.3940   -5.1620 ha        1 585      0.162000
     42 H26         0.2090    0.2360   -3.7080 ha        1 585      0.169000
     43 H30         6.7840   -1.0450   -6.3500 hc        1 585      0.061367
     44 H30A        5.4250   -1.2040   -7.1780 hc        1 585      0.061367
     45 H30B        5.5190   -0.0370   -6.0890 hc        1 585      0.061367
     46 H31         6.7400   -3.1590   -6.0080 hc        1 585      0.061367
     47 H31A        5.7160   -3.9970   -5.1470 hc        1 585      0.061367
     48 H31B        5.3470   -3.5250   -6.6440 hc        1 585      0.061367
     49 H32        -6.7900   -0.5800    5.9500 h1        1 585      0.045867
     50 H32A       -6.8400    0.5030    4.7430 h1        1 585      0.045867
     51 H32B       -6.9370    0.9880    6.2820 h1        1 585      0.045867
     52 H33        -4.9420   -2.8660    3.4030 h1        1 585      0.045867
     53 H33A       -4.8830   -3.5720    4.8150 h1        1 585      0.045867
     54 H33B       -3.5060   -3.4490    3.7960 h1        1 585      0.045867
     55 H34        -3.0200    3.9230    4.9830 h1        1 585      0.047367
     56 H34A       -3.4110    2.8390    6.2500 h1        1 585      0.047367
     57 H34B       -4.2270    4.2290    6.0590 h1        1 585      0.047367
@<TRIPOS>BOND
     1    1    3 1   
     2    1    5 1   
     3    1   35 1   
     4    2    7 3   
     5    3    6 ar  
     6    3   13 ar  
     7    4   10 1   
     8    4   11 3   
     9    5    9 1   
    10    5   23 2   
    11    6   14 ar  
    12    7   21 1   
    13    8    9 1   
    14    8   13 1   
    15    9   30 1   
    16    9   31 1   
    17   10   14 1   
    18   10   36 1   
    19   11   25 1   
    20   12   16 3   
    21   12   27 1   
    22   13   24 ar  
    23   14   26 ar  
    24   15   19 3   
    25   15   29 1   
    26   16   28 1   
    27   17   22 3   
    28   18   20 3   
    29   18   21 1   
    30   19   37 1   
    31   20   38 1   
    32   21   39 1   
    33   22   40 1   
    34   24   26 ar  
    35   24   41 1   
    36   26   42 1   
    37   27   32 1   
    38   28   33 1   
    39   29   34 1   
    40   30   43 1   
    41   30   44 1   
    42   30   45 1   
    43   31   46 1   
    44   31   47 1   
    45   31   48 1   
    46   32   49 1   
    47   32   50 1   
    48   32   51 1   
    49   33   52 1   
    50   33   53 1   
    51   33   54 1   
    52   34   55 1   
    53   34   56 1   
    54   34   57 1   
@<TRIPOS>SUBSTRUCTURE
     1 585         1 TEMP              0 ****  ****    0 ROOT
