@<TRIPOS>MOLECULE
588
   71    66     1     0     0
SMALL
bcc


@<TRIPOS>ATOM
      1 O6         -4.0330    4.3030    5.6020 o         1 588     -0.526500
      2 C24        -4.4120    3.3470    4.8560 c2        1 588      0.376000
      3 O7         -5.3890    2.6280    5.2000 o         1 588     -0.526500
      4 C8         -3.7480    3.1340    3.4860 c2        1 588      0.256000
      5 O5         -3.7100    4.0550    2.6740 o         1 588     -0.446000
      6 N4         -3.0350    1.8930    3.2100 n         1 588     -0.250000
      7 C2         -2.2800    1.7470    1.9740 c2        1 588      0.130000
      8 C3         -0.8870    1.8290    1.9950 c1        1 588     -0.131000
      9 C4         -0.1640    1.6870    0.8150 c1        1 588     -0.116000
     10 C5         -0.8270    1.4640   -0.3810 c1        1 588     -0.125000
     11 C6         -2.2210    1.3820   -0.4020 c1        1 588     -0.133000
     12 C1         -2.9430    1.5240    0.7780 c2        1 588     -0.027000
     13 C17        -4.5000    1.5320    0.7410 c2        1 588     -0.063000
     14 C18        -5.1880    0.3950    0.3750 c1        1 588     -0.189000
     15 C19        -4.4360   -0.8550    0.0110 c1        1 588      0.325000
     16 O1         -3.3190   -0.7780   -0.4130 o         1 588     -0.474000
     17 N3         -5.0180   -2.1240    0.2470 n3        1 588     -0.384000
     18 C7         -0.0250    1.3650   -1.6980 c3        1 588     -0.105000
     19 C9          1.4110    0.9610   -1.3890 c3        1 588      0.034000
     20 N1          2.2990    1.6990   -2.2180 n3        1 588     -0.890000
     21 S1          3.6510    2.4220   -1.5600 s4        1 588      2.036800
     22 O4          3.3110    3.2060   -0.3950 o         1 588     -0.574900
     23 O2          4.5430    1.4440   -0.9890 o         1 588     -0.574900
     24 C20         4.4850    3.4190   -2.7970 c2        1 588     -0.981000
     25 C11         1.5910   -0.5280   -1.6510 c2        1 588      0.280000
     26 O8          0.7960   -1.3250   -1.1960 o         1 588     -0.398000
     27 N2          2.7380   -0.9990   -2.4190 n         1 588     -0.372000
     28 C12         3.0760   -2.4190   -2.4280 c3        1 588     -0.024000
     29 C13         4.5680   -2.5850   -2.7020 c3        1 588     -0.188000
     30 C15         4.7670   -3.5630   -3.8790 c3        1 588     -0.154000
     31 C14         6.2500   -3.6060   -4.2660 c3        1 588     -0.160000
     32 C16         6.3950   -4.2320   -5.6500 c3        1 588     -0.208000
     33 C26        -3.0780    0.8020    4.1670 c2        1 588      0.083000
     34 C27        -1.9470    0.4900    4.9160 c2        1 588     -0.150000
     35 C28        -1.9810   -0.5740    5.8260 c1        1 588     -0.152000
     36 C29        -3.1510   -1.3220    5.9830 c1        1 588     -0.145500
     37 C30        -4.2850   -1.0090    5.2320 c1        1 588     -0.145500
     38 C25        -4.2510    0.0530    4.3240 c1        1 588     -0.071000
     39 C31        -5.5170    0.4120    3.5050 c2        1 588      0.351000
     40 O9         -6.0500   -0.4590    2.7440 o         1 588     -0.574500
     41 O10        -6.0820    1.5370    3.6740 o         1 588     -0.574500
     42 H3         -0.4210    1.9850    2.8350 ha        1 588      0.139000
     43 H4          0.8190    1.8080    0.8210 ha        1 588      0.114000
     44 H6         -2.6870    1.2250   -1.2430 ha        1 588      0.141000
     45 H17        -4.9890    2.3440    0.9780 ha        1 588      0.163000
     46 H18        -6.1690    0.4010    0.3520 ha        1 588      0.135000
     47 HN31       -4.5000   -2.8700    0.2350 hn        1 588      0.246000
     48 HN32       -5.9000   -2.1900    0.4300 hn        1 588      0.246000
     49 H71        -0.0300    2.2320   -2.1470 hc        1 588      0.103000
     50 H72        -0.4370    0.6910   -2.2840 hc        1 588      0.103000
     51 H9          1.6070    1.1520   -0.4520 h1        1 588      0.131000
     52 HN1         2.1330    1.7720   -3.1120 hn        1 588      0.263000
     53 H201        4.7960    2.8430   -3.5260 ha        1 588      0.187333
     54 H202        3.8630    4.0880   -3.1520 ha        1 588      0.187333
     55 H203        5.2510    3.8700   -2.3900 ha        1 588      0.187333
     56 HN2         3.1920   -0.4150   -2.9740 hn        1 588      0.246000
     57 H121        2.8580   -2.8130   -1.5570 h1        1 588      0.091000
     58 H122        2.5660   -2.8700   -3.1260 h1        1 588      0.091000
     59 H131        4.9520   -1.7250   -2.9280 hc        1 588      0.091500
     60 H132        5.0080   -2.9400   -1.9040 hc        1 588      0.091500
     61 H151        4.2350   -3.2590   -4.6520 hc        1 588      0.076000
     62 H152        4.4720   -4.4610   -3.6130 hc        1 588      0.076000
     63 H141        6.7450   -4.1450   -3.6090 hc        1 588      0.080000
     64 H142        6.6110   -2.6960   -4.2800 hc        1 588      0.080000
     65 H161        5.9400   -3.6690   -6.3130 hc        1 588      0.066000
     66 H162        7.3460   -4.3030   -5.8780 hc        1 588      0.066000
     67 H163        5.9900   -5.1300   -5.6480 hc        1 588      0.066000
     68 H27        -1.1590    1.0450    4.8520 ha        1 588      0.172000
     69 H28        -1.2000   -0.7870    6.3470 ha        1 588      0.104000
     70 H29        -3.2010   -2.0150    6.6850 ha        1 588      0.108500
     71 H30        -5.0970   -1.5180    5.3500 ha        1 588      0.108500
@<TRIPOS>BOND
     1    1    2 1   
     2    2    3 1   
     3    2    4 1   
     4    4    5 1   
     5    4    6 1   
     6    6    7 1   
     7    6   33 1   
     8    7    8 1   
     9    7   12 1   
    10    8   42 1   
    11    9   10 1   
    12    9   43 1   
    13   10   18 1   
    14   11   12 1   
    15   11   44 1   
    16   12   13 1   
    17   13   14 1   
    18   13   45 1   
    19   14   46 1   
    20   15   16 1   
    21   15   17 1   
    22   17   47 1   
    23   17   48 1   
    24   18   19 1   
    25   18   49 1   
    26   18   50 1   
    27   19   20 1   
    28   19   25 1   
    29   19   51 1   
    30   20   21 1   
    31   20   52 1   
    32   21   22 1   
    33   21   23 1   
    34   24   53 1   
    35   24   54 1   
    36   24   55 1   
    37   25   26 1   
    38   25   27 1   
    39   27   28 1   
    40   27   56 1   
    41   28   29 1   
    42   28   57 1   
    43   28   58 1   
    44   29   30 1   
    45   29   59 1   
    46   29   60 1   
    47   30   31 1   
    48   30   61 1   
    49   30   62 1   
    50   31   32 1   
    51   31   63 1   
    52   31   64 1   
    53   32   65 1   
    54   32   66 1   
    55   32   67 1   
    56   33   34 1   
    57   33   38 1   
    58   34   35 1   
    59   34   68 1   
    60   35   69 1   
    61   36   37 1   
    62   36   70 1   
    63   37   71 1   
    64   38   39 1   
    65   39   40 1   
    66   39   41 1   
@<TRIPOS>SUBSTRUCTURE
     1 588         1 TEMP              0 ****  ****    0 ROOT
