@<TRIPOS>MOLECULE
588
   71    72     1     0     0
SMALL
bcc


@<TRIPOS>ATOM
      1 O6          1.2260    0.9630   -1.3990 o         1 588     -0.833800
      2 C24        -0.0060    0.9890   -1.6730 c         1 588      0.887600
      3 O7         -0.6070    2.0370   -2.0430 o         1 588     -0.833800
      4 C8         -0.8590   -0.3020   -1.5790 c         1 588      0.581100
      5 O5         -1.3790   -0.8030   -2.5880 o         1 588     -0.590100
      6 N4         -1.0900   -0.8620   -0.3040 n         1 588     -0.330200
      7 C2         -0.4960   -0.2490    0.8270 ca        1 588      0.116600
      8 C3          0.4820   -0.9460    1.5750 ca        1 588     -0.138000
      9 C4          1.3690   -0.2460    2.3800 ca        1 588     -0.111000
     10 C5          1.2870    1.1500    2.4730 ca        1 588     -0.135300
     11 C6          0.1500    1.7900    1.9800 ca        1 588     -0.106000
     12 C1         -0.7660    1.1080    1.1670 ca        1 588     -0.106800
     13 C17        -1.8540    1.8430    0.5450 ce        1 588     -0.015200
     14 C18        -2.3260    3.0340    0.9430 cf        1 588     -0.260200
     15 C19        -3.2970    3.8000    0.1240 c         1 588      0.666300
     16 O1         -4.2240    4.4780    0.6320 o         1 588     -0.682100
     17 N3         -3.1220    3.7820   -1.2360 n         1 588     -0.671000
     18 C7          2.4690    1.9520    2.8780 c3        1 588     -0.032100
     19 C9          3.3510    2.2680    1.6370 c3        1 588      0.196500
     20 N1          2.6190    2.8060    0.5300 n3        1 588     -0.924100
     21 S1          2.9350    4.1910   -0.2190 s6        1 588      1.473900
     22 O4          4.3240    4.3620   -0.4550 o         1 588     -0.698300
     23 O2          2.3780    5.2950    0.4770 o         1 588     -0.698300
     24 C20         2.1370    4.0360   -1.7010 c3        1 588     -0.392300
     25 C11         4.1660    0.9820    1.3210 c         1 588      0.640100
     26 O8          5.2050    0.7820    1.9980 o         1 588     -0.675100
     27 N2          3.7530    0.1360    0.3320 n         1 588     -0.533900
     28 C12         4.4080   -1.1170    0.0560 c3        1 588      0.089000
     29 C13         3.5540   -2.3490    0.3580 c3        1 588     -0.110400
     30 C15         4.2470   -3.6020   -0.1330 c3        1 588     -0.055400
     31 C14         3.4180   -4.8260    0.1900 c3        1 588     -0.111400
     32 C16         4.0010   -6.0680   -0.4310 c3        1 588     -0.074100
     33 C26        -2.0010   -1.9440   -0.1150 ca        1 588      0.069600
     34 C27        -3.3790   -1.6300   -0.0290 ca        1 588     -0.134000
     35 C28        -4.3330   -2.6250    0.1380 ca        1 588     -0.165000
     36 C29        -3.9390   -3.9600    0.2240 ca        1 588     -0.155000
     37 C30        -2.5900   -4.2800    0.1420 ca        1 588     -0.122000
     38 C25        -1.6050   -3.2950   -0.0260 ca        1 588     -0.077600
     39 C31        -0.1730   -3.8080   -0.0680 c         1 588      0.908200
     40 O9          0.3750   -4.0350   -1.1780 o         1 588     -0.827800
     41 O10         0.3900   -4.0560    1.0430 o         1 588     -0.827800
     42 H3          0.6010   -2.0430    1.4500 ha        1 588      0.217000
     43 H4          2.1920   -0.7850    2.8750 ha        1 588      0.135000
     44 H6          0.0160    2.8680    2.1590 ha        1 588      0.130000
     45 H17        -2.2730    1.3780   -0.3710 ha        1 588      0.153000
     46 H18        -2.0190    3.5420    1.8670 ha        1 588      0.141000
     47 HN31       -2.3760    3.2620   -1.6480 hn        1 588      0.325000
     48 HN32       -3.7390    4.2870   -1.8160 hn        1 588      0.325000
     49 H71         3.1060    1.3970    3.6150 hc        1 588      0.052700
     50 H72         2.1500    2.9190    3.3460 hc        1 588      0.052700
     51 H9          4.1240    3.0330    1.9570 h1        1 588      0.072700
     52 HN1         1.8810    2.2010    0.2080 hn        1 588      0.495800
     53 H201        1.4520    3.1340   -1.8140 h1        1 588      0.140367
     54 H202        1.4770    4.9150   -1.9040 h1        1 588      0.140367
     55 H203        2.8560    3.9490   -2.5510 h1        1 588      0.140367
     56 HN2         2.8690    0.2720   -0.1210 hn        1 588      0.363500
     57 H121        5.3660   -1.1730    0.6470 h1        1 588      0.043200
     58 H122        4.6730   -1.1230   -1.0420 h1        1 588      0.043200
     59 H131        2.5450   -2.2730   -0.1350 hc        1 588      0.071200
     60 H132        3.3690   -2.4250    1.4610 hc        1 588      0.071200
     61 H151        5.2630   -3.6890    0.3360 hc        1 588      0.013700
     62 H152        4.3990   -3.5340   -1.2430 hc        1 588      0.013700
     63 H141        2.3540   -4.6670   -0.1690 hc        1 588      0.087200
     64 H142        3.3560   -4.9520    1.3030 hc        1 588      0.087200
     65 H161        3.3850   -6.9590   -0.1610 hc        1 588      0.010700
     66 H162        4.0180   -5.9790   -1.5440 hc        1 588      0.010700
     67 H163        5.0470   -6.2420   -0.0790 hc        1 588      0.010700
     68 H27        -3.7060   -0.5810   -0.1060 ha        1 588      0.122000
     69 H28        -5.3970   -2.3570    0.1990 ha        1 588      0.102000
     70 H29        -4.6910   -4.7500    0.3530 ha        1 588      0.098000
     71 H30        -2.2660   -5.3300    0.2120 ha        1 588      0.128000
@<TRIPOS>BOND
     1    1    2 1   
     2    2    3 1   
     3    2    4 1   
     4    4    5 2   
     5    4    6 1   
     6    6    7 1   
     7    6   33 1   
     8    7    8 ar  
     9    7   12 ar  
    10    8    9 ar  
    11    8   42 1   
    12    9   10 ar  
    13    9   43 1   
    14   10   11 ar  
    15   10   18 1   
    16   11   12 ar  
    17   11   44 1   
    18   12   13 1   
    19   13   14 2   
    20   13   45 1   
    21   14   15 1   
    22   14   46 1   
    23   15   16 2   
    24   15   17 1   
    25   17   47 1   
    26   17   48 1   
    27   18   19 1   
    28   18   49 1   
    29   18   50 1   
    30   19   20 1   
    31   19   25 1   
    32   19   51 1   
    33   20   21 1   
    34   20   52 1   
    35   21   22 2   
    36   21   23 2   
    37   21   24 1   
    38   24   53 1   
    39   24   54 1   
    40   24   55 1   
    41   25   26 2   
    42   25   27 1   
    43   27   28 1   
    44   27   56 1   
    45   28   29 1   
    46   28   57 1   
    47   28   58 1   
    48   29   30 1   
    49   29   59 1   
    50   29   60 1   
    51   30   31 1   
    52   30   61 1   
    53   30   62 1   
    54   31   32 1   
    55   31   63 1   
    56   31   64 1   
    57   32   65 1   
    58   32   66 1   
    59   32   67 1   
    60   33   34 ar  
    61   33   38 ar  
    62   34   35 ar  
    63   34   68 1   
    64   35   36 ar  
    65   35   69 1   
    66   36   37 ar  
    67   36   70 1   
    68   37   38 ar  
    69   37   71 1   
    70   38   39 1   
    71   39   40 1   
    72   39   41 1   
@<TRIPOS>SUBSTRUCTURE
     1 588         1 TEMP              0 ****  ****    0 ROOT
