@<TRIPOS>MOLECULE
588
   75    76     1     0     0
SMALL
bcc


@<TRIPOS>ATOM
      1 O6          1.7640    0.6630    3.2840 o         1 588     -0.872300
      2 C24         1.5790   -0.3920    2.6000 c         1 588      0.931600
      3 O7          1.8750   -1.5200    3.0870 o         1 588     -0.872300
      4 C8          1.0460   -0.2780    1.1880 c         1 588      0.577100
      5 O5         -0.0970   -0.2520    0.7730 o         1 588     -0.416000
      6 N4          4.7170   -1.0390   -0.5410 nh        1 588     -0.618000
      7 C2          5.0940   -0.7690    0.7980 ca        1 588      0.186600
      8 C3          5.4740    0.5180    1.2460 ca        1 588     -0.145000
      9 C4          5.7060    0.7580    2.5920 ca        1 588     -0.098000
     10 C5          5.5520   -0.2630    3.5410 ca        1 588     -0.179300
     11 C6          5.3080   -1.5650    3.0950 ca        1 588     -0.055000
     12 C1          5.0980   -1.8370    1.7370 ca        1 588     -0.140800
     13 C17         4.8200   -3.2140    1.3550 ce        1 588      0.068800
     14 C18         5.3310   -3.8900    0.3110 cf        1 588     -0.296200
     15 C19         6.3700   -3.3740   -0.5760 c         1 588      0.584300
     16 O1          7.4360   -2.8330   -0.3410 o         1 588     -0.392100
     17 N3          6.0900   -3.5840   -2.0610 n4        1 588     -0.762400
     18 C7          5.6730    0.0100    4.9950 c3        1 588     -0.049100
     19 C9          4.3290    0.3440    5.6930 c3        1 588      0.069500
     20 N1          3.2060   -0.5080    5.2680 n4        1 588     -0.717900
     21 S1          2.9490   -2.1350    6.2770 s6        1 588      1.446900
     22 O4          3.2350   -1.6800    7.5450 o         1 588     -0.575800
     23 O2          3.8260   -2.9730    5.6250 o         1 588     -0.575800
     24 C20         1.3760   -2.3770    5.9760 c3        1 588     -0.505300
     25 C11         4.0940    1.8580    5.5920 c         1 588      0.505100
     26 O8          4.4770    2.6280    6.4600 o         1 588     -0.371100
     27 N2          3.4140    2.4160    4.3890 n4        1 588     -0.663800
     28 C12         3.6360    3.8820    4.1800 c3        1 588      0.104800
     29 C13         5.0080    4.2200    3.6160 c3        1 588     -0.104400
     30 C15         5.1420    5.7270    3.5010 c3        1 588     -0.081400
     31 C14         6.4930    6.1030    2.9270 c3        1 588     -0.076400
     32 C16         6.6340    7.5990    2.8100 c3        1 588     -0.100100
     33 C26         4.4710    0.0700   -1.4120 ca        1 588      0.078600
     34 C27         5.5520    0.7130   -2.0450 ca        1 588     -0.144000
     35 C28         5.3170    1.7090   -2.9920 ca        1 588     -0.090000
     36 C29         4.0160    2.0760   -3.3290 ca        1 588     -0.112000
     37 C30         2.9340    1.4610   -2.6990 ca        1 588     -0.061000
     38 C25         3.1530    0.4770   -1.7310 ca        1 588     -0.144600
     39 C31         1.9700   -0.1130   -1.0680 c         1 588      0.639700
     40 O9          2.1100   -0.1410    0.3090 os        1 588     -0.527200
     41 O10         0.9620   -0.5840   -1.5730 o         1 588     -0.427000
     42 H3          5.5720    1.3410    0.5170 ha        1 588      0.171000
     43 H4          6.0290    1.7630    2.9120 ha        1 588      0.142000
     44 H6          5.2720   -2.4020    3.8190 ha        1 588      0.174000
     45 H17         4.1000   -3.7410    2.0200 ha        1 588      0.185000
     46 H18         5.0210   -4.9350    0.1210 ha        1 588      0.186000
     47 HN31        6.9090   -3.3100   -2.6170 hn        1 588      0.469467
     48 HN32        5.2910   -3.0060   -2.3390 hn        1 588      0.469467
     49 H71         6.1090   -0.8910    5.5140 hc        1 588      0.107200
     50 H72         6.3800    0.8650    5.1860 hc        1 588      0.107200
     51 H9          4.4780    0.1650    6.8160 hx        1 588      0.167700
     52 HN1         3.3490   -0.8130    4.2820 hn        1 588      0.480300
     53 H201        1.0390   -3.4370    6.1910 h1        1 588      0.202033
     54 H202        1.0460   -2.2440    4.8910 h1        1 588      0.202033
     55 H203        0.6560   -1.7440    6.5680 h1        1 588      0.202033
     56 HN2         3.7090    1.8840    3.5510 hn        1 588      0.492300
     57 H121        3.4890    4.4040    5.1710 hx        1 588      0.121700
     58 H122        2.8320    4.2290    3.4640 hx        1 588      0.121700
     59 H131        5.8150    3.8250    4.2890 hc        1 588      0.057200
     60 H132        5.1390    3.7560    2.6020 hc        1 588      0.057200
     61 H151        5.0210    6.1980    4.5130 hc        1 588      0.062200
     62 H152        4.3280    6.1320    2.8420 hc        1 588      0.062200
     63 H141        6.6160    5.6320    1.9160 hc        1 588      0.042200
     64 H142        7.3070    5.6990    3.5860 hc        1 588      0.042200
     65 H161        5.8470    8.0210    2.1380 hc        1 588      0.049700
     66 H162        6.5410    8.0860    3.8110 hc        1 588      0.049700
     67 H163        7.6350    7.8570    2.3850 hc        1 588      0.049700
     68 H27         6.5880    0.4360   -1.7950 ha        1 588      0.149000
     69 H28         6.1730    2.2040   -3.4810 ha        1 588      0.164000
     70 H29         3.8370    2.8520   -4.0920 ha        1 588      0.172000
     71 H30         1.9000    1.7440   -2.9620 ha        1 588      0.178000
     72 H41         3.9180   -1.6570   -0.5400 hn        1 588      0.402800
     73 H33         5.8690   -4.5660   -2.2470 hn        1 588      0.469467
     74 H12         2.3260    0.0190    5.2280 hn        1 588      0.480300
     75 H22         2.3900    2.2560    4.4800 hn        1 588      0.492300
@<TRIPOS>BOND
     1    1    2 1   
     2    2    3 1   
     3    2    4 1   
     4    4    5 2   
     5    4   40 1   
     6    6    7 1   
     7    6   33 1   
     8    6   72 1   
     9    7    8 ar  
    10    7   12 ar  
    11    8    9 ar  
    12    8   42 1   
    13    9   10 ar  
    14    9   43 1   
    15   10   11 ar  
    16   10   18 1   
    17   11   12 ar  
    18   11   44 1   
    19   12   13 1   
    20   13   14 2   
    21   13   45 1   
    22   14   15 1   
    23   14   46 1   
    24   15   16 2   
    25   15   17 1   
    26   17   47 1   
    27   17   48 1   
    28   17   73 1   
    29   18   19 1   
    30   18   49 1   
    31   18   50 1   
    32   19   20 1   
    33   19   25 1   
    34   19   51 1   
    35   20   21 1   
    36   20   52 1   
    37   20   74 1   
    38   21   22 2   
    39   21   23 2   
    40   21   24 1   
    41   24   53 1   
    42   24   54 1   
    43   24   55 1   
    44   25   26 2   
    45   25   27 1   
    46   27   28 1   
    47   27   56 1   
    48   27   75 1   
    49   28   29 1   
    50   28   57 1   
    51   28   58 1   
    52   29   30 1   
    53   29   59 1   
    54   29   60 1   
    55   30   31 1   
    56   30   61 1   
    57   30   62 1   
    58   31   32 1   
    59   31   63 1   
    60   31   64 1   
    61   32   65 1   
    62   32   66 1   
    63   32   67 1   
    64   33   34 ar  
    65   33   38 ar  
    66   34   35 ar  
    67   34   68 1   
    68   35   36 ar  
    69   35   69 1   
    70   36   37 ar  
    71   36   70 1   
    72   37   38 ar  
    73   37   71 1   
    74   38   39 1   
    75   39   40 1   
    76   39   41 2   
@<TRIPOS>SUBSTRUCTURE
     1 588         1 TEMP              0 ****  ****    0 ROOT
