@<TRIPOS>MOLECULE
588
   74    77     1     0     0
SMALL
bcc


@<TRIPOS>ATOM
      1 O6          0.0000    0.0000    0.0000 o         1 588     -0.538000
      2 C24         1.3460    0.0000    0.0000 c2        1 588      0.393000
      3 O7          1.9520    0.0000    1.0510 o         1 588     -0.538000
      4 C8          2.0930   -0.0010   -1.2920 c2        1 588      0.204000
      5 O5          1.4860   -0.0010   -2.3430 o         1 588     -0.272000
      6 N4          3.4400   -0.0010   -1.2920 n         1 588      0.142000
      7 C2          4.1370    0.0000   -0.0850 c2        1 588      0.114000
      8 C3          4.6100    1.1910    0.4460 c2        1 588     -0.024000
      9 C4          5.3010    1.1900    1.6430 c2        1 588     -0.098000
     10 C5          5.5260    0.0040    2.3220 c2        1 588     -0.192000
     11 C6          5.0680   -1.1900    1.8090 c2        1 588     -0.112000
     12 C1          4.3630   -1.2050    0.6010 c3        1 588     -0.088000
     13 C17         3.8670   -2.4740    0.0500 c2        1 588      0.079000
     14 C18         3.9960   -3.6140    0.7600 c2        1 588     -0.350000
     15 C19         3.6140   -4.8950    0.1640 c3        1 588      0.130000
     16 O1          3.2680   -4.9440   -1.0020 o         1 588     -0.304000
     17 N3          3.6440   -6.0190    0.9060 nz        1 588      0.813000
     18 C7          6.2800    0.0190    3.6260 c3        1 588     -0.057000
     19 C9          5.2870    0.0730    4.7890 c3        1 588     -0.134000
     20 N1          4.4120   -1.1000    4.7400 ny        1 588     -0.014000
     21 S1          4.7760   -2.4430    5.6400 s6        1 588      2.213000
     22 O4          6.1120   -2.7290    5.2520 o         1 588     -0.793000
     23 O2          3.7000   -3.3220    5.3430 o         1 588     -0.793000
     24 C20         4.6910   -1.8320    7.3450 c3        1 588     -0.551000
     25 C11         4.4560    1.3250    4.6810 c2        1 588     -0.077000
     26 O8          3.3350    1.2720    4.2190 o         1 588     -0.149000
     27 N2          4.9560    2.5060    5.0970 ny        1 588      0.772000
     28 C12         4.1470    3.7230    4.9910 c3        1 588     -0.268000
     29 C13         4.9440    4.9130    5.5270 c3        1 588     -0.111000
     30 C15         4.1000    6.1840    5.4180 c3        1 588     -0.097000
     31 C14         4.8970    7.3750    5.9550 c3        1 588     -0.101000
     32 C16         4.0530    8.6450    5.8440 c3        1 588     -0.108000
     33 C26         4.1370   -0.0010   -2.4970 ca        1 588     -0.081000
     34 C27         4.6230   -1.1920   -3.0220 ca        1 588     -0.119000
     35 C28         5.3140   -1.1890   -4.2170 ca        1 588     -0.098000
     36 C29         5.5270   -0.0040   -4.9020 ca        1 588     -0.102000
     37 C30         5.0520    1.1870   -4.3980 ca        1 588     -0.043000
     38 C25         4.3470    1.2010   -3.1920 ca        1 588     -0.086000
     39 C31         3.8350    2.4720   -2.6460 c2        1 588      0.414000
     40 O9          3.1310    2.4670   -1.6560 o         1 588     -0.501500
     41 O10         4.1510    3.6370   -3.2440 o         1 588     -0.501500
     42 H3          4.4380    2.1240   -0.0780 ha        1 588      0.192000
     43 H4          5.6670    2.1230    2.0540 ha        1 588      0.081000
     44 H6          5.2470   -2.1150    2.3440 ha        1 588      0.108000
     45 H17         3.2840   -1.8870    0.7500 DU        1 588      0.203000
     46 H18         2.9670   -3.9550    0.7480 DU        1 588      0.030000
     47 HN31        4.5090   -6.0650    1.4070 hn        1 588      0.031333
     48 HN32        2.8820   -6.0100    1.5560 hn        1 588      0.031333
     49 H71         6.9250    0.8890    3.6600 hc        1 588      0.100500
     50 H72         6.8810   -0.8790    3.7060 hc        1 588      0.100500
     51 H9          5.8300    0.0800    5.7270 hx        1 588      0.098000
     52 HN1         3.4980   -0.7990    5.0150 hn        1 588      0.160500
     53 H201        5.6110   -1.3150    7.5900 h1        1 588      0.125000
     54 H202        3.8560   -1.1500    7.4440 h1        1 588      0.125000
     55 H203        4.5560   -2.6680    8.0220 h1        1 588      0.125000
     56 HN2         5.1930    2.3980    6.0630 hn        1 588      0.035000
     57 H121        3.8920    3.8980    3.9530 hx        1 588      0.139500
     58 H122        3.2400    3.6050    5.5710 hx        1 588      0.139500
     59 H131        5.1990    4.7380    6.5650 hc        1 588      0.066500
     60 H132        5.8510    5.0310    4.9470 hc        1 588      0.066500
     61 H151        3.1930    6.0650    5.9980 hc        1 588      0.073500
     62 H152        3.8450    6.3590    4.3800 hc        1 588      0.073500
     63 H141        5.1520    7.2000    6.9930 hc        1 588      0.054500
     64 H142        5.8040    7.4930    5.3750 hc        1 588      0.054500
     65 H161        3.8070    8.8260    4.8040 hc        1 588      0.051667
     66 H162        4.6130    9.4860    6.2340 hc        1 588      0.051667
     67 H163        3.1400    8.5230    6.4150 hc        1 588      0.051667
     68 H27         4.4350   -2.1260   -2.5080 ha        1 588      0.094000
     69 H28         5.6920   -2.1200   -4.6220 ha        1 588      0.097000
     70 H29         6.0700   -0.0130   -5.8390 ha        1 588      0.103000
     71 H30         5.2200    2.1110   -4.9380 ha        1 588      0.137000
     72 H33         3.5620   -6.8160    0.3070 hn        1 588      0.031333
     73 H12         4.3590   -1.3900    3.7840 hn        1 588      0.160500
     74 H22         5.7950    2.6670    4.5750 hn        1 588      0.035000
@<TRIPOS>BOND
     1    1    2 1   
     2    2    3 1   
     3    2    4 1   
     4    4    5 1   
     5    4    6 1   
     6    6    7 1   
     7    6   33 1   
     8    7    8 1   
     9    7   12 1   
    10    8    9 1   
    11    8   42 1   
    12    9   10 1   
    13    9   43 1   
    14   10   11 1   
    15   10   18 1   
    16   11   12 1   
    17   11   44 1   
    18   12   13 1   
    19   12   45 1   
    20   13   14 1   
    21   13   45 1   
    22   14   15 1   
    23   14   46 1   
    24   15   16 1   
    25   15   17 1   
    26   15   46 1   
    27   17   47 1   
    28   17   48 1   
    29   17   72 1   
    30   18   19 1   
    31   18   49 1   
    32   18   50 1   
    33   19   20 1   
    34   19   25 1   
    35   19   51 1   
    36   20   21 1   
    37   20   52 1   
    38   20   73 1   
    39   21   22 1   
    40   21   23 1   
    41   21   24 1   
    42   24   53 1   
    43   24   54 1   
    44   24   55 1   
    45   25   26 1   
    46   25   27 1   
    47   27   28 1   
    48   27   56 1   
    49   27   74 1   
    50   28   29 1   
    51   28   57 1   
    52   28   58 1   
    53   29   30 1   
    54   29   59 1   
    55   29   60 1   
    56   30   31 1   
    57   30   61 1   
    58   30   62 1   
    59   31   32 1   
    60   31   63 1   
    61   31   64 1   
    62   32   65 1   
    63   32   66 1   
    64   32   67 1   
    65   33   34 1   
    66   33   38 1   
    67   34   35 1   
    68   34   68 1   
    69   35   36 1   
    70   35   69 1   
    71   36   37 1   
    72   36   70 1   
    73   37   38 1   
    74   37   71 1   
    75   38   39 1   
    76   39   40 1   
    77   39   41 1   
@<TRIPOS>SUBSTRUCTURE
     1 588         1 TEMP              0 ****  ****    0 ROOT
