@<TRIPOS>MOLECULE
589
   66    71     1     0     0
SMALL
bcc


@<TRIPOS>ATOM
      1 C1          1.3610    0.4890    2.5520 ca        1 589     -0.114000
      2 C2          2.4690    0.3490    1.6730 ca        1 589     -0.041000
      3 C3          3.5260    1.2920    1.7350 ca        1 589     -0.025000
      4 C4          3.4510    2.3560    2.6770 ca        1 589     -0.120000
      5 C5          2.3690    2.4680    3.5150 ca        1 589     -0.123000
      6 C6          1.3130    1.5260    3.4520 ca        1 589     -0.126000
      7 C7          4.6380    1.1590    0.8640 ca        1 589     -0.142000
      8 C8          4.6900    0.1290   -0.0640 ca        1 589      0.049600
      9 C9          3.6240   -0.8310   -0.1130 ca        1 589     -0.117000
     10 C10         2.5540   -0.7130    0.7340 ca        1 589     -0.106000
     11 N11         5.7520   -0.0080   -0.9870 n         1 589     -0.275500
     12 C12         6.7180    1.0090   -1.2950 cc        1 589      0.383500
     13 N13         7.8960    0.4810   -1.6680 nd        1 589     -0.464300
     14 N14         7.7750   -0.8730   -1.6740 n         1 589     -0.180800
     15 C15         6.4720   -1.2530   -1.1460 c         1 589      0.732500
     16 O16         6.0250   -2.4010   -1.0270 o         1 589     -0.590500
     17 C17         8.9220   -1.7500   -1.4130 c3        1 589      0.113700
     18 C18         9.5270   -1.6110   -0.0090 c3        1 589     -0.126400
     19 C19        10.6650   -2.6040    0.1510 c3        1 589      0.126400
     20 O20        11.6660   -2.4320   -0.8460 os        1 589     -0.412600
     21 C21        11.1540   -2.5520   -2.1680 c3        1 589      0.126400
     22 C22        10.0420   -1.5540   -2.4440 c3        1 589     -0.126400
     23 C23         6.4070    2.4440   -1.3120 ca        1 589     -0.046900
     24 C24         5.3810    2.9330   -2.1250 ca        1 589     -0.254300
     25 C25         5.1490    4.3200   -2.1090 ca        1 589      0.431200
     26 N26         5.8320    5.1980   -1.3630 nb        1 589     -0.712000
     27 C27         6.8520    4.7170   -0.5750 ca        1 589      0.627200
     28 C28         7.1600    3.3230   -0.5320 ca        1 589     -0.261300
     29 N29         7.6520    5.6470    0.1220 nu        1 589     -0.817900
     30 C30         8.1220    5.2900    1.4530 c3        1 589      0.194500
     31 C31         8.9610    6.4290    2.0580 c3        1 589     -0.094900
     32 C32         9.5490    5.9980    3.3850 c3        1 589     -0.075400
     33 C33         8.4710    5.5770    4.3620 c3        1 589     -0.080400
     34 C34         7.5980    4.4880    3.7730 c3        1 589     -0.075400
     35 C35         7.0080    4.9110    2.4450 c3        1 589     -0.094900
     36 H1          0.5460   -0.2480    2.4950 ha        1 589      0.135000
     37 H4          4.2750    3.0840    2.7170 ha        1 589      0.133000
     38 H5          2.3070    3.2900    4.2430 ha        1 589      0.134000
     39 H6          0.4570    1.6380    4.1330 ha        1 589      0.134000
     40 H7          5.4470    1.9050    0.9400 ha        1 589      0.144000
     41 H9          3.6890   -1.6700   -0.8260 ha        1 589      0.165000
     42 H10         1.7370   -1.4510    0.6970 ha        1 589      0.141000
     43 H17         8.5010   -2.7960   -1.5240 h1        1 589      0.085700
     44 H18         8.7510   -1.8120    0.7730 hc        1 589      0.066700
     45 H18A        9.9150   -0.5700    0.1380 hc        1 589      0.066700
     46 H19        10.2760   -3.6560    0.1140 h1        1 589      0.051950
     47 H19A       11.2110   -2.4340    1.1170 h1        1 589      0.051950
     48 H21        12.0430   -2.3480   -2.8230 h1        1 589      0.051950
     49 H21A       10.7930   -3.6020   -2.3360 h1        1 589      0.051950
     50 H22        10.4470   -0.5120   -2.3780 hc        1 589      0.066700
     51 H22A        9.6500   -1.7110   -3.4810 hc        1 589      0.066700
     52 H24         4.7770    2.2680   -2.7540 ha        1 589      0.160000
     53 H25         4.3490    4.7600   -2.7340 h4        1 589      0.027100
     54 H28         7.9840    2.9450    0.0870 ha        1 589      0.156000
     55 HN29        7.3070    6.5880    0.0780 hn        1 589      0.408800
     56 H30         8.8010    4.3930    1.3320 h1        1 589      0.063700
     57 H31         8.3180    7.3360    2.2080 hc        1 589      0.048200
     58 H31A        9.7890    6.7070    1.3550 hc        1 589      0.048200
     59 H32        10.1380    6.8480    3.8200 hc        1 589      0.043950
     60 H32A       10.2600    5.1460    3.2220 hc        1 589      0.043950
     61 H33         7.8370    6.4640    4.6250 hc        1 589      0.043200
     62 H33A        8.9440    5.2080    5.3090 hc        1 589      0.043200
     63 H34         8.2060    3.5560    3.6340 hc        1 589      0.043950
     64 H34A        6.7680    4.2450    4.4870 hc        1 589      0.043950
     65 H35         6.3230    5.7850    2.5960 hc        1 589      0.048200
     66 H35A        6.3980    4.0690    2.0210 hc        1 589      0.048200
@<TRIPOS>BOND
     1    1    2 ar  
     2    1    6 ar  
     3    1   36 1   
     4    2    3 ar  
     5    2   10 ar  
     6    3    4 ar  
     7    3    7 ar  
     8    4    5 ar  
     9    4   37 1   
    10    5    6 ar  
    11    5   38 1   
    12    6   39 1   
    13    7    8 ar  
    14    7   40 1   
    15    8    9 ar  
    16    8   11 1   
    17    9   10 ar  
    18    9   41 1   
    19   10   42 1   
    20   11   12 1   
    21   11   15 1   
    22   12   13 2   
    23   12   23 1   
    24   13   14 1   
    25   14   15 1   
    26   14   17 1   
    27   15   16 2   
    28   17   18 1   
    29   17   22 1   
    30   17   43 1   
    31   18   19 1   
    32   18   44 1   
    33   18   45 1   
    34   19   20 1   
    35   19   46 1   
    36   19   47 1   
    37   20   21 1   
    38   21   22 1   
    39   21   48 1   
    40   21   49 1   
    41   22   50 1   
    42   22   51 1   
    43   23   24 ar  
    44   23   28 ar  
    45   24   25 ar  
    46   24   52 1   
    47   25   26 ar  
    48   25   53 1   
    49   26   27 ar  
    50   27   28 ar  
    51   27   29 1   
    52   28   54 1   
    53   29   30 1   
    54   29   55 1   
    55   30   31 1   
    56   30   35 1   
    57   30   56 1   
    58   31   32 1   
    59   31   57 1   
    60   31   58 1   
    61   32   33 1   
    62   32   59 1   
    63   32   60 1   
    64   33   34 1   
    65   33   61 1   
    66   33   62 1   
    67   34   35 1   
    68   34   63 1   
    69   34   64 1   
    70   35   65 1   
    71   35   66 1   
@<TRIPOS>SUBSTRUCTURE
     1 589         1 TEMP              0 ****  ****    0 ROOT
