@<TRIPOS>MOLECULE
589
   67    72     1     0     0
SMALL
bcc


@<TRIPOS>ATOM
      1 C1          0.0430   -0.2830    0.4490 ca        1 589     -0.110000
      2 C2          1.4210   -0.1750    0.1150 ca        1 589     -0.034000
      3 C3          2.3290    0.3290    1.0800 ca        1 589     -0.032000
      4 C4          1.8410    0.7080    2.3610 ca        1 589     -0.130000
      5 C5          0.5050    0.5910    2.6580 ca        1 589     -0.109000
      6 C6         -0.4030    0.0920    1.6920 ca        1 589     -0.114000
      7 C7          3.7060    0.4360    0.7550 ca        1 589     -0.144000
      8 C8          4.1640    0.0710   -0.5030 ca        1 589      0.011600
      9 C9          3.2460   -0.4570   -1.4680 ca        1 589     -0.115000
     10 C10         1.9160   -0.5700   -1.1570 ca        1 589     -0.093000
     11 N11         5.5230    0.2030   -0.8920 n         1 589     -0.249500
     12 C12         6.4550    1.0770   -0.2320 cc        1 589      0.309500
     13 N13         7.6990    0.5460   -0.1910 nd        1 589     -0.437300
     14 N14         7.6750   -0.6400   -0.8160 n         1 589     -0.180800
     15 C15         6.3080   -0.9780   -1.2080 c         1 589      0.737500
     16 O16         5.9470   -1.9800   -1.8270 o         1 589     -0.545500
     17 C17         8.6490   -1.7080   -0.5470 c3        1 589      0.114700
     18 C18         8.6010   -2.2500    0.8880 c3        1 589     -0.125900
     19 C19         9.6250   -3.3640    1.0420 c3        1 589      0.123900
     20 O20        10.9350   -2.9190    0.7120 os        1 589     -0.406600
     21 C21        11.0280   -2.4380   -0.6230 c3        1 589      0.123900
     22 C22        10.0840   -1.2700   -0.8660 c3        1 589     -0.125900
     23 C23         6.1450    2.4420    0.1840 ca        1 589     -0.017900
     24 C24         5.0740    3.1520   -0.3670 ca        1 589     -0.171300
     25 C25         4.8590    4.4850    0.0480 ca        1 589      0.431200
     26 N26         5.6310    5.1240    0.9360 nb        1 589     -0.650000
     27 C27         6.6750    4.4170    1.4600 ca        1 589      0.446200
     28 C28         6.9750    3.0820    1.1280 ca        1 589     -0.191300
     29 N29         7.5320    5.1200    2.4410 n4        1 589     -0.748700
     30 C30         8.8610    5.5390    1.8440 c3        1 589      0.128500
     31 C31         8.7190    6.8040    0.9930 c3        1 589     -0.099900
     32 C32        10.0630    7.1490    0.3800 c3        1 589     -0.077900
     33 C33        11.1270    7.3300    1.4400 c3        1 589     -0.091400
     34 C34        11.2330    6.1090    2.3290 c3        1 589     -0.077900
     35 C35         9.8960    5.7590    2.9540 c3        1 589     -0.099900
     36 H1         -0.6540   -0.6760   -0.3070 ha        1 589      0.146000
     37 H4          2.5530    1.0870    3.1090 ha        1 589      0.128000
     38 H5          0.1240    0.8780    3.6500 ha        1 589      0.142000
     39 H6         -1.4690    0.0070    1.9550 ha        1 589      0.147000
     40 H7          4.3960    0.8120    1.5270 ha        1 589      0.128000
     41 H9          3.6250   -0.7920   -2.4480 ha        1 589      0.167000
     42 H10         1.2080   -0.9800   -1.8950 ha        1 589      0.153000
     43 H17         8.3510   -2.5380   -1.2600 h1        1 589      0.098700
     44 H18         7.5830   -2.6540    1.1220 hc        1 589      0.063450
     45 H18A        8.8320   -1.4310    1.6170 hc        1 589      0.063450
     46 H19         9.3500   -4.2430    0.4000 h1        1 589      0.061450
     47 H19A        9.7070   -3.6860    2.1140 h1        1 589      0.061450
     48 H21        12.0980   -2.1110   -0.7220 h1        1 589      0.061450
     49 H21A       10.8180   -3.2730   -1.3430 h1        1 589      0.061450
     50 H22        10.3800   -0.4100   -0.2120 hc        1 589      0.063450
     51 H22A       10.1650   -0.9440   -1.9340 hc        1 589      0.063450
     52 H24         4.4010    2.6940   -1.1110 ha        1 589      0.198000
     53 H25         4.0170    5.0800   -0.3620 h4        1 589      0.066100
     54 H28         7.8270    2.5470    1.5750 ha        1 589      0.179000
     55 HN29        7.7020    4.4820    3.2260 hn        1 589      0.460300
     56 H30         9.1980    4.6820    1.1850 hx        1 589      0.109700
     57 H31         7.9650    6.6440    0.1780 hc        1 589      0.066450
     58 H31A        8.3670    7.6590    1.6300 hc        1 589      0.066450
     59 H32        10.3710    6.3410   -0.3350 hc        1 589      0.067450
     60 H32A        9.9540    8.0970   -0.2120 hc        1 589      0.067450
     61 H33        10.8900    8.2320    2.0640 hc        1 589      0.065700
     62 H33A       12.1170    7.5170    0.9460 hc        1 589      0.065700
     63 H34        11.9740    6.3020    3.1500 hc        1 589      0.067450
     64 H34A       11.6110    5.2370    1.7330 hc        1 589      0.067450
     65 H35         9.5690    6.5940    3.6270 hc        1 589      0.066450
     66 H35A       10.0110    4.8320    3.5750 hc        1 589      0.066450
     67 H292        7.0490    5.9590    2.7930 hn        1 589      0.460300
@<TRIPOS>BOND
     1    1    2 ar  
     2    1    6 ar  
     3    1   36 1   
     4    2    3 ar  
     5    2   10 ar  
     6    3    4 ar  
     7    3    7 ar  
     8    4    5 ar  
     9    4   37 1   
    10    5    6 ar  
    11    5   38 1   
    12    6   39 1   
    13    7    8 ar  
    14    7   40 1   
    15    8    9 ar  
    16    8   11 1   
    17    9   10 ar  
    18    9   41 1   
    19   10   42 1   
    20   11   12 1   
    21   11   15 1   
    22   12   13 2   
    23   12   23 1   
    24   13   14 1   
    25   14   15 1   
    26   14   17 1   
    27   15   16 2   
    28   17   18 1   
    29   17   22 1   
    30   17   43 1   
    31   18   19 1   
    32   18   44 1   
    33   18   45 1   
    34   19   20 1   
    35   19   46 1   
    36   19   47 1   
    37   20   21 1   
    38   21   22 1   
    39   21   48 1   
    40   21   49 1   
    41   22   50 1   
    42   22   51 1   
    43   23   24 ar  
    44   23   28 ar  
    45   24   25 ar  
    46   24   52 1   
    47   25   26 ar  
    48   25   53 1   
    49   26   27 ar  
    50   27   28 ar  
    51   27   29 1   
    52   28   54 1   
    53   29   30 1   
    54   29   55 1   
    55   29   67 1   
    56   30   31 1   
    57   30   35 1   
    58   30   56 1   
    59   31   32 1   
    60   31   57 1   
    61   31   58 1   
    62   32   33 1   
    63   32   59 1   
    64   32   60 1   
    65   33   34 1   
    66   33   61 1   
    67   33   62 1   
    68   34   35 1   
    69   34   63 1   
    70   34   64 1   
    71   35   65 1   
    72   35   66 1   
@<TRIPOS>SUBSTRUCTURE
     1 589         1 TEMP              0 ****  ****    0 ROOT
