@<TRIPOS>MOLECULE
589
   66    71     1     0     0
SMALL
bcc


@<TRIPOS>ATOM
      1 C1          1.3670    0.4870    2.5680 ca        1 589     -0.114000
      2 C2          2.4700    0.3540    1.6820 ca        1 589     -0.041000
      3 C3          3.5290    1.2920    1.7480 ca        1 589     -0.025000
      4 C4          3.4640    2.3450    2.7040 ca        1 589     -0.120000
      5 C5          2.3870    2.4500    3.5490 ca        1 589     -0.123000
      6 C6          1.3280    1.5130    3.4810 ca        1 589     -0.126000
      7 C7          4.6360    1.1660    0.8700 ca        1 589     -0.142000
      8 C8          4.6790    0.1460   -0.0710 ca        1 589      0.049600
      9 C9          3.6100   -0.8090   -0.1250 ca        1 589     -0.117000
     10 C10         2.5450   -0.6980    0.7290 ca        1 589     -0.106000
     11 N11         5.7360    0.0160   -1.0010 n         1 589     -0.275500
     12 C12         6.7030    1.0340   -1.3030 cc        1 589      0.383500
     13 N13         7.8770    0.5050   -1.6900 nd        1 589     -0.464300
     14 N14         7.7500   -0.8470   -1.7120 n         1 589     -0.180800
     15 C15         6.4490   -1.2290   -1.1810 c         1 589      0.732500
     16 O16         5.9990   -2.3760   -1.0730 o         1 589     -0.590500
     17 C17         8.8960   -1.7320   -1.4690 c3        1 589      0.113700
     18 C18         9.5100   -1.6120   -0.0670 c3        1 589     -0.126900
     19 C19        10.6460   -2.6110    0.0740 c3        1 589      0.126400
     20 O20        11.6400   -2.4310   -0.9270 os        1 589     -0.412600
     21 C21        11.1200   -2.5340   -2.2480 c3        1 589      0.126400
     22 C22        10.0100   -1.5280   -2.5040 c3        1 589     -0.126900
     23 C23         6.3980    2.4700   -1.3000 ca        1 589     -0.046900
     24 C24         5.3690    2.9740   -2.1010 ca        1 589     -0.254300
     25 C25         5.1430    4.3610   -2.0670 ca        1 589      0.431200
     26 N26         5.8340    5.2260   -1.3150 nb        1 589     -0.712000
     27 C27         6.8570    4.7320   -0.5380 ca        1 589      0.627200
     28 C28         7.1590    3.3370   -0.5140 ca        1 589     -0.261300
     29 N29         7.6660    5.6500    0.1640 nh        1 589     -0.817900
     30 C30         8.1400    5.2750    1.4890 c3        1 589      0.193500
     31 C31         8.9890    6.4030    2.1030 c3        1 589     -0.094900
     32 C32         9.5820    5.9540    3.4210 c3        1 589     -0.075400
     33 C33         8.5070    5.5270    4.3990 c3        1 589     -0.080400
     34 C34         7.6240    4.4500    3.8030 c3        1 589     -0.075400
     35 C35         7.0300    4.8910    2.4820 c3        1 589     -0.094900
     36 H1          0.5490   -0.2470    2.5070 ha        1 589      0.135000
     37 H4          4.2910    3.0700    2.7470 ha        1 589      0.133000
     38 H5          2.3320    3.2640    4.2870 ha        1 589      0.134000
     39 H6          0.4760    1.6190    4.1680 ha        1 589      0.134000
     40 H7          5.4480    1.9080    0.9500 ha        1 589      0.144000
     41 H9          3.6670   -1.6400   -0.8480 ha        1 589      0.165000
     42 H10         1.7250   -1.4320    0.6880 ha        1 589      0.141000
     43 H17         8.4700   -2.7760   -1.5890 h1        1 589      0.085700
     44 H18         9.9040   -0.5750    0.0900 hc        1 589      0.066700
     45 H18A        8.7380   -1.8200    0.7180 hc        1 589      0.066700
     46 H19        11.1980   -2.4550    1.0380 h1        1 589      0.051950
     47 H19A       10.2520   -3.6620    0.0270 h1        1 589      0.051950
     48 H21        10.7530   -3.5800   -2.4250 h1        1 589      0.051950
     49 H21A       12.0050   -2.3250   -2.9050 h1        1 589      0.051950
     50 H22         9.6110   -1.6710   -3.5410 hc        1 589      0.066700
     51 H22A       10.4200   -0.4880   -2.4280 hc        1 589      0.066700
     52 H24         4.7580    2.3180   -2.7340 ha        1 589      0.160000
     53 H25         4.3410    4.8120   -2.6810 h4        1 589      0.027100
     54 H28         7.9860    2.9470    0.0940 ha        1 589      0.156000
     55 HN29        7.3240    6.5930    0.1330 hn        1 589      0.408800
     56 H30         8.8140    4.3760    1.3540 h1        1 589      0.063700
     57 H31         8.3530    7.3120    2.2660 hc        1 589      0.048200
     58 H31A        9.8150    6.6840    1.3980 hc        1 589      0.048200
     59 H32        10.1780    6.7950    3.8620 hc        1 589      0.043950
     60 H32A       10.2870    5.0990    3.2440 hc        1 589      0.043950
     61 H33         8.9830    5.1450    5.3390 hc        1 589      0.043200
     62 H33A        7.8790    6.4150    4.6750 hc        1 589      0.043200
     63 H34         8.2260    3.5160    3.6500 hc        1 589      0.043950
     64 H34A        6.7960    4.2040    4.5180 hc        1 589      0.043950
     65 H35         6.3510    5.7680    2.6470 hc        1 589      0.048200
     66 H35A        6.4130    4.0580    2.0530 hc        1 589      0.048200
@<TRIPOS>BOND
     1    1    2 ar  
     2    1    6 ar  
     3    1   36 1   
     4    2    3 ar  
     5    2   10 ar  
     6    3    4 ar  
     7    3    7 ar  
     8    4    5 ar  
     9    4   37 1   
    10    5    6 ar  
    11    5   38 1   
    12    6   39 1   
    13    7    8 ar  
    14    7   40 1   
    15    8    9 ar  
    16    8   11 1   
    17    9   10 ar  
    18    9   41 1   
    19   10   42 1   
    20   11   12 1   
    21   11   15 1   
    22   12   13 2   
    23   12   23 1   
    24   13   14 1   
    25   14   15 1   
    26   14   17 1   
    27   15   16 2   
    28   17   18 1   
    29   17   22 1   
    30   17   43 1   
    31   18   19 1   
    32   18   44 1   
    33   18   45 1   
    34   19   20 1   
    35   19   46 1   
    36   19   47 1   
    37   20   21 1   
    38   21   22 1   
    39   21   48 1   
    40   21   49 1   
    41   22   50 1   
    42   22   51 1   
    43   23   24 ar  
    44   23   28 ar  
    45   24   25 ar  
    46   24   52 1   
    47   25   26 ar  
    48   25   53 1   
    49   26   27 ar  
    50   27   28 ar  
    51   27   29 1   
    52   28   54 1   
    53   29   30 1   
    54   29   55 1   
    55   30   31 1   
    56   30   35 1   
    57   30   56 1   
    58   31   32 1   
    59   31   57 1   
    60   31   58 1   
    61   32   33 1   
    62   32   59 1   
    63   32   60 1   
    64   33   34 1   
    65   33   61 1   
    66   33   62 1   
    67   34   35 1   
    68   34   63 1   
    69   34   64 1   
    70   35   65 1   
    71   35   66 1   
@<TRIPOS>SUBSTRUCTURE
     1 589         1 TEMP              0 ****  ****    0 ROOT
