@<TRIPOS>MOLECULE
589
   66    71     1     0     0
SMALL
bcc


@<TRIPOS>ATOM
      1 C1          4.9120   -1.6020    1.8890 ca        1 589     -0.114000
      2 C2          3.9970   -0.8410    1.1130 ca        1 589     -0.041000
      3 C3          2.6440   -1.2560    1.0330 ca        1 589     -0.025000
      4 C4          2.2350   -2.4250    1.7340 ca        1 589     -0.120000
      5 C5          3.1400   -3.1420    2.4780 ca        1 589     -0.123000
      6 C6          4.4920   -2.7270    2.5560 ca        1 589     -0.126000
      7 C7          1.7210   -0.5020    0.2640 ca        1 589     -0.142000
      8 C8          2.1360    0.6250   -0.4320 ca        1 589      0.049600
      9 C9          3.5040    1.0490   -0.3370 ca        1 589     -0.117000
     10 C10         4.3960    0.3300    0.4140 ca        1 589     -0.106000
     11 N11         1.2630    1.3740   -1.2540 n         1 589     -0.275500
     12 C12        -0.0230    0.9310   -1.7150 cc        1 589      0.383500
     13 N13        -0.8630    1.9620   -1.9140 nd        1 589     -0.464300
     14 N14        -0.1930    3.1150   -1.6510 n         1 589     -0.180800
     15 C15         1.1280    2.8080   -1.1210 c         1 589      0.732500
     16 O16         2.0030    3.6190   -0.7940 o         1 589     -0.590500
     17 C17        -0.8860    4.3120   -1.1610 c3        1 589      0.113700
     18 C18        -1.5490    4.1490    0.2140 c3        1 589     -0.126400
     19 C19        -2.1820    5.4670    0.6280 c3        1 589      0.126400
     20 O20        -3.1230    5.9310   -0.3320 os        1 589     -0.412600
     21 C21        -2.5550    6.0990   -1.6260 c3        1 589      0.126400
     22 C22        -1.9440    4.8110   -2.1540 c3        1 589     -0.126400
     23 C23        -0.3320   -0.4670   -2.0380 ca        1 589     -0.046900
     24 C24         0.4320   -1.1570   -2.9840 ca        1 589     -0.254300
     25 C25         0.0700   -2.4870   -3.2620 ca        1 589      0.431200
     26 N26        -0.9430   -3.1380   -2.6770 nb        1 589     -0.712000
     27 C27        -1.7040   -2.4530   -1.7580 ca        1 589      0.627200
     28 C28        -1.4110   -1.0990   -1.4170 ca        1 589     -0.261300
     29 N29        -2.8440   -3.0930   -1.2270 nh        1 589     -0.817900
     30 C30        -3.1770   -2.8570    0.1710 c3        1 589      0.194500
     31 C31        -4.4350   -3.6470    0.5730 c3        1 589     -0.094900
     32 C32        -4.8440   -3.2950    1.9880 c3        1 589     -0.075400
     33 C33        -3.7280   -3.5660    2.9740 c3        1 589     -0.080400
     34 C34        -2.4610   -2.8390    2.5770 c3        1 589     -0.075400
     35 C35        -2.0460   -3.1830    1.1630 c3        1 589     -0.094900
     36 H1          5.9600   -1.2710    1.9430 ha        1 589      0.135000
     37 H4          1.1830   -2.7410    1.6660 ha        1 589      0.133000
     38 H5          2.8280   -4.0470    3.0200 ha        1 589      0.134000
     39 H6          5.1980   -3.3190    3.1570 ha        1 589      0.134000
     40 H7          0.6740   -0.8470    0.2260 ha        1 589      0.144000
     41 H9          3.8200    1.9670   -0.8600 ha        1 589      0.165000
     42 H10         5.4450    0.6560    0.4880 ha        1 589      0.141000
     43 H17        -0.0660    5.0910   -1.0770 h1        1 589      0.085700
     44 H18        -2.3380    3.3560    0.1660 hc        1 589      0.066700
     45 H18A       -0.7910    3.8490    0.9810 hc        1 589      0.066700
     46 H19        -2.7880    5.3430    1.5650 h1        1 589      0.051950
     47 H19A       -1.3920    6.2490    0.7870 h1        1 589      0.051950
     48 H21        -3.4230    6.4170   -2.2640 h1        1 589      0.051950
     49 H21A       -1.7870    6.9170   -1.5940 h1        1 589      0.051950
     50 H22        -1.4820    5.0020   -3.1550 hc        1 589      0.066700
     51 H22A       -2.7460    4.0390   -2.2810 hc        1 589      0.066700
     52 H24         1.2820   -0.6850   -3.4930 ha        1 589      0.160000
     53 H25         0.6410   -3.0790   -4.0020 h4        1 589      0.027100
     54 H28        -2.0300   -0.5500   -0.6950 ha        1 589      0.156000
     55 HN29       -2.9160   -4.0610   -1.4780 hn        1 589      0.408800
     56 H30        -3.4200   -1.7560    0.2700 h1        1 589      0.063700
     57 H31        -5.2750   -3.4080   -0.1300 hc        1 589      0.048200
     58 H31A       -4.2310   -4.7470    0.5020 hc        1 589      0.048200
     59 H32        -5.1330   -2.2120    2.0360 hc        1 589      0.043950
     60 H32A       -5.7480   -3.8970    2.2680 hc        1 589      0.043950
     61 H33        -4.0440   -3.2390    3.9990 hc        1 589      0.043200
     62 H33A       -3.5280   -4.6690    3.0190 hc        1 589      0.043200
     63 H34        -2.6230   -1.7320    2.6610 hc        1 589      0.043950
     64 H34A       -1.6330   -3.1110    3.2830 hc        1 589      0.043950
     65 H35        -1.7900   -4.2720    1.0980 hc        1 589      0.048200
     66 H35A       -1.1270   -2.6000    0.8890 hc        1 589      0.048200
@<TRIPOS>BOND
     1    1    2 ar  
     2    1    6 ar  
     3    1   36 1   
     4    2    3 ar  
     5    2   10 ar  
     6    3    4 ar  
     7    3    7 ar  
     8    4    5 ar  
     9    4   37 1   
    10    5    6 ar  
    11    5   38 1   
    12    6   39 1   
    13    7    8 ar  
    14    7   40 1   
    15    8    9 ar  
    16    8   11 1   
    17    9   10 ar  
    18    9   41 1   
    19   10   42 1   
    20   11   12 1   
    21   11   15 1   
    22   12   13 2   
    23   12   23 1   
    24   13   14 1   
    25   14   15 1   
    26   14   17 1   
    27   15   16 2   
    28   17   18 1   
    29   17   22 1   
    30   17   43 1   
    31   18   19 1   
    32   18   44 1   
    33   18   45 1   
    34   19   20 1   
    35   19   46 1   
    36   19   47 1   
    37   20   21 1   
    38   21   22 1   
    39   21   48 1   
    40   21   49 1   
    41   22   50 1   
    42   22   51 1   
    43   23   24 ar  
    44   23   28 ar  
    45   24   25 ar  
    46   24   52 1   
    47   25   26 ar  
    48   25   53 1   
    49   26   27 ar  
    50   27   28 ar  
    51   27   29 1   
    52   28   54 1   
    53   29   30 1   
    54   29   55 1   
    55   30   31 1   
    56   30   35 1   
    57   30   56 1   
    58   31   32 1   
    59   31   57 1   
    60   31   58 1   
    61   32   33 1   
    62   32   59 1   
    63   32   60 1   
    64   33   34 1   
    65   33   61 1   
    66   33   62 1   
    67   34   35 1   
    68   34   63 1   
    69   34   64 1   
    70   35   65 1   
    71   35   66 1   
@<TRIPOS>SUBSTRUCTURE
     1 589         1 TEMP              0 ****  ****    0 ROOT
