@<TRIPOS>MOLECULE
58D
   41    43     1     0     0
SMALL
bcc


@<TRIPOS>ATOM
      1 C4          0.0890    0.2670   -0.0400 c         1 58D      0.717100
      2 C7         -0.1550   -1.5900    1.6080 c3        1 58D      0.057700
      3 C8          0.7320   -2.6910    0.9940 c3        1 58D     -0.046100
      4 C10        -0.8380   -4.6370    0.9680 ca        1 58D     -0.090000
      5 C13        -0.7950   -4.7040   -1.8270 ca        1 58D     -0.178500
      6 C15         0.6120   -0.9340    2.7710 c         1 58D      0.679500
      7 C20         4.3670    0.4750    0.0630 ca        1 58D     -0.083000
      8 C22        -3.0380   -7.5020   -1.1730 c3        1 58D      0.112700
      9 C12        -1.5610   -5.6360   -1.1020 ca        1 58D      0.127100
     10 C11        -1.5840   -5.6040    0.2970 ca        1 58D     -0.178500
     11 C14        -0.0590   -3.7470   -1.1390 ca        1 58D     -0.090000
     12 C9         -0.0740   -3.7020    0.2610 ca        1 58D     -0.123300
     13 O16         0.2940   -1.1710    3.9500 o         1 58D     -0.622500
     14 N17         1.6550   -0.0580    2.5230 n         1 58D     -0.467100
     15 C18         2.2840    0.1360    1.2850 ca        1 58D      0.093600
     16 C19         3.6970    0.2620    1.2590 ca        1 58D     -0.182000
     17 C1          3.6600    0.5710   -1.1370 ca        1 58D     -0.158000
     18 C2          2.2760    0.4710   -1.1260 ca        1 58D     -0.060000
     19 C3          1.5740    0.2550    0.0700 ca        1 58D     -0.163600
     20 O5         -0.4620    1.0710   -0.8220 o         1 58D     -0.635500
     21 N6         -0.6910   -0.6220    0.6880 n         1 58D     -0.464800
     22 C23        -2.1280   -0.5700    0.5800 c3        1 58D      0.074300
     23 H1         -1.0350   -2.1170    2.1020 h1        1 58D      0.100700
     24 H2          1.2770   -3.1950    1.8390 hc        1 58D      0.065700
     25 H3          1.5020   -2.2390    0.3150 hc        1 58D      0.065700
     26 H4         -0.8490   -4.6120    2.0690 ha        1 58D      0.136000
     27 H5         -0.7910   -4.7450   -2.9250 ha        1 58D      0.145500
     28 H6          5.4650    0.5680    0.0640 ha        1 58D      0.140000
     29 H7         -2.3910   -8.1360   -0.5200 h1        1 58D      0.045033
     30 H8         -3.8290   -6.9970   -0.5670 h1        1 58D      0.045033
     31 H9         -3.4960   -8.1140   -1.9900 h1        1 58D      0.045033
     32 H10        -2.1760   -6.3290    0.8720 ha        1 58D      0.145500
     33 H11         0.5410   -3.0170   -1.7040 ha        1 58D      0.136000
     34 H12         2.1530    0.2780    3.3230 hn        1 58D      0.328500
     35 H13         4.2720    0.1940    2.1950 ha        1 58D      0.140000
     36 H14         4.1950    0.7380   -2.0830 ha        1 58D      0.143000
     37 H15         1.6990    0.5840   -2.0600 ha        1 58D      0.159000
     38 H16        -2.5790   -0.3130    1.5760 h1        1 58D      0.053700
     39 H17        -2.4330    0.2080   -0.1700 h1        1 58D      0.053700
     40 H18        -2.5200   -1.5690    0.2490 h1        1 58D      0.053700
     41 O21        -2.2560   -6.5440   -1.8760 os        1 58D     -0.325900
@<TRIPOS>BOND
     1    1   19 1   
     2    1   20 2   
     3    1   21 1   
     4    2    3 1   
     5    2    6 1   
     6    2   21 1   
     7    2   23 1   
     8    3   12 1   
     9    3   24 1   
    10    3   25 1   
    11    4   10 ar  
    12    4   12 ar  
    13    4   26 1   
    14    5    9 ar  
    15    5   11 ar  
    16    5   27 1   
    17    6   13 2   
    18    6   14 1   
    19    7   16 ar  
    20    7   17 ar  
    21    7   28 1   
    22    8   29 1   
    23    8   30 1   
    24    8   31 1   
    25    8   41 1   
    26    9   10 ar  
    27    9   41 1   
    28   10   32 1   
    29   11   12 ar  
    30   11   33 1   
    31   14   15 1   
    32   14   34 1   
    33   15   16 ar  
    34   15   19 ar  
    35   16   35 1   
    36   17   18 ar  
    37   17   36 1   
    38   18   19 ar  
    39   18   37 1   
    40   21   22 1   
    41   22   38 1   
    42   22   39 1   
    43   22   40 1   
@<TRIPOS>SUBSTRUCTURE
     1 58D         1 TEMP              0 ****  ****    0 ROOT
