@<TRIPOS>MOLECULE
58D
   41    39     1     0     0
SMALL
bcc


@<TRIPOS>ATOM
      1 C4          0.1120    0.7440    0.2900 c2        1 58D      0.367000
      2 C7         -0.0860   -0.8430    2.1990 c3        1 58D      0.062000
      3 C8          0.3690   -2.1230    1.5500 c2        1 58D     -0.182000
      4 C10        -2.2440   -6.1220    1.1440 c1        1 58D     -0.222500
      5 C13         0.4630   -4.8840   -2.4370 c1        1 58D     -0.622000
      6 C15         1.0730   -0.2960    3.0610 c2        1 58D      0.291000
      7 C20         4.2560    0.7260   -0.5250 c1        1 58D     -0.121000
      8 C22        -2.1700   -7.3270   -2.6880 c3        1 58D     -0.099000
      9 C12        -0.2580   -5.9990   -2.2990 c2        1 58D      0.308000
     10 C11        -2.8200   -7.1440    0.9120 c1        1 58D     -0.222500
     11 C14         1.1570   -3.8370   -2.5440 c1        1 58D      0.150000
     12 C9          0.0100   -3.3190    2.0090 c2        1 58D     -0.200000
     13 O16         1.0350   -0.4250    4.2980 o         1 58D     -0.342000
     14 N17         2.1500    0.3760    2.5020 ns        1 58D     -0.301000
     15 C18         2.4970    0.4850    1.1620 c2        1 58D      0.106000
     16 C19         3.8280    0.6710    0.7790 c2        1 58D     -0.250000
     17 C1          2.1980   -0.7130   -2.2220 c2        1 58D     -0.132000
     18 C2          1.9110   -0.1540   -1.0870 c1        1 58D     -0.109000
     19 C3          1.5220    0.2940    0.0940 c2        1 58D     -0.109000
     20 O5         -0.3980    1.6170   -0.4360 o         1 58D     -0.340000
     21 N6         -0.6320    0.1480    1.3040 n         1 58D     -0.334000
     22 C23        -1.9960    0.5460    1.5320 c3        1 58D     -0.077000
     23 H1         -0.6440   -3.4590    2.8810 ha        1 58D      0.118000
     24 H2         -0.9000   -1.0980    2.9530 h1        1 58D      0.137000
     25 H3          1.0250   -2.0160    0.6700 ha        1 58D      0.149000
     26 H4         -1.7360   -5.2110    1.3520 ha        1 58D      0.222500
     27 H5          0.0630   -6.8540   -1.6670 h4        1 58D      0.136000
     28 H6          2.0140   -1.7940   -2.4080 ha        1 58D      0.177500
     29 H7         -2.4410   -7.3860   -1.6040 h1        1 58D      0.103333
     30 H8         -1.5680   -8.2140   -3.0010 h1        1 58D      0.103333
     31 H9         -3.0840   -7.2180   -3.3250 h1        1 58D      0.103333
     32 H10        -3.3400   -8.0510    0.7270 ha        1 58D      0.222500
     33 H11         0.3710   -4.2470    1.5440 ha        1 58D      0.118000
     34 H12         2.8370    0.7050    3.1540 hn        1 58D      0.245000
     35 H13         4.6210    0.6980    1.5520 ha        1 58D      0.161000
     36 H14         3.7980    1.2950   -1.3350 ha        1 58D      0.107000
     37 H15         2.6490   -0.1570   -3.0580 ha        1 58D      0.177500
     38 H16        -2.6750   -0.3440    1.4360 h1        1 58D      0.090667
     39 H17        -2.1060    0.9770    2.5640 h1        1 58D      0.090667
     40 H18        -2.3010    1.3200    0.7780 h1        1 58D      0.090667
     41 O21        -1.4400   -6.1190   -2.9440 os        1 58D     -0.174000
@<TRIPOS>BOND
     1    1   19 1   
     2    1   20 1   
     3    1   21 1   
     4    2    3 1   
     5    2    6 1   
     6    2   21 1   
     7    2   24 1   
     8    3   12 1   
     9    3   25 1   
    10    4   10 1   
    11    4   26 1   
    12    5    9 1   
    13    5   11 1   
    14    6   13 1   
    15    6   14 1   
    16    7   16 1   
    17    7   36 1   
    18    8   29 1   
    19    8   30 1   
    20    8   31 1   
    21    8   41 1   
    22    9   27 1   
    23    9   41 1   
    24   10   32 1   
    25   12   23 1   
    26   12   33 1   
    27   14   15 1   
    28   14   34 1   
    29   15   16 1   
    30   15   19 1   
    31   16   35 1   
    32   17   18 1   
    33   17   28 1   
    34   17   37 1   
    35   18   19 1   
    36   21   22 1   
    37   22   38 1   
    38   22   39 1   
    39   22   40 1   
@<TRIPOS>SUBSTRUCTURE
     1 58D         1 TEMP              0 ****  ****    0 ROOT
