@<TRIPOS>MOLECULE
58J
   39    41     1     0     0
SMALL
bcc


@<TRIPOS>ATOM
      1 C4          0.0800    0.3410   -0.0330 c         1 58J      0.720100
      2 C7         -0.1410   -1.4720   -1.6680 cc        1 58J     -0.038600
      3 C8         -0.3040   -2.8150   -1.6600 cf        1 58J     -0.054200
      4 C10        -1.7570   -4.7250   -1.1530 ca        1 58J     -0.072000
      5 C13        -1.6540   -4.1760    1.5860 ca        1 58J     -0.186000
      6 C15         0.6550   -0.8910   -2.8100 c         1 58J      0.695700
      7 C20         4.3610    0.2420    0.0560 ca        1 58J     -0.083000
      8 C22        -3.7980   -7.1250    1.6210 c3        1 58J      0.112700
      9 O16         0.3800   -1.1350   -3.9980 o         1 58J     -0.613500
     10 N17         1.7200   -0.0470   -2.5230 ns        1 58J     -0.466100
     11 C18         2.3140    0.0780   -1.2580 ca        1 58J      0.095600
     12 C3          1.5640    0.2350   -0.0730 ca        1 58J     -0.158600
     13 C19         3.7300    0.0960   -1.1700 ca        1 58J     -0.179000
     14 C1          3.6120    0.3780    1.2270 ca        1 58J     -0.156000
     15 C2          2.2250    0.3820    1.1560 ca        1 58J     -0.060000
     16 N6         -0.7020   -0.5500   -0.7640 n         1 58J     -0.392000
     17 C23        -2.1420   -0.4720   -0.7160 c3        1 58J      0.075300
     18 O5         -0.4720    1.1890    0.6970 o         1 58J     -0.628500
     19 C9         -1.0240   -3.6210   -0.6920 ca        1 58J     -0.112800
     20 C14        -0.9780   -3.3630    0.6870 ca        1 58J     -0.072000
     21 C12        -2.3970   -5.2710    1.1040 ca        1 58J      0.138100
     22 O21        -3.0350   -6.0130    2.0760 os        1 58J     -0.323900
     23 C11        -2.4480   -5.5470   -0.2680 ca        1 58J     -0.186000
     24 H1          0.1280   -3.3840   -2.5070 ha        1 58J      0.151000
     25 H2         -1.7920   -4.9430   -2.2320 ha        1 58J      0.141500
     26 H3         -1.6200   -3.9800    2.6670 ha        1 58J      0.147500
     27 H4          5.4610    0.2510    0.1040 ha        1 58J      0.139000
     28 H5         -4.2140   -7.5580    2.5660 h1        1 58J      0.046700
     29 H6         -4.6210   -6.7880    0.9450 h1        1 58J      0.046700
     30 H7         -3.1430   -7.8670    1.1020 h1        1 58J      0.046700
     31 H8          2.2730    0.2510   -3.3010 hn        1 58J      0.328500
     32 H9          4.3390   -0.0060   -2.0820 ha        1 58J      0.140000
     33 H10         4.1160    0.4910    2.1970 ha        1 58J      0.143000
     34 H11         1.6190    0.5230    2.0670 ha        1 58J      0.157000
     35 H12        -2.5570   -1.4760   -0.4280 h1        1 58J      0.056033
     36 H13        -2.4570    0.2920    0.0440 h1        1 58J      0.056033
     37 H14        -2.5470   -0.1810   -1.7210 h1        1 58J      0.056033
     38 H15        -0.3910   -2.5130    1.0690 ha        1 58J      0.141500
     39 H16        -3.0230   -6.4000   -0.6530 ha        1 58J      0.147500
@<TRIPOS>BOND
     1    1   12 1   
     2    1   16 1   
     3    1   18 2   
     4    2    3 2   
     5    2    6 1   
     6    2   16 1   
     7    3   19 1   
     8    3   24 1   
     9    4   19 ar  
    10    4   23 ar  
    11    4   25 1   
    12    5   20 ar  
    13    5   21 ar  
    14    5   26 1   
    15    6    9 2   
    16    6   10 1   
    17    7   13 ar  
    18    7   14 ar  
    19    7   27 1   
    20    8   22 1   
    21    8   28 1   
    22    8   29 1   
    23    8   30 1   
    24   10   11 1   
    25   10   31 1   
    26   11   12 ar  
    27   11   13 ar  
    28   12   15 ar  
    29   13   32 1   
    30   14   15 ar  
    31   14   33 1   
    32   15   34 1   
    33   16   17 1   
    34   17   35 1   
    35   17   36 1   
    36   17   37 1   
    37   19   20 ar  
    38   20   38 1   
    39   21   22 1   
    40   21   23 ar  
    41   23   39 1   
@<TRIPOS>SUBSTRUCTURE
     1 58J         1 TEMP              0 ****  ****    0 ROOT
