@<TRIPOS>MOLECULE
58J
   39    41     1     0     0
SMALL
bcc


@<TRIPOS>ATOM
      1 C4          0.0820    0.3420   -0.0360 c         1 58J      0.720100
      2 C7         -0.1380   -1.4740   -1.6690 cc        1 58J     -0.038600
      3 C8         -0.3020   -2.8170   -1.6590 cf        1 58J     -0.053200
      4 C10        -1.7570   -4.7260   -1.1520 ca        1 58J     -0.072000
      5 C13        -1.6600   -4.1710    1.5860 ca        1 58J     -0.186000
      6 C15         0.6620   -0.8960   -2.8100 c         1 58J      0.695700
      7 C20         4.3630    0.2380    0.0620 ca        1 58J     -0.083000
      8 C22        -3.8060   -7.1190    1.6210 c3        1 58J      0.112700
      9 O16         0.3890   -1.1420   -3.9980 o         1 58J     -0.613500
     10 N17         1.7270   -0.0530   -2.5220 n         1 58J     -0.466100
     11 C18         2.3190    0.0740   -1.2570 ca        1 58J      0.095600
     12 C3          1.5660    0.2330   -0.0740 ca        1 58J     -0.158600
     13 C19         3.7340    0.0910   -1.1660 ca        1 58J     -0.179000
     14 C1          3.6120    0.3760    1.2300 ca        1 58J     -0.156000
     15 C2          2.2250    0.3820    1.1560 ca        1 58J     -0.060000
     16 N6         -0.6990   -0.5500   -0.7680 n         1 58J     -0.392000
     17 C23        -2.1390   -0.4710   -0.7220 c3        1 58J      0.075300
     18 O5         -0.4710    1.1910    0.6910 o         1 58J     -0.628500
     19 C9         -1.0240   -3.6210   -0.6910 ca        1 58J     -0.112800
     20 C14        -0.9820   -3.3600    0.6880 ca        1 58J     -0.072000
     21 C12        -2.4020   -5.2670    1.1050 ca        1 58J      0.138100
     22 O21        -3.0430   -6.0060    2.0770 os        1 58J     -0.323900
     23 C11        -2.4510   -5.5450   -0.2670 ca        1 58J     -0.186000
     24 H1          0.1310   -3.3880   -2.5050 ha        1 58J      0.151000
     25 H2         -1.7890   -4.9450   -2.2310 ha        1 58J      0.141500
     26 H3         -1.6290   -3.9730    2.6670 ha        1 58J      0.147500
     27 H4          5.4630    0.2450    0.1120 ha        1 58J      0.139000
     28 H5         -4.2250   -7.5500    2.5660 h1        1 58J      0.046700
     29 H6         -3.1500   -7.8620    1.1060 h1        1 58J      0.046700
     30 H7         -4.6270   -6.7830    0.9430 h1        1 58J      0.046700
     31 H8          2.2810    0.2430   -3.3000 hn        1 58J      0.328500
     32 H9          4.3450   -0.0130   -2.0770 ha        1 58J      0.140000
     33 H10         4.1140    0.4900    2.2020 ha        1 58J      0.143000
     34 H11         1.6170    0.5250    2.0660 ha        1 58J      0.157000
     35 H12        -2.5420   -0.1840   -1.7300 h1        1 58J      0.056033
     36 H13        -2.4550    0.2970    0.0330 h1        1 58J      0.056033
     37 H14        -2.5550   -1.4730   -0.4310 h1        1 58J      0.056033
     38 H15        -0.3950   -2.5100    1.0690 ha        1 58J      0.141500
     39 H16        -3.0250   -6.3990   -0.6520 ha        1 58J      0.147500
@<TRIPOS>BOND
     1    1   12 1   
     2    1   16 1   
     3    1   18 2   
     4    2    3 2   
     5    2    6 1   
     6    2   16 1   
     7    3   19 1   
     8    3   24 1   
     9    4   19 ar  
    10    4   23 ar  
    11    4   25 1   
    12    5   20 ar  
    13    5   21 ar  
    14    5   26 1   
    15    6    9 2   
    16    6   10 1   
    17    7   13 ar  
    18    7   14 ar  
    19    7   27 1   
    20    8   22 1   
    21    8   28 1   
    22    8   29 1   
    23    8   30 1   
    24   10   11 1   
    25   10   31 1   
    26   11   12 ar  
    27   11   13 ar  
    28   12   15 ar  
    29   13   32 1   
    30   14   15 ar  
    31   14   33 1   
    32   15   34 1   
    33   16   17 1   
    34   17   35 1   
    35   17   36 1   
    36   17   37 1   
    37   19   20 ar  
    38   20   38 1   
    39   21   22 1   
    40   21   23 ar  
    41   23   39 1   
@<TRIPOS>SUBSTRUCTURE
     1 58J         1 TEMP              0 ****  ****    0 ROOT
