@<TRIPOS>MOLECULE
58K
   37    39     1     0     0
SMALL
bcc


@<TRIPOS>ATOM
      1 C4          0.0720    0.2600   -0.0220 c         1 58K      0.718100
      2 C7         -0.1210   -1.5890    1.6430 c3        1 58K      0.058700
      3 C8          0.7300   -2.7000    0.9970 c3        1 58K     -0.053100
      4 C10        -0.8880   -4.6070    1.0150 ca        1 58K     -0.123500
      5 C13        -0.9070   -4.7010   -1.7710 ca        1 58K     -0.128000
      6 C15         0.7010   -0.9360    2.7700 c         1 58K      0.679500
      7 C20         4.3530    0.4300   -0.0970 ca        1 58K     -0.083000
      8 C12        -1.6770   -5.6040   -1.0400 ca        1 58K     -0.127000
      9 C11        -1.6670   -5.5560    0.3550 ca        1 58K     -0.128000
     10 C14        -0.1270   -3.7510   -1.1130 ca        1 58K     -0.123500
     11 C9         -0.1140   -3.6960    0.2850 ca        1 58K     -0.086300
     12 O16         0.4300   -1.1650    3.9630 o         1 58K     -0.621500
     13 N17         1.7410   -0.0710    2.4750 ns        1 58K     -0.467100
     14 C18         2.3190    0.1130    1.2120 ca        1 58K      0.093600
     15 C19         3.7310    0.2270    1.1260 ca        1 58K     -0.182000
     16 C1          3.5980    0.5280   -1.2670 ca        1 58K     -0.158000
     17 C2          2.2140    0.4400   -1.1980 ca        1 58K     -0.060000
     18 C3          1.5610    0.2340    0.0270 ca        1 58K     -0.163600
     19 O5         -0.5030    1.0650   -0.7850 o         1 58K     -0.635500
     20 N6         -0.6850   -0.6190    0.7420 n         1 58K     -0.464800
     21 C23        -2.1250   -0.5530    0.6950 c3        1 58K      0.074300
     22 H1         -0.9840   -2.1050    2.1750 h1        1 58K      0.101700
     23 H2          1.4860   -2.2560    0.2960 hc        1 58K      0.067200
     24 H3          1.2930   -3.2170    1.8220 hc        1 58K      0.067200
     25 H5         -0.9120   -4.7370   -2.8700 ha        1 58K      0.134000
     26 H6          5.4500    0.5130   -0.1410 ha        1 58K      0.140000
     27 H7         -2.2920   -6.3530   -1.5600 ha        1 58K      0.133000
     28 H8         -2.2710   -6.2680    0.9350 ha        1 58K      0.134000
     29 H9          0.4790   -3.0410   -1.6960 ha        1 58K      0.134000
     30 H10         2.2750    0.2630    3.2530 hn        1 58K      0.328500
     31 H11         4.3440    0.1560    2.0380 ha        1 58K      0.141000
     32 H12         4.0950    0.6870   -2.2350 ha        1 58K      0.143000
     33 H13         1.6010    0.5550   -2.1080 ha        1 58K      0.159000
     34 H14        -2.5300   -0.2880    1.7080 h1        1 58K      0.053700
     35 H15        -2.4540    0.2260   -0.0440 h1        1 58K      0.053700
     36 H16        -2.5400   -1.5480    0.3840 h1        1 58K      0.053700
     37 H4         -0.8770   -4.5750    2.1150 ha        1 58K      0.134000
@<TRIPOS>BOND
     1    1   18 1   
     2    1   19 2   
     3    1   20 1   
     4    2    3 1   
     5    2    6 1   
     6    2   20 1   
     7    2   22 1   
     8    3   11 1   
     9    3   23 1   
    10    3   24 1   
    11    4    9 ar  
    12    4   11 ar  
    13    4   37 1   
    14    5    8 ar  
    15    5   10 ar  
    16    5   25 1   
    17    6   12 2   
    18    6   13 1   
    19    7   15 ar  
    20    7   16 ar  
    21    7   26 1   
    22    8    9 ar  
    23    8   27 1   
    24    9   28 1   
    25   10   11 ar  
    26   10   29 1   
    27   13   14 1   
    28   13   30 1   
    29   14   15 ar  
    30   14   18 ar  
    31   15   31 1   
    32   16   17 ar  
    33   16   32 1   
    34   17   18 ar  
    35   17   33 1   
    36   20   21 1   
    37   21   34 1   
    38   21   35 1   
    39   21   36 1   
@<TRIPOS>SUBSTRUCTURE
     1 58K         1 TEMP              0 ****  ****    0 ROOT
