@<TRIPOS>MOLECULE
58K
   37    39     1     0     0
SMALL
bcc


@<TRIPOS>ATOM
      1 C4          0.0750    0.2620   -0.0150 c         1 58K      0.718100
      2 C7         -0.1050   -1.5880    1.6500 c3        1 58K      0.058700
      3 C8          0.7340   -2.7010    0.9930 c3        1 58K     -0.053100
      4 C10        -0.8920   -4.6030    1.0290 ca        1 58K     -0.123500
      5 C13        -0.9450   -4.6930   -1.7570 ca        1 58K     -0.128000
      6 C15         0.7320   -0.9400    2.7680 c         1 58K      0.679500
      7 C20         4.3560    0.4150   -0.1400 ca        1 58K     -0.083000
      8 C12        -1.7100   -5.5940   -1.0170 ca        1 58K     -0.127000
      9 C11        -1.6810   -5.5480    0.3770 ca        1 58K     -0.128000
     10 C14        -0.1530   -3.7470   -1.1070 ca        1 58K     -0.123500
     11 C9         -0.1230   -3.6940    0.2900 ca        1 58K     -0.086300
     12 O16         0.4740   -1.1690    3.9640 o         1 58K     -0.621500
     13 N17         1.7720   -0.0780    2.4620 n         1 58K     -0.467100
     14 C18         2.3360    0.1050    1.1920 ca        1 58K      0.093600
     15 C19         3.7470    0.2130    1.0910 ca        1 58K     -0.182000
     16 C1          3.5880    0.5180   -1.3010 ca        1 58K     -0.158000
     17 C2          2.2040    0.4350   -1.2160 ca        1 58K     -0.060000
     18 C3          1.5650    0.2310    0.0170 ca        1 58K     -0.163600
     19 O5         -0.5060    1.0710   -0.7700 o         1 58K     -0.635500
     20 N6         -0.6760   -0.6140    0.7570 n         1 58K     -0.464800
     21 C23        -2.1160   -0.5430    0.7270 c3        1 58K      0.074300
     22 H1         -0.9640   -2.1020    2.1920 h1        1 58K      0.101700
     23 H2          1.4820   -2.2600    0.2830 hc        1 58K      0.067200
     24 H3          1.3040   -3.2210    1.8100 hc        1 58K      0.067200
     25 H5         -0.9640   -4.7280   -2.8560 ha        1 58K      0.134000
     26 H6          5.4530    0.4940   -0.1970 ha        1 58K      0.140000
     27 H7         -2.3330   -6.3400   -1.5310 ha        1 58K      0.133000
     28 H8         -2.2820   -6.2580    0.9640 ha        1 58K      0.134000
     29 H9          0.4480   -3.0390   -1.6970 ha        1 58K      0.134000
     30 H10         2.3160    0.2530    3.2340 hn        1 58K      0.328500
     31 H11         4.3710    0.1390    1.9950 ha        1 58K      0.141000
     32 H12         4.0740    0.6760   -2.2740 ha        1 58K      0.143000
     33 H13         1.5810    0.5540   -2.1180 ha        1 58K      0.159000
     34 H14        -2.4500    0.2390   -0.0070 h1        1 58K      0.053700
     35 H15        -2.5390   -1.5360    0.4190 h1        1 58K      0.053700
     36 H16        -2.5080   -0.2770    1.7450 h1        1 58K      0.053700
     37 H4         -0.8670   -4.5720    2.1290 ha        1 58K      0.134000
@<TRIPOS>BOND
     1    1   18 1   
     2    1   19 2   
     3    1   20 1   
     4    2    3 1   
     5    2    6 1   
     6    2   20 1   
     7    2   22 1   
     8    3   11 1   
     9    3   23 1   
    10    3   24 1   
    11    4    9 ar  
    12    4   11 ar  
    13    4   37 1   
    14    5    8 ar  
    15    5   10 ar  
    16    5   25 1   
    17    6   12 2   
    18    6   13 1   
    19    7   15 ar  
    20    7   16 ar  
    21    7   26 1   
    22    8    9 ar  
    23    8   27 1   
    24    9   28 1   
    25   10   11 ar  
    26   10   29 1   
    27   13   14 1   
    28   13   30 1   
    29   14   15 ar  
    30   14   18 ar  
    31   15   31 1   
    32   16   17 ar  
    33   16   32 1   
    34   17   18 ar  
    35   17   33 1   
    36   20   21 1   
    37   21   34 1   
    38   21   35 1   
    39   21   36 1   
@<TRIPOS>SUBSTRUCTURE
     1 58K         1 TEMP              0 ****  ****    0 ROOT
