@<TRIPOS>MOLECULE
58L
   34    36     1     0     0
SMALL
bcc


@<TRIPOS>ATOM
      1 C4          0.0970    0.2040   -0.0250 c         1 58L      0.715100
      2 C7         -0.0820   -1.6280    1.6780 c3        1 58L      0.061700
      3 C8          0.7450   -2.7680    1.0500 c3        1 58L     -0.056100
      4 C10        -0.9570   -4.6010    0.9990 ca        1 58L     -0.123000
      5 C13        -0.8950   -4.6660   -1.7870 ca        1 58L     -0.127000
      6 C15         0.7650   -0.9740    2.7850 c         1 58L      0.682500
      7 C20         4.3670    0.5160   -0.1090 ca        1 58L     -0.082000
      8 C12        -1.7290   -5.5380   -1.0890 ca        1 58L     -0.126000
      9 C11        -1.7580   -5.5050    0.3050 ca        1 58L     -0.127000
     10 C14        -0.0920   -3.7600   -1.0950 ca        1 58L     -0.123000
     11 C9         -0.1190   -3.7200    0.3030 ca        1 58L     -0.089300
     12 O16         0.5280   -1.2120    3.9830 o         1 58L     -0.620500
     13 N17         1.7890   -0.0970    2.4700 ns        1 58L     -0.467100
     14 C18         2.3470    0.1180    1.2020 ca        1 58L      0.096600
     15 C19         3.7560    0.2660    1.1110 ca        1 58L     -0.183000
     16 C1          3.6040    0.6310   -1.2720 ca        1 58L     -0.159000
     17 C2          2.2230    0.5040   -1.1990 ca        1 58L     -0.059000
     18 C3          1.5820    0.2470    0.0230 ca        1 58L     -0.164600
     19 O5         -0.5420    0.9470   -0.8010 o         1 58L     -0.637500
     20 N6         -0.6220   -0.6700    0.7660 ns        1 58L     -0.562900
     21 H1         -0.9600   -2.1080    2.2180 h1        1 58L      0.098700
     22 H2          1.5370   -2.3440    0.3780 hc        1 58L      0.067700
     23 H3          1.2610   -3.3140    1.8870 hc        1 58L      0.067700
     24 H5         -0.8690   -4.6910   -2.8870 ha        1 58L      0.134000
     25 H6          5.4620    0.6260   -0.1570 ha        1 58L      0.140000
     26 H7         -2.3620   -6.2520   -1.6360 ha        1 58L      0.134000
     27 H8         -2.4130   -6.1930    0.8590 ha        1 58L      0.134000
     28 H9          0.5650   -3.0750   -1.6520 ha        1 58L      0.134000
     29 H10         2.3310    0.2380    3.2430 hn        1 58L      0.328500
     30 H11         4.3780    0.1850    2.0170 ha        1 58L      0.141000
     31 H12         4.0910    0.8310   -2.2380 ha        1 58L      0.144000
     32 H13         1.6010    0.6260   -2.1020 ha        1 58L      0.161000
     33 H14        -1.6130   -0.6590    0.6590 hn        1 58L      0.333500
     34 H4         -0.9770   -4.5800    2.1000 ha        1 58L      0.134000
@<TRIPOS>BOND
     1    1   18 1   
     2    1   19 2   
     3    1   20 1   
     4    2    3 1   
     5    2    6 1   
     6    2   20 1   
     7    2   21 1   
     8    3   11 1   
     9    3   22 1   
    10    3   23 1   
    11    4    9 ar  
    12    4   11 ar  
    13    4   34 1   
    14    5    8 ar  
    15    5   10 ar  
    16    5   24 1   
    17    6   12 2   
    18    6   13 1   
    19    7   15 ar  
    20    7   16 ar  
    21    7   25 1   
    22    8    9 ar  
    23    8   26 1   
    24    9   27 1   
    25   10   11 ar  
    26   10   28 1   
    27   13   14 1   
    28   13   29 1   
    29   14   15 ar  
    30   14   18 ar  
    31   15   30 1   
    32   16   17 ar  
    33   16   31 1   
    34   17   18 ar  
    35   17   32 1   
    36   20   33 1   
@<TRIPOS>SUBSTRUCTURE
     1 58L         1 TEMP              0 ****  ****    0 ROOT
