@<TRIPOS>MOLECULE
58L
   34    36     1     0     0
SMALL
bcc


@<TRIPOS>ATOM
      1 C4          0.1040    0.2060   -0.0310 c         1 58L      0.715100
      2 C7         -0.0790   -1.6200    1.6790 c3        1 58L      0.061700
      3 C8          0.7420   -2.7650    1.0540 c3        1 58L     -0.056100
      4 C10        -0.9660   -4.5920    1.0110 ca        1 58L     -0.123000
      5 C13        -0.9080   -4.6670   -1.7760 ca        1 58L     -0.127000
      6 C15         0.7710   -0.9650    2.7820 c         1 58L      0.682500
      7 C20         4.3760    0.5010   -0.1210 ca        1 58L     -0.082000
      8 C12        -1.7450   -5.5340   -1.0740 ca        1 58L     -0.126000
      9 C11        -1.7720   -5.4950    0.3210 ca        1 58L     -0.127000
     10 C14        -0.1010   -3.7610   -1.0880 ca        1 58L     -0.123000
     11 C9         -0.1260   -3.7160    0.3100 ca        1 58L     -0.089300
     12 O16         0.5340   -1.1990    3.9810 o         1 58L     -0.620500
     13 N17         1.7980   -0.0930    2.4630 n         1 58L     -0.467100
     14 C18         2.3560    0.1140    1.1940 ca        1 58L      0.096600
     15 C19         3.7650    0.2570    1.1000 ca        1 58L     -0.183000
     16 C1          3.6110    0.6140   -1.2840 ca        1 58L     -0.159000
     17 C2          2.2300    0.4930   -1.2080 ca        1 58L     -0.059000
     18 C3          1.5890    0.2430    0.0150 ca        1 58L     -0.164600
     19 O5         -0.5320    0.9480   -0.8090 o         1 58L     -0.637500
     20 N6         -0.6180   -0.6630    0.7630 n         1 58L     -0.562900
     21 H1         -0.9590   -2.0950    2.2210 h1        1 58L      0.098700
     22 H2          1.5350   -2.3470    0.3790 hc        1 58L      0.067700
     23 H3          1.2570   -3.3100    1.8920 hc        1 58L      0.067700
     24 H5         -0.8840   -4.6950   -2.8750 ha        1 58L      0.134000
     25 H6          5.4710    0.6060   -0.1710 ha        1 58L      0.140000
     26 H7         -2.3810   -6.2470   -1.6170 ha        1 58L      0.134000
     27 H8         -2.4290   -6.1800    0.8770 ha        1 58L      0.134000
     28 H9          0.5570   -3.0800   -1.6470 ha        1 58L      0.134000
     29 H10         2.3420    0.2420    3.2340 hn        1 58L      0.328500
     30 H11         4.3870    0.1770    2.0060 ha        1 58L      0.141000
     31 H12         4.0980    0.8090   -2.2510 ha        1 58L      0.144000
     32 H13         1.6070    0.6150   -2.1120 ha        1 58L      0.161000
     33 H14        -1.6080   -0.6490    0.6580 hn        1 58L      0.333500
     34 H4         -0.9850   -4.5670    2.1110 ha        1 58L      0.134000
@<TRIPOS>BOND
     1    1   18 1   
     2    1   19 2   
     3    1   20 1   
     4    2    3 1   
     5    2    6 1   
     6    2   20 1   
     7    2   21 1   
     8    3   11 1   
     9    3   22 1   
    10    3   23 1   
    11    4    9 ar  
    12    4   11 ar  
    13    4   34 1   
    14    5    8 ar  
    15    5   10 ar  
    16    5   24 1   
    17    6   12 2   
    18    6   13 1   
    19    7   15 ar  
    20    7   16 ar  
    21    7   25 1   
    22    8    9 ar  
    23    8   26 1   
    24    9   27 1   
    25   10   11 ar  
    26   10   28 1   
    27   13   14 1   
    28   13   29 1   
    29   14   15 ar  
    30   14   18 ar  
    31   15   30 1   
    32   16   17 ar  
    33   16   31 1   
    34   17   18 ar  
    35   17   32 1   
    36   20   33 1   
@<TRIPOS>SUBSTRUCTURE
     1 58L         1 TEMP              0 ****  ****    0 ROOT
