@<TRIPOS>MOLECULE
58X
   27    26     1     0     0
SMALL
bcc


@<TRIPOS>ATOM
      1 CAA         0.0490   -0.0820   -0.0450 c3        1 58X     -0.048400
      2 CAB         1.5250    0.0330   -0.1040 c2        1 58X     -0.161400
      3 CAC         2.2450    0.4910    0.9330 c2        1 58X     -0.145200
      4 CAD         3.7200    0.6200    0.9150 c3        1 58X     -0.053200
      5 CAE         4.2650    1.2450    2.1870 c3        1 58X     -0.029200
      6 CAF         2.1600   -0.3830   -1.3780 c3        1 58X     -0.048400
      7 CAG         5.7560    1.3320    2.1590 c2        1 58X     -0.172400
      8 CAH         6.3780    2.4660    1.8080 ce        1 58X     -0.175200
      9 CAI         6.4660    0.0910    2.5500 c3        1 58X     -0.048900
     10 CAJ         7.8670    2.6920    1.6860 c         1 58X      0.895800
     11 OAK         8.2490    3.4240    0.7260 o         1 58X     -0.840300
     12 OAL         8.6590    2.1820    2.5290 o         1 58X     -0.840300
     13 H1         -0.4180    0.5360   -0.8530 hc        1 58X      0.033033
     14 H2         -0.2620   -1.1460   -0.1990 hc        1 58X      0.033033
     15 H3         -0.3530    0.2630    0.9390 hc        1 58X      0.033033
     16 H4          1.7440    0.7970    1.8670 ha        1 58X      0.114000
     17 H5          4.1820   -0.3960    0.7710 hc        1 58X      0.055200
     18 H6          4.0340    1.2420    0.0320 hc        1 58X      0.055200
     19 H7          3.9400    0.6320    3.0700 hc        1 58X      0.025200
     20 H8          3.8180    2.2680    2.3110 hc        1 58X      0.025200
     21 H9          2.6630    0.4930   -1.8630 hc        1 58X      0.033033
     22 H10         1.4090   -0.8000   -2.0910 hc        1 58X      0.033033
     23 H11         2.9420   -1.1610   -1.1880 hc        1 58X      0.033033
     24 H12         5.7850    3.3540    1.5300 ha        1 58X      0.095000
     25 H13         6.2140   -0.7400    1.8440 hc        1 58X      0.034033
     26 H14         6.1570   -0.2230    3.5780 hc        1 58X      0.034033
     27 H15         7.5750    0.2570    2.5470 hc        1 58X      0.034033
@<TRIPOS>BOND
     1    1    2 1   
     2    1   13 1   
     3    1   14 1   
     4    1   15 1   
     5    2    3 2   
     6    2    6 1   
     7    3    4 1   
     8    3   16 1   
     9    4    5 1   
    10    4   17 1   
    11    4   18 1   
    12    5    7 1   
    13    5   19 1   
    14    5   20 1   
    15    6   21 1   
    16    6   22 1   
    17    6   23 1   
    18    7    8 2   
    19    7    9 1   
    20    8   10 1   
    21    8   24 1   
    22    9   25 1   
    23    9   26 1   
    24    9   27 1   
    25   10   11 1   
    26   10   12 1   
@<TRIPOS>SUBSTRUCTURE
     1 58X         1 TEMP              0 ****  ****    0 ROOT
