@<TRIPOS>MOLECULE
58Z
   40    42     1     0     0
SMALL
bcc


@<TRIPOS>ATOM
      1 O21         0.9160   -2.6320    0.2280 o         1 58Z     -0.845800
      2 C19         2.0570   -2.1960    0.5520 c         1 58Z      0.916600
      3 O20         3.1390   -2.5830    0.0270 o         1 58Z     -0.845800
      4 C16         2.1300   -1.1490    1.6900 c3        1 58Z     -0.186700
      5 C15         0.9680   -0.1810    1.6170 c3        1 58Z     -0.056400
      6 C14         1.0430    0.8610    2.7300 c3        1 58Z      0.172300
      7 C17         3.4290   -0.3720    1.6540 c3        1 58Z     -0.056400
      8 C18         3.4780    0.6740    2.7640 c3        1 58Z      0.172300
      9 N13         2.3210    1.5620    2.7980 n3        1 58Z     -0.733600
     10 C12         2.3680    2.4830    3.9220 c3        1 58Z      0.170800
     11 C11         3.3820    3.6140    3.6880 c3        1 58Z      0.125400
     12 O10         3.1800    4.5180    4.7850 os        1 58Z     -0.338900
     13 C3          3.9820    5.6420    4.7980 ca        1 58Z      0.116100
     14 C2          4.9550    5.9260    3.8140 ca        1 58Z     -0.176000
     15 C4          3.7570    6.5000    5.8830 ca        1 58Z     -0.128000
     16 C5          4.5200    7.6590    5.9730 ca        1 58Z     -0.062800
     17 C7          4.5680    8.7540    6.9180 cc        1 58Z     -0.195200
     18 C8          5.5480    9.6370    6.4750 cd        1 58Z     -0.111100
     19 N9          6.1520    9.1470    5.3130 na        1 58Z     -0.199400
     20 C6          5.5180    7.9470    4.9650 ca        1 58Z     -0.083200
     21 C1          5.7280    7.0750    3.8890 ca        1 58Z     -0.116000
     22 H16         2.0700   -1.7230    2.6550 hc        1 58Z      0.027700
     23 H15         0.0050   -0.7460    1.7080 hc        1 58Z      0.053200
     24 H15A        0.9690    0.3250    0.6170 hc        1 58Z      0.053200
     25 H14         0.2470    1.6400    2.5570 h1        1 58Z      0.009200
     26 H14A        0.8090    0.3520    3.7130 h1        1 58Z      0.009200
     27 H17         4.2920   -1.0760    1.7760 hc        1 58Z      0.053200
     28 H17A        3.5380    0.1190    0.6530 hc        1 58Z      0.053200
     29 H18         3.6070    0.1400    3.7530 h1        1 58Z      0.009200
     30 H18A        4.3870    1.3230    2.6160 h1        1 58Z      0.009200
     31 H12         1.3540    2.9540    4.0580 h1        1 58Z      0.036200
     32 H12A        2.6320    1.9720    4.8940 h1        1 58Z      0.036200
     33 H11         3.1850    4.1450    2.7210 h1        1 58Z      0.045200
     34 H11A        4.4350    3.2310    3.7110 h1        1 58Z      0.045200
     35 H2          5.1090    5.2360    2.9720 ha        1 58Z      0.145000
     36 H4          2.9970    6.2530    6.6350 ha        1 58Z      0.149000
     37 H7          3.9510    8.8540    7.8040 ha        1 58Z      0.153000
     38 H8          5.8800   10.5790    6.9130 h4        1 58Z      0.156000
     39 H1          6.4840    7.2900    3.1230 ha        1 58Z      0.129000
     40 HN9         6.7680    9.6470    4.7320 hn        1 58Z      0.290700
@<TRIPOS>BOND
     1    1    2 1   
     2    2    3 1   
     3    2    4 1   
     4    4    5 1   
     5    4    7 1   
     6    4   22 1   
     7    5    6 1   
     8    5   23 1   
     9    5   24 1   
    10    6    9 1   
    11    6   25 1   
    12    6   26 1   
    13    7    8 1   
    14    7   27 1   
    15    7   28 1   
    16    8    9 1   
    17    8   29 1   
    18    8   30 1   
    19    9   10 1   
    20   10   11 1   
    21   10   31 1   
    22   10   32 1   
    23   11   12 1   
    24   11   33 1   
    25   11   34 1   
    26   12   13 1   
    27   13   14 ar  
    28   13   15 ar  
    29   14   21 ar  
    30   14   35 1   
    31   15   16 ar  
    32   15   36 1   
    33   16   17 1   
    34   16   20 ar  
    35   17   18 2   
    36   17   37 1   
    37   18   19 1   
    38   18   38 1   
    39   19   20 1   
    40   19   40 1   
    41   20   21 ar  
    42   21   39 1   
@<TRIPOS>SUBSTRUCTURE
     1 58Z         1 TEMP              0 ****  ****    0 ROOT
