@<TRIPOS>MOLECULE
58Z
   40    35     1     0     0
SMALL
bcc


@<TRIPOS>ATOM
      1 O21         1.3300   -0.9760   -6.2470 o         1 58Z     -0.581000
      2 C19         0.8080   -1.5230   -5.2620 c1        1 58Z      0.332000
      3 O20        -0.2360   -2.1850   -5.4010 o         1 58Z     -0.581000
      4 C16         1.5540   -1.5370   -3.9060 c2        1 58Z     -0.177000
      5 C15         0.6320   -1.8190   -2.7570 c3        1 58Z     -0.162500
      6 C14        -0.2860   -0.6520   -2.4350 c3        1 58Z     -0.077500
      7 C17         2.2760   -0.2050   -3.6450 c3        1 58Z     -0.162500
      8 C18         1.3350    0.9250   -3.3060 c3        1 58Z     -0.077500
      9 N13         0.4400    0.6050   -2.2390 n3        1 58Z     -0.249000
     10 C12         1.1890    0.5530   -0.9800 c3        1 58Z     -0.075000
     11 C11         0.4530    1.3220    0.0880 c3        1 58Z     -0.025000
     12 O10         0.6050    0.6550    1.3260 os        1 58Z     -0.221000
     13 C3         -0.3540    1.0450    2.3270 c2        1 58Z      0.074000
     14 C2          0.0260    1.8950    3.3860 c2        1 58Z     -0.138000
     15 C4         -1.3030    0.0660    2.5380 c1        1 58Z     -0.168000
     16 C5         -1.9010   -0.0870    3.8370 c1        1 58Z     -0.125500
     17 C7         -2.8320   -0.9950    4.3280 c1        1 58Z     -0.125500
     18 C8         -3.0310   -0.7210    5.6630 c1        1 58Z     -0.067000
     19 N9         -2.2340    0.3420    6.0000 n2        1 58Z     -0.219000
     20 C6         -1.5330    0.7320    4.8580 c1        1 58Z     -0.067000
     21 C1         -0.5530    1.7450    4.6400 c1        1 58Z     -0.121000
     22 H16         2.1720   -2.2520   -4.0390 ha        1 58Z      0.072000
     23 H15         0.0780   -2.6130   -2.9750 hc        1 58Z      0.071500
     24 H15A        1.1930   -2.0310   -1.9400 hc        1 58Z      0.071500
     25 H14        -0.7820   -0.8580   -1.6230 h1        1 58Z      0.091000
     26 H14A       -0.9610   -0.5300   -3.2170 h1        1 58Z      0.091000
     27 H17         2.8930   -0.3250   -2.9150 hc        1 58Z      0.071500
     28 H17A        2.7910    0.0430   -4.4620 hc        1 58Z      0.071500
     29 H18         1.8990    1.7520   -3.0250 h1        1 58Z      0.091000
     30 H18A        0.8350    1.1430   -4.0700 h1        1 58Z      0.091000
     31 H12         2.1180    0.9680   -1.1150 h1        1 58Z      0.078000
     32 H12A        1.2860   -0.3770   -0.7010 h1        1 58Z      0.078000
     33 H11        -0.4850    1.3750   -0.1390 h1        1 58Z      0.082500
     34 H11A        0.8400    2.2620    0.1590 h1        1 58Z      0.082500
     35 H2          0.6840    2.6780    3.2130 ha        1 58Z      0.146000
     36 H4         -1.5770   -0.5180    1.8010 ha        1 58Z      0.150000
     37 H7         -3.2860   -1.7350    3.7950 DU        1 58Z      0.183000
     38 H8         -3.6950   -1.1390    6.2350 DU        1 58Z      0.183000
     39 H1         -0.2160    2.2450    5.3780 ha        1 58Z      0.126000
     40 HN9        -2.1730    0.7300    6.8300 DU        1 58Z      0.183000
@<TRIPOS>BOND
     1    1    2 1   
     2    2    3 1   
     3    4    5 1   
     4    4    7 1   
     5    4   22 1   
     6    5    6 1   
     7    5   23 1   
     8    5   24 1   
     9    6    9 1   
    10    6   25 1   
    11    6   26 1   
    12    7    8 1   
    13    7   27 1   
    14    7   28 1   
    15    8    9 1   
    16    8   29 1   
    17    8   30 1   
    18    9   10 1   
    19   10   11 1   
    20   10   31 1   
    21   10   32 1   
    22   11   12 1   
    23   11   33 1   
    24   11   34 1   
    25   12   13 1   
    26   13   14 1   
    27   13   15 1   
    28   14   21 1   
    29   14   35 1   
    30   15   36 1   
    31   16   20 1   
    32   17   18 1   
    33   18   19 1   
    34   19   20 1   
    35   21   39 1   
@<TRIPOS>SUBSTRUCTURE
     1 58Z         1 TEMP              0 ****  ****    0 ROOT
