@<TRIPOS>MOLECULE
58Z
   40    42     1     0     0
SMALL
bcc


@<TRIPOS>ATOM
      1 O21         0.9080   -2.6560    0.2830 o         1 58Z     -0.845800
      2 C19         2.0490   -2.2230    0.6130 c         1 58Z      0.916600
      3 O20         3.1330   -2.6240    0.1030 o         1 58Z     -0.845800
      4 C16         2.1180   -1.1620    1.7380 c3        1 58Z     -0.186700
      5 C15         0.9640   -0.1860    1.6390 c3        1 58Z     -0.056400
      6 C14         1.0350    0.8690    2.7400 c3        1 58Z      0.172300
      7 C17         3.4230   -0.3960    1.7060 c3        1 58Z     -0.056400
      8 C18         3.4680    0.6640    2.8040 c3        1 58Z      0.172300
      9 N13         2.3180    1.5610    2.8130 n3        1 58Z     -0.733600
     10 C12         2.3590    2.4960    3.9260 c3        1 58Z      0.170800
     11 C11         3.3860    3.6150    3.6890 c3        1 58Z      0.125400
     12 O10         3.1790    4.5350    4.7720 os        1 58Z     -0.338900
     13 C3          3.9890    5.6540    4.7790 ca        1 58Z      0.116100
     14 C2          4.9760    5.9170    3.8040 ca        1 58Z     -0.176000
     15 C4          3.7560    6.5290    5.8490 ca        1 58Z     -0.128000
     16 C5          4.5270    7.6840    5.9320 ca        1 58Z     -0.062800
     17 C7          4.5700    8.7920    6.8620 cc        1 58Z     -0.195200
     18 C8          5.5620    9.6610    6.4190 cd        1 58Z     -0.111100
     19 N9          6.1780    9.1500    5.2730 na        1 58Z     -0.199400
     20 C6          5.5390    7.9500    4.9330 ca        1 58Z     -0.083200
     21 C1          5.7570    7.0610    3.8730 ca        1 58Z     -0.116000
     22 H16         2.0420   -1.7230    2.7090 hc        1 58Z      0.027700
     23 H15        -0.0050   -0.7420    1.7270 hc        1 58Z      0.053200
     24 H15A        0.9800    0.3070    0.6330 hc        1 58Z      0.053200
     25 H14         0.7860    0.3750    3.7260 h1        1 58Z      0.009200
     26 H14A        0.2470    1.6520    2.5480 h1        1 58Z      0.009200
     27 H17         4.2790   -1.1050    1.8480 hc        1 58Z      0.053200
     28 H17A        3.5470    0.0810    0.7000 hc        1 58Z      0.053200
     29 H18         4.3840    1.3040    2.6570 h1        1 58Z      0.009200
     30 H18A        3.5810    0.1420    3.8010 h1        1 58Z      0.009200
     31 H12         1.3480    2.9780    4.0430 h1        1 58Z      0.036200
     32 H12A        2.6080    1.9950    4.9070 h1        1 58Z      0.036200
     33 H11         3.2050    4.1350    2.7140 h1        1 58Z      0.045200
     34 H11A        4.4360    3.2240    3.7300 h1        1 58Z      0.045200
     35 H2          5.1350    5.2130    2.9740 ha        1 58Z      0.145000
     36 H4          2.9840    6.2990    6.5940 ha        1 58Z      0.149000
     37 H7          3.9430    8.9090    7.7390 ha        1 58Z      0.153000
     38 H8          5.8960   10.6070    6.8480 h4        1 58Z      0.156000
     39 H1          6.5250    7.2590    3.1140 ha        1 58Z      0.129000
     40 HN9         6.8040    9.6380    4.6920 hn        1 58Z      0.290700
@<TRIPOS>BOND
     1    1    2 1   
     2    2    3 1   
     3    2    4 1   
     4    4    5 1   
     5    4    7 1   
     6    4   22 1   
     7    5    6 1   
     8    5   23 1   
     9    5   24 1   
    10    6    9 1   
    11    6   25 1   
    12    6   26 1   
    13    7    8 1   
    14    7   27 1   
    15    7   28 1   
    16    8    9 1   
    17    8   29 1   
    18    8   30 1   
    19    9   10 1   
    20   10   11 1   
    21   10   31 1   
    22   10   32 1   
    23   11   12 1   
    24   11   33 1   
    25   11   34 1   
    26   12   13 1   
    27   13   14 ar  
    28   13   15 ar  
    29   14   21 ar  
    30   14   35 1   
    31   15   16 ar  
    32   15   36 1   
    33   16   17 1   
    34   16   20 ar  
    35   17   18 2   
    36   17   37 1   
    37   18   19 1   
    38   18   38 1   
    39   19   20 1   
    40   19   40 1   
    41   20   21 ar  
    42   21   39 1   
@<TRIPOS>SUBSTRUCTURE
     1 58Z         1 TEMP              0 ****  ****    0 ROOT
