@<TRIPOS>MOLECULE
58Z
   40    42     1     0     0
SMALL
bcc


@<TRIPOS>ATOM
      1 O21         0.9390   -2.6310    0.2150 o         1 58Z     -0.845800
      2 C19         2.0730   -2.2160    0.5900 c         1 58Z      0.916600
      3 O20         3.1700   -2.6400    0.1280 o         1 58Z     -0.845800
      4 C16         2.1140   -1.1500    1.7110 c3        1 58Z     -0.186700
      5 C15         0.9840   -0.1540    1.5580 c3        1 58Z     -0.056400
      6 C14         1.0280    0.9070    2.6550 c3        1 58Z      0.172300
      7 C17         3.4330   -0.4090    1.7310 c3        1 58Z     -0.056400
      8 C18         3.4520    0.6570    2.8240 c3        1 58Z      0.172300
      9 N13         2.3200    1.5750    2.7790 n3        1 58Z     -0.733600
     10 C12         2.3310    2.5160    3.8880 c3        1 58Z      0.170800
     11 C11         3.3880    3.6150    3.6890 c3        1 58Z      0.125400
     12 O10         3.1510    4.5460    4.7560 os        1 58Z     -0.338900
     13 C3          3.9790    5.6500    4.7900 ca        1 58Z      0.116100
     14 C2          5.0130    5.8880    3.8580 ca        1 58Z     -0.176000
     15 C4          3.7150    6.5380    5.8420 ca        1 58Z     -0.128000
     16 C5          4.5020    7.6800    5.9500 ca        1 58Z     -0.062800
     17 C7          4.5240    8.7950    6.8720 cc        1 58Z     -0.195200
     18 C8          5.5500    9.6430    6.4670 cd        1 58Z     -0.111100
     19 N9          6.2070    9.1120    5.3540 na        1 58Z     -0.199400
     20 C6          5.5620    7.9200    4.9950 ca        1 58Z     -0.083200
     21 C1          5.8100    7.0190    3.9530 ca        1 58Z     -0.116000
     22 H16         1.9860   -1.7040    2.6810 hc        1 58Z      0.027700
     23 H15         1.0520    0.3330    0.5510 hc        1 58Z      0.053200
     24 H15A        0.0020   -0.6910    1.6070 hc        1 58Z      0.053200
     25 H14         0.7280    0.4240    3.6320 h1        1 58Z      0.009200
     26 H14A        0.2640    1.7030    2.4250 h1        1 58Z      0.009200
     27 H17         3.6100    0.0590    0.7290 hc        1 58Z      0.053200
     28 H17A        4.2690   -1.1330    1.9130 hc        1 58Z      0.053200
     29 H18         3.5130    0.1390    3.8280 h1        1 58Z      0.009200
     30 H18A        4.3850    1.2790    2.7130 h1        1 58Z      0.009200
     31 H12         1.3250    3.0180    3.9590 h1        1 58Z      0.036200
     32 H12A        2.5280    2.0170    4.8810 h1        1 58Z      0.036200
     33 H11         3.2590    4.1310    2.7040 h1        1 58Z      0.045200
     34 H11A        4.4270    3.2050    3.7780 h1        1 58Z      0.045200
     35 H2          5.1970    5.1740    3.0420 ha        1 58Z      0.145000
     36 H4          2.9070    6.3280    6.5540 ha        1 58Z      0.149000
     37 H7          3.8600    8.9300    7.7200 ha        1 58Z      0.153000
     38 H8          5.8810   10.5870    6.9040 h4        1 58Z      0.156000
     39 H1          6.6140    7.1970    3.2270 ha        1 58Z      0.129000
     40 HN9         6.8660    9.5840    4.7970 hn        1 58Z      0.290700
@<TRIPOS>BOND
     1    1    2 1   
     2    2    3 1   
     3    2    4 1   
     4    4    5 1   
     5    4    7 1   
     6    4   22 1   
     7    5    6 1   
     8    5   23 1   
     9    5   24 1   
    10    6    9 1   
    11    6   25 1   
    12    6   26 1   
    13    7    8 1   
    14    7   27 1   
    15    7   28 1   
    16    8    9 1   
    17    8   29 1   
    18    8   30 1   
    19    9   10 1   
    20   10   11 1   
    21   10   31 1   
    22   10   32 1   
    23   11   12 1   
    24   11   33 1   
    25   11   34 1   
    26   12   13 1   
    27   13   14 ar  
    28   13   15 ar  
    29   14   21 ar  
    30   14   35 1   
    31   15   16 ar  
    32   15   36 1   
    33   16   17 1   
    34   16   20 ar  
    35   17   18 2   
    36   17   37 1   
    37   18   19 1   
    38   18   38 1   
    39   19   20 1   
    40   19   40 1   
    41   20   21 ar  
    42   21   39 1   
@<TRIPOS>SUBSTRUCTURE
     1 58Z         1 TEMP              0 ****  ****    0 ROOT
