@<TRIPOS>MOLECULE
58Z
   40    42     1     0     0
SMALL
bcc


@<TRIPOS>ATOM
      1 O21         7.2430    0.0460    0.4170 o         1 58Z     -0.845800
      2 C19         6.3200   -0.2580    1.2260 c         1 58Z      0.916600
      3 O20         6.4460   -0.2450    2.4830 o         1 58Z     -0.845800
      4 C16         4.9640   -0.7090    0.6310 c3        1 58Z     -0.186700
      5 C15         4.6200    0.0870   -0.6100 c3        1 58Z     -0.056400
      6 C14         3.2770   -0.3470   -1.1930 c3        1 58Z      0.172300
      7 C17         3.8400   -0.5760    1.6360 c3        1 58Z     -0.056400
      8 C18         2.5040   -0.9990    1.0300 c3        1 58Z      0.172300
      9 N13         2.1830   -0.3340   -0.2270 n3        1 58Z     -0.733600
     10 C12         0.9470   -0.8300   -0.8120 c3        1 58Z      0.170800
     11 C11        -0.2870   -0.2910   -0.0710 c3        1 58Z      0.125400
     12 O10        -1.4040   -0.7190   -0.8650 os        1 58Z     -0.338900
     13 C3         -2.6520   -0.3450   -0.4060 ca        1 58Z      0.116100
     14 C2         -2.8640    0.4120    0.7670 ca        1 58Z     -0.176000
     15 C4         -3.7170   -0.7810   -1.2060 ca        1 58Z     -0.128000
     16 C5         -5.0100   -0.4460   -0.8180 ca        1 58Z     -0.062800
     17 C7         -6.3200   -0.7060   -1.3750 cc        1 58Z     -0.195200
     18 C8         -7.2510   -0.1070   -0.5320 cd        1 58Z     -0.111100
     19 N9         -6.6060    0.4940    0.5530 na        1 58Z     -0.199400
     20 C6         -5.2250    0.3280    0.3860 ca        1 58Z     -0.083200
     21 C1         -4.1460    0.7520    1.1720 ca        1 58Z     -0.116000
     22 H16         5.0830   -1.7910    0.3520 hc        1 58Z      0.027700
     23 H15         4.5940    1.1780   -0.3570 hc        1 58Z      0.053200
     24 H15A        5.4190   -0.0610   -1.3820 hc        1 58Z      0.053200
     25 H14         2.9940    0.3590   -2.0240 h1        1 58Z      0.009200
     26 H14A        3.4000   -1.3740   -1.6500 h1        1 58Z      0.009200
     27 H17         4.0550   -1.2160    2.5290 hc        1 58Z      0.053200
     28 H17A        3.7860    0.4850    1.9920 hc        1 58Z      0.053200
     29 H18         2.5090   -2.1230    0.9030 h1        1 58Z      0.009200
     30 H18A        1.6780   -0.7500    1.7550 h1        1 58Z      0.009200
     31 H12         0.8800   -0.4890   -1.8830 h1        1 58Z      0.036200
     32 H12A        0.8890   -1.9580   -0.8140 h1        1 58Z      0.036200
     33 H11        -0.3730   -0.7290    0.9570 h1        1 58Z      0.045200
     34 H11A       -0.2730    0.8280   -0.0150 h1        1 58Z      0.045200
     35 H2         -2.0090    0.7420    1.3750 ha        1 58Z      0.145000
     36 H4         -3.5240   -1.3710   -2.1110 ha        1 58Z      0.149000
     37 H7         -6.5240   -1.2680   -2.2810 ha        1 58Z      0.153000
     38 H8         -8.3390   -0.0790   -0.6110 h4        1 58Z      0.156000
     39 H1         -4.3060    1.3390    2.0860 ha        1 58Z      0.129000
     40 HN9        -7.0250    1.0970    1.2070 hn        1 58Z      0.290700
@<TRIPOS>BOND
     1    1    2 1   
     2    2    3 1   
     3    2    4 1   
     4    4    5 1   
     5    4    7 1   
     6    4   22 1   
     7    5    6 1   
     8    5   23 1   
     9    5   24 1   
    10    6    9 1   
    11    6   25 1   
    12    6   26 1   
    13    7    8 1   
    14    7   27 1   
    15    7   28 1   
    16    8    9 1   
    17    8   29 1   
    18    8   30 1   
    19    9   10 1   
    20   10   11 1   
    21   10   31 1   
    22   10   32 1   
    23   11   12 1   
    24   11   33 1   
    25   11   34 1   
    26   12   13 1   
    27   13   14 ar  
    28   13   15 ar  
    29   14   21 ar  
    30   14   35 1   
    31   15   16 ar  
    32   15   36 1   
    33   16   17 1   
    34   16   20 ar  
    35   17   18 2   
    36   17   37 1   
    37   18   19 1   
    38   18   38 1   
    39   19   20 1   
    40   19   40 1   
    41   20   21 ar  
    42   21   39 1   
@<TRIPOS>SUBSTRUCTURE
     1 58Z         1 TEMP              0 ****  ****    0 ROOT
