@<TRIPOS>MOLECULE
591
   47    48     1     0     0
SMALL
bcc


@<TRIPOS>ATOM
      1 C1          1.6990    1.4440    0.9160 c2        1 591     -0.208000
      2 N1          2.2070   -0.0220    2.8460 na        1 591     -0.068600
      3 O1          3.7450   -2.5110    6.3190 o         1 591     -0.451500
      4 C2          1.3480    0.7170    1.9820 c2        1 591     -0.110100
      5 N2          3.5920   -0.0820    2.5340 na        1 591     -0.168400
      6 C3          1.7510   -1.3100    3.2710 cc        1 591      0.026700
      7 N3          2.5180   -4.4770    5.9780 n         1 591     -0.395400
      8 C4          2.8270   -2.1320    3.4380 cd        1 591     -0.272300
      9 N4          2.7290   -4.7420    3.6430 nh        1 591     -0.159200
     10 C5          4.0400   -1.3420    2.9930 cd        1 591      0.034700
     11 C6          3.3410   -3.4070    3.9850 c3        1 591      0.037200
     12 N6          5.6820    3.1170    4.0620 n1        1 591     -0.814200
     13 C7          3.3000   -3.3290    5.5350 c         1 591      0.702500
     14 N7          7.8030    6.5080    5.2850 n1        1 591     -0.725500
     15 C8          2.2480   -5.2930    4.8930 cz        1 591      0.387600
     16 C10         4.7810   -3.4450    3.3600 ce        1 591     -0.006200
     17 C11         5.0250   -4.6760    2.8760 c2        1 591     -0.207200
     18 C12         3.8020   -5.5580    3.0020 c3        1 591      0.005500
     19 C13         9.9430    8.0720    5.2680 cc        1 591     -0.121000
     20 C14         9.7520    9.1730    6.0290 cc        1 591     -0.133000
     21 C15         5.1850   -2.0890    3.0340 ce        1 591     -0.207000
     22 C16         8.3320    8.7230    6.4010 cd        1 591     -0.121000
     23 C17         5.0880    2.1810    3.6810 c1        1 591      0.337800
     24 C18         7.2060    5.5420    4.9630 c1        1 591      0.402800
     25 C19         8.5030    7.6030    5.6370 cd        1 591      0.184700
     26 H1          0.3040    0.6850    2.3530 h4        1 591      0.150000
     27 H1A        -1.7950    2.1930    1.0840 ha        1 591      0.000500
     28 H1B        -1.1860    1.9190    1.1940 ha        1 591      0.000500
     29 H2          2.7170    1.5050    0.5100 ha        1 591      0.141000
     30 H2A         0.9420    2.0410    0.3870 ha        1 591      0.141000
     31 H3          0.6830   -1.4690    3.4490 h4        1 591      0.184000
     32 H5          4.0770    0.7320    2.9480 hn        1 591      0.332700
     33 HN5         1.3940   -6.9830    4.1240 hn        1 591      0.331700
     34 HN5A        1.1630   -6.7700    5.8130 hn        1 591      0.331700
     35 H9          2.5140   -5.6890    7.7020 h1        1 591      0.083700
     36 H9A         0.9750   -4.7380    7.3890 h1        1 591      0.083700
     37 H9B         2.4850   -3.8770    7.9690 h1        1 591      0.083700
     38 H11         5.9140   -5.0440    2.3620 ha        1 591      0.190000
     39 H12        10.6940    7.6160    4.6460 ha        1 591      0.177000
     40 H13         3.4290   -5.8230    1.9710 h1        1 591      0.087700
     41 H15        10.3010   10.0560    6.3190 ha        1 591      0.179000
     42 H17         6.2050   -1.7920    2.8000 ha        1 591      0.184000
     43 H18         6.1810    3.9050    4.3780 hn        1 591      0.488400
     44 H19         7.5690    9.1670    7.0190 ha        1 591      0.177000
     45 N5          1.5650   -6.4570    4.9560 nh        1 591     -0.435200
     46 H53         4.0180   -6.5030    3.5680 h1        1 591      0.087700
     47 C9          2.0960   -4.7160    7.3260 c3        1 591      0.049300
@<TRIPOS>BOND
     1    1    4 2   
     2    1   29 1   
     3    1   30 1   
     4    2    4 1   
     5    2    5 1   
     6    2    6 1   
     7    3   13 2   
     8    4   26 1   
     9    5   10 1   
    10    5   32 1   
    11    6    8 2   
    12    6   31 1   
    13    7   13 1   
    14    7   15 2   
    15    7   47 1   
    16    8   10 1   
    17    8   11 1   
    18    9   11 1   
    19    9   15 1   
    20    9   18 1   
    21   10   21 2   
    22   11   13 1   
    23   11   16 1   
    24   12   23 3   
    25   12   43 1   
    26   14   24 3   
    27   14   25 1   
    28   15   45 1   
    29   16   17 2   
    30   16   21 1   
    31   17   18 1   
    32   17   38 1   
    33   18   40 1   
    34   18   46 1   
    35   19   20 1   
    36   19   25 2   
    37   19   39 1   
    38   20   22 2   
    39   20   41 1   
    40   21   42 1   
    41   22   25 1   
    42   22   44 1   
    43   27   28 1   
    44   33   45 1   
    45   34   45 1   
    46   35   47 1   
    47   36   47 1   
    48   37   47 1   
@<TRIPOS>SUBSTRUCTURE
     1 591         1 TEMP              0 ****  ****    0 ROOT
