@<TRIPOS>MOLECULE
591
   47    45     1     0     0
SMALL
bcc


@<TRIPOS>ATOM
      1 C1          1.5410    1.5310    0.2910 c2        1 591     -0.251000
      2 N1          2.0850   -0.2980    1.7720 n3        1 591     -0.222000
      3 O1          1.7250   -2.0900    6.3350 o         1 591     -0.196000
      4 C2          2.2160    1.0310    1.3380 c2        1 591     -0.066000
      5 N2          1.2420   -4.0670    2.3360 n1        1 591     -0.063000
      6 C3          2.7340   -0.8220    2.8370 c2        1 591      0.220000
      7 N3          3.1670   -3.9480    6.2680 n         1 591     -0.305000
      8 C4          2.6100   -2.1330    3.3060 c2        1 591     -0.283000
      9 N4          4.4530   -3.4330    4.3680 n2        1 591     -0.074000
     10 C5          1.8580   -3.1780    2.7720 c1        1 591     -0.075000
     11 C6          3.4870   -2.3140    4.5240 c3        1 591      0.087000
     12 N6          7.3200    7.3760    6.7810 n2        1 591     -0.351000
     13 C7          2.6350   -2.6840    5.7830 c2        1 591      0.300000
     14 N7          8.2790    2.8120    4.0350 n2        1 591     -0.344000
     15 C8          4.1710   -4.3090    5.3160 c2        1 591     -0.001000
     16 C10         4.1520   -0.9380    4.6860 c2        1 591     -0.016000
     17 C11         5.0840   -0.6820    5.7480 c2        1 591     -0.171000
     18 C12         5.8790    0.3920    5.8090 c2        1 591     -0.142000
     19 C13         4.4010    3.1220    3.0230 c1        1 591      0.147000
     20 C14         5.0610    4.2560    3.0510 c2        1 591     -0.426000
     21 C15         3.6960   -0.1010    3.7160 c2        1 591     -0.124000
     22 C16         6.4720    4.3840    3.4960 c3        1 591     -0.181000
     23 C17         7.0950    6.5130    6.0160 c1        1 591      0.071000
     24 C18         9.4050    2.4250    4.2060 c1        1 591      0.219000
     25 C19         6.9800    3.0500    3.8980 c1        1 591      0.079000
     26 H1         -0.2970   -1.2100   -0.1440 ha        1 591      0.002000
     27 H1A         0.2130   -1.3740   -0.5590 ha        1 591      0.002000
     28 H1B         1.6840    2.5770   -0.0090 ha        1 591      0.137000
     29 H2          2.9290    1.6470    1.9270 h4        1 591      0.181000
     30 H2A         0.8290    0.9580   -0.3160 ha        1 591      0.137000
     31 H3          4.5780    5.2040    2.7430 ha        1 591      0.199000
     32 H5          1.4540   -0.8920    1.2700 hn        1 591      0.254000
     33 HN5         5.5400   -5.7100    4.6510 hn        1 591      0.277667
     34 HN5A        4.2220   -6.3610    5.4700 hn        1 591      0.277667
     35 H9          1.9010   -5.6600    6.3090 h1        1 591      0.110333
     36 H9A         3.0340   -5.4340    7.7360 h1        1 591      0.110333
     37 H9B         1.5780   -4.3470    7.5380 h1        1 591      0.110333
     38 H11         5.1040   -1.4400    6.5510 ha        1 591      0.118000
     39 H12         6.5670    0.5450    6.6520 ha        1 591      0.142000
     40 H13         5.9050    1.1770    5.0330 ha        1 591      0.142000
     41 H15         3.9650    0.9560    3.5790 ha        1 591      0.211000
     42 H17         6.5210    5.0650    4.4100 hc        1 591      0.157500
     43 H18         7.5060    8.0890    7.4100 hn        1 591      0.288000
     44 H19         7.0790    4.8870    2.6920 hc        1 591      0.157500
     45 N5          4.9000   -5.5890    5.4500 n4        1 591     -0.011000
     46 H53         5.4390   -5.5770    6.3250 hn        1 591      0.277667
     47 C9          2.3860   -4.9050    6.9860 c3        1 591     -0.111000
@<TRIPOS>BOND
     1    1    4 1   
     2    1   28 1   
     3    1   30 1   
     4    2    4 1   
     5    2    6 1   
     6    2   32 1   
     7    3   13 1   
     8    4   29 1   
     9    5   10 1   
    10    6    8 1   
    11    6   21 1   
    12    7   13 1   
    13    7   15 1   
    14    7   47 1   
    15    8   10 1   
    16    8   11 1   
    17    9   11 1   
    18    9   15 1   
    19   11   13 1   
    20   11   16 1   
    21   12   23 1   
    22   12   43 1   
    23   14   24 1   
    24   14   25 1   
    25   15   45 1   
    26   16   17 1   
    27   16   21 1   
    28   17   18 1   
    29   17   38 1   
    30   18   39 1   
    31   18   40 1   
    32   19   20 1   
    33   20   22 1   
    34   20   31 1   
    35   21   41 1   
    36   22   25 1   
    37   22   42 1   
    38   22   44 1   
    39   26   27 1   
    40   33   45 1   
    41   34   45 1   
    42   35   47 1   
    43   36   47 1   
    44   37   47 1   
    45   45   46 1   
@<TRIPOS>SUBSTRUCTURE
     1 591         1 TEMP              0 ****  ****    0 ROOT
