@<TRIPOS>MOLECULE
591
   46    49     1     0     0
SMALL
bcc


@<TRIPOS>ATOM
      1 C1         -4.7340   -4.1140    0.0320 c3        1 591     -0.116100
      2 N1         -2.6610   -2.7540    0.3550 na        1 591      0.080400
      3 O1         -0.4180    0.9500   -2.1850 o         1 591     -0.587500
      4 C2         -3.5120   -3.8070    0.8810 c3        1 591      0.058300
      5 N2         -1.9170   -2.8820   -0.7600 nc        1 591     -0.509800
      6 C3         -2.5890   -1.4600    0.8820 cc        1 591     -0.095300
      7 N3         -1.9750    2.4320   -1.2580 n         1 591     -0.439300
      8 C4         -1.7170   -0.7390    0.0500 cd        1 591     -0.276600
      9 N4         -2.3090    1.5080    0.8590 n2        1 591     -0.675900
     10 C5         -1.3190   -1.6850   -0.9740 cd        1 591      0.313200
     11 C6         -1.2710    0.6690    0.2000 c3        1 591      0.221800
     12 N6          4.7770   -1.4280   -1.4900 nb        1 591     -0.691000
     13 C7         -1.1210    1.3060   -1.2380 c         1 591      0.688500
     14 N7          6.0350    0.2710   -0.2870 nb        1 591     -0.691000
     15 C8         -2.6910    2.4520   -0.0050 c2        1 591      0.624800
     16 C9         -2.3650    3.1520   -2.4240 c3        1 591      0.085300
     17 C10         0.0630    0.7140    0.9190 ca        1 591     -0.070300
     18 C11         0.1480    1.0710    2.2690 ca        1 591     -0.092000
     19 C12         1.3870    1.0770    2.9120 ca        1 591     -0.140000
     20 C13         2.5430    0.7230    2.2250 ca        1 591     -0.112000
     21 C14         2.4690    0.3500    0.8750 cp        1 591     -0.039000
     22 C15         1.2250    0.3440    0.2320 ca        1 591     -0.103000
     23 C16         3.6710   -0.0300    0.1510 cp        1 591     -0.259600
     24 C17         3.6690   -1.0660   -0.8160 ca        1 591      0.433200
     25 C18         5.9120   -0.7380   -1.1910 ca        1 591      0.623900
     26 C19         4.9120    0.6140    0.3730 ca        1 591      0.433200
     27 H1         -4.4370   -4.4510   -0.9900 hc        1 591      0.051033
     28 H1A        -5.3110   -4.9330    0.5270 hc        1 591      0.051033
     29 H1B        -5.3940   -3.2200   -0.0680 hc        1 591      0.051033
     30 H2         -3.8370   -3.4810    1.9100 h1        1 591      0.061700
     31 H2A        -2.8900   -4.7430    0.9850 h1        1 591      0.061700
     32 H3         -3.1300   -1.1550    1.7770 h4        1 591      0.186000
     33 H5         -0.6480   -1.4990   -1.8150 h4        1 591      0.058100
     34 HN5        -4.0240    3.4370    1.1570 hn        1 591      0.413300
     35 HN5A       -3.6030    4.2500   -0.2410 hn        1 591      0.413300
     36 H9         -3.4380    2.9510   -2.6890 h1        1 591      0.052700
     37 H9A        -2.2370    4.2550   -2.2480 h1        1 591      0.052700
     38 H9B        -1.7080    2.8380   -3.2790 h1        1 591      0.052700
     39 H11        -0.7510    1.3430    2.8420 ha        1 591      0.151000
     40 H12         1.4460    1.3600    3.9740 ha        1 591      0.134000
     41 H13         3.5150    0.7240    2.7430 ha        1 591      0.134000
     42 H15         1.1620    0.0500   -0.8300 ha        1 591      0.159000
     43 H17         2.7440   -1.6240   -1.0500 h4        1 591      0.033600
     44 H18         6.8300   -1.0290   -1.7410 h5        1 591      0.054100
     45 H19         5.0020    1.4380    1.1040 h4        1 591      0.033600
     46 N5         -3.7370    3.3680    0.2030 nh        1 591     -0.871800
@<TRIPOS>BOND
     1    1    4 1   
     2    1   27 1   
     3    1   28 1   
     4    1   29 1   
     5    2    4 1   
     6    2    5 1   
     7    2    6 1   
     8    3   13 2   
     9    4   30 1   
    10    4   31 1   
    11    5   10 2   
    12    6    8 2   
    13    6   32 1   
    14    7   13 1   
    15    7   15 1   
    16    7   16 1   
    17    8   10 1   
    18    8   11 1   
    19    9   11 1   
    20    9   15 2   
    21   10   33 1   
    22   11   13 1   
    23   11   17 1   
    24   12   24 ar  
    25   12   25 ar  
    26   14   25 ar  
    27   14   26 ar  
    28   15   46 1   
    29   16   36 1   
    30   16   37 1   
    31   16   38 1   
    32   17   18 ar  
    33   17   22 ar  
    34   18   19 ar  
    35   18   39 1   
    36   19   20 ar  
    37   19   40 1   
    38   20   21 ar  
    39   20   41 1   
    40   21   22 ar  
    41   21   23 1   
    42   22   42 1   
    43   23   24 ar  
    44   23   26 ar  
    45   24   43 1   
    46   25   44 1   
    47   26   45 1   
    48   34   46 1   
    49   35   46 1   
@<TRIPOS>SUBSTRUCTURE
     1 591         1 TEMP              0 ****  ****    0 ROOT
