@<TRIPOS>MOLECULE
592
   70    74     1     0     0
SMALL
bcc


@<TRIPOS>ATOM
      1 C20         1.5420    0.5410    1.9090 c3        1 592     -0.075800
      2 C13         2.7360    0.6520    1.0440 ca        1 592     -0.013300
      3 C14         4.0180    0.7140    1.6610 ca        1 592      0.142100
      4 O2          3.9880    0.6450    3.0300 os        1 592     -0.309900
      5 C19         5.2400    0.7650    3.7110 c3        1 592      0.103700
      6 C15         5.1820    0.8320    0.8970 ca        1 592     -0.145000
      7 C16         5.0930    0.8890   -0.4960 ca        1 592     -0.077000
      8 C1          3.8590    0.8180   -1.1260 ca        1 592     -0.156000
      9 C12         2.6880    0.7010   -0.3540 ca        1 592     -0.187600
     10 C10         1.3900    0.6860   -1.0380 c         1 592      0.586700
     11 O1          0.4090    1.3960   -0.9000 o         1 592     -0.400100
     12 N1          1.2670   -0.4340   -2.0800 n4        1 592     -0.696800
     13 C4          0.3320   -0.1150   -3.2200 c3        1 592      0.134500
     14 C5          0.9360    0.9330   -4.1710 c3        1 592     -0.100900
     15 C3         -0.1540   -1.3980   -3.9190 c3        1 592     -0.100900
     16 C2          0.6080   -1.7370   -5.2120 c3        1 592      0.191000
     17 C8          2.1130   -1.9690   -4.9050 c3        1 592     -0.118400
     18 C7          2.7530   -0.5900   -5.0780 c3        1 592     -0.118400
     19 C6          1.5650    0.3420   -5.4440 c3        1 592      0.191000
     20 N4          0.5550   -0.5360   -6.0720 nh        1 592     -0.722300
     21 C21         0.4360   -0.6100   -7.4610 ca        1 592      0.711200
     22 C26         0.5250    0.5850   -8.2520 ca        1 592     -0.293300
     23 C25         0.2680    0.5240   -9.6090 ca        1 592      0.032000
     24 N2          0.1150   -1.8180   -8.0540 nb        1 592     -0.716000
     25 C23        -0.1320   -1.8430   -9.3620 ca        1 592      0.499200
     26 C24        -0.0780   -0.7100  -10.2060 ca        1 592     -0.379900
     27 C27        -0.3330   -0.7130  -11.6380 c         1 592      0.575700
     28 O3         -0.1530    0.2120  -12.4210 o         1 592     -0.424100
     29 N3         -0.8900   -1.9880  -12.2310 n4        1 592     -0.677800
     30 C11        -1.3010   -1.8460  -13.6740 c3        1 592      0.181100
     31 C17        -1.8310   -3.1350  -14.1930 ca        1 592     -0.200300
     32 C18        -3.1990   -3.4170  -14.1000 ca        1 592     -0.100000
     33 C22        -3.7020   -4.6010  -14.6370 ca        1 592     -0.118000
     34 C28        -2.8420   -5.5040  -15.2670 ca        1 592     -0.072000
     35 C9         -1.4780   -5.2230  -15.3610 ca        1 592     -0.118000
     36 C29        -0.9700   -4.0400  -14.8260 ca        1 592     -0.100000
     37 H201        1.6490   -0.3390    2.5950 hc        1 592      0.074033
     38 H202        1.4650    1.4560    2.5550 hc        1 592      0.074033
     39 H203        0.5960    0.4380    1.3260 hc        1 592      0.074033
     40 H15         6.1710    0.8880    1.3810 ha        1 592      0.173000
     41 H191        5.7180    1.7480    3.4820 h1        1 592      0.066033
     42 H192        4.9420    0.7080    4.7900 h1        1 592      0.066033
     43 H193        5.9130   -0.0830    3.4390 h1        1 592      0.066033
     44 H16         6.0130    0.9970   -1.0950 ha        1 592      0.164000
     45 H1          3.8030    0.9040   -2.2210 ha        1 592      0.124000
     46 HA          2.2000   -0.6490   -2.4460 hn        1 592      0.455800
     47 H4         -0.5760    0.3630   -2.7250 hx        1 592      0.126700
     48 H51C        1.7090    1.5610   -3.6550 hc        1 592      0.089450
     49 H52C        0.0990    1.6240   -4.4680 hc        1 592      0.089450
     50 H31C       -1.2390   -1.2390   -4.1710 hc        1 592      0.089450
     51 H32C       -0.1070   -2.2920   -3.2430 hc        1 592      0.089450
     52 H6          1.8910    1.1750   -6.1210 h1        1 592      0.114200
     53 H2          0.1380   -2.6380   -5.6890 h1        1 592      0.114200
     54 H81C        2.2570   -2.3860   -3.8820 hc        1 592      0.067700
     55 H82C        2.5430   -2.7040   -5.6300 hc        1 592      0.067700
     56 H71C        3.5030   -0.6000   -5.9080 hc        1 592      0.067700
     57 H72C        3.2810   -0.2340   -4.1630 hc        1 592      0.067700
     58 H26         0.7700    1.5540   -7.7920 ha        1 592      0.173000
     59 H25         0.3280    1.4350  -10.2320 ha        1 592      0.184000
     60 H23        -0.3730   -2.8560   -9.7420 h4        1 592      0.023100
     61 H3         -1.7040   -2.2850  -11.6820 hn        1 592      0.454800
     62 H111       -0.3940   -1.5080  -14.2540 hx        1 592      0.118200
     63 H112       -2.0780   -1.0290  -13.7240 hx        1 592      0.118200
     64 H18        -3.8850   -2.6970  -13.6270 ha        1 592      0.138500
     65 H29         0.1030   -3.8120  -14.9250 ha        1 592      0.138500
     66 H22        -4.7800   -4.8190  -14.5740 ha        1 592      0.163000
     67 H28        -3.2440   -6.4360  -15.6980 ha        1 592      0.165000
     68 H9         -0.8030   -5.9300  -15.8700 ha        1 592      0.163000
     69 H12         0.9190   -1.2650   -1.5890 hn        1 592      0.455800
     70 H32        -0.1780   -2.7240  -12.1630 hn        1 592      0.454800
@<TRIPOS>BOND
     1    1    2 1   
     2    1   37 1   
     3    1   38 1   
     4    1   39 1   
     5    2    3 ar  
     6    2    9 ar  
     7    3    4 1   
     8    3    6 ar  
     9    4    5 1   
    10    5   41 1   
    11    5   42 1   
    12    5   43 1   
    13    6    7 ar  
    14    6   40 1   
    15    7    8 ar  
    16    7   44 1   
    17    8    9 ar  
    18    8   45 1   
    19    9   10 1   
    20   10   11 2   
    21   10   12 1   
    22   12   13 1   
    23   12   46 1   
    24   12   69 1   
    25   13   14 1   
    26   13   15 1   
    27   13   47 1   
    28   14   19 1   
    29   14   48 1   
    30   14   49 1   
    31   15   16 1   
    32   15   50 1   
    33   15   51 1   
    34   16   17 1   
    35   16   20 1   
    36   16   53 1   
    37   17   18 1   
    38   17   54 1   
    39   17   55 1   
    40   18   19 1   
    41   18   56 1   
    42   18   57 1   
    43   19   20 1   
    44   19   52 1   
    45   20   21 1   
    46   21   22 ar  
    47   21   24 ar  
    48   22   23 ar  
    49   22   58 1   
    50   23   26 ar  
    51   23   59 1   
    52   24   25 ar  
    53   25   26 ar  
    54   25   60 1   
    55   26   27 1   
    56   27   28 2   
    57   27   29 1   
    58   29   30 1   
    59   29   61 1   
    60   29   70 1   
    61   30   31 1   
    62   30   62 1   
    63   30   63 1   
    64   31   32 ar  
    65   31   36 ar  
    66   32   33 ar  
    67   32   64 1   
    68   33   34 ar  
    69   33   66 1   
    70   34   35 ar  
    71   34   67 1   
    72   35   36 ar  
    73   35   68 1   
    74   36   65 1   
@<TRIPOS>SUBSTRUCTURE
     1 592         1 TEMP              0 ****  ****    0 ROOT
