@<TRIPOS>MOLECULE
592
   70    74     1     0     0
SMALL
bcc


@<TRIPOS>ATOM
      1 C20         1.5580    0.4790    1.9260 c3        1 592     -0.075800
      2 C13         2.7430    0.6190    1.0530 ca        1 592     -0.013300
      3 C14         4.0280    0.6980    1.6600 ca        1 592      0.142100
      4 O2          4.0100    0.6160    3.0290 os        1 592     -0.309900
      5 C19         5.2660    0.7510    3.7010 c3        1 592      0.103700
      6 C15         5.1840    0.8430    0.8880 ca        1 592     -0.145000
      7 C16         5.0830    0.9110   -0.5040 ca        1 592     -0.077000
      8 C1          3.8450    0.8250   -1.1240 ca        1 592     -0.156000
      9 C12         2.6820    0.6800   -0.3440 ca        1 592     -0.187600
     10 C10         1.3790    0.6490   -1.0190 c         1 592      0.586700
     11 O1          0.3880    1.3400   -0.8660 o         1 592     -0.400100
     12 N1          1.2670   -0.4630   -2.0700 n4        1 592     -0.696800
     13 C4          0.3260   -0.1450   -3.2040 c3        1 592      0.134500
     14 C5          0.9170    0.9170   -4.1500 c3        1 592     -0.100900
     15 C3         -0.1490   -1.4270   -3.9130 c3        1 592     -0.100900
     16 C2          0.6120   -1.7480   -5.2110 c3        1 592      0.191000
     17 C8          2.1200   -1.9670   -4.9100 c3        1 592     -0.118400
     18 C7          2.7460   -0.5800   -5.0740 c3        1 592     -0.118400
     19 C6          1.5470    0.3430   -5.4290 c3        1 592      0.191000
     20 N4          0.5440   -0.5400   -6.0610 nh        1 592     -0.722300
     21 C21         0.4210   -0.6050   -7.4500 ca        1 592      0.711200
     22 C26         0.4960    0.5970   -8.2320 ca        1 592     -0.293300
     23 C25         0.2360    0.5440   -9.5880 ca        1 592      0.032000
     24 N2          0.1110   -1.8100   -8.0520 nb        1 592     -0.716000
     25 C23        -0.1410   -1.8280   -9.3590 ca        1 592      0.499200
     26 C24        -0.1000   -0.6880  -10.1940 ca        1 592     -0.379900
     27 C27        -0.3590   -0.6820  -11.6250 c         1 592      0.575700
     28 O3         -0.1900    0.2510  -12.4010 o         1 592     -0.424100
     29 N3         -0.9060   -1.9580  -12.2270 n4        1 592     -0.677800
     30 C11        -1.3220   -1.8080  -13.6680 c3        1 592      0.181100
     31 C17        -1.8410   -3.0980  -14.1950 ca        1 592     -0.200300
     32 C18        -3.2070   -3.3930  -14.1020 ca        1 592     -0.100000
     33 C22        -3.7010   -4.5770  -14.6460 ca        1 592     -0.118000
     34 C28        -2.8350   -5.4680  -15.2840 ca        1 592     -0.072000
     35 C9         -1.4730   -5.1740  -15.3790 ca        1 592     -0.118000
     36 C29        -0.9740   -3.9920  -14.8360 ca        1 592     -0.100000
     37 H201        0.6090    0.3660    1.3500 hc        1 592      0.074033
     38 H202        1.6850   -0.4060    2.6030 hc        1 592      0.074033
     39 H203        1.4700    1.3860    2.5810 hc        1 592      0.074033
     40 H15         6.1760    0.9120    1.3650 ha        1 592      0.173000
     41 H191        5.7240    1.7450    3.4770 h1        1 592      0.066033
     42 H192        4.9770    0.6790    4.7820 h1        1 592      0.066033
     43 H193        5.9510   -0.0820    3.4160 h1        1 592      0.066033
     44 H16         5.9960    1.0410   -1.1080 ha        1 592      0.164000
     45 H1          3.7790    0.9190   -2.2180 ha        1 592      0.124000
     46 HA          2.2030   -0.6640   -2.4410 hn        1 592      0.455800
     47 H4         -0.5850    0.3200   -2.7040 hx        1 592      0.126700
     48 H51C        1.6850    1.5480   -3.6300 hc        1 592      0.089450
     49 H52C        0.0720    1.6020   -4.4380 hc        1 592      0.089450
     50 H31C       -1.2370   -1.2770   -4.1600 hc        1 592      0.089450
     51 H32C       -0.0910   -2.3250   -3.2440 hc        1 592      0.089450
     52 H6          1.8630    1.1840   -6.1010 h1        1 592      0.114200
     53 H2          0.1490   -2.6500   -5.6940 h1        1 592      0.114200
     54 H81C        2.5560   -2.6920   -5.6420 hc        1 592      0.067700
     55 H82C        2.2720   -2.3900   -3.8900 hc        1 592      0.067700
     56 H71C        3.2730   -0.2260   -4.1580 hc        1 592      0.067700
     57 H72C        3.4930   -0.5760   -5.9070 hc        1 592      0.067700
     58 H26         0.7330    1.5650   -7.7640 ha        1 592      0.173000
     59 H25         0.2850    1.4620  -10.2050 ha        1 592      0.184000
     60 H23        -0.3730   -2.8400   -9.7470 h4        1 592      0.023100
     61 H3         -1.7160   -2.2650  -11.6780 hn        1 592      0.454800
     62 H111       -0.4190   -1.4580  -14.2470 hx        1 592      0.118200
     63 H112       -2.1060   -0.9980  -13.7100 hx        1 592      0.118200
     64 H18        -3.8980   -2.6820  -13.6230 ha        1 592      0.138500
     65 H29         0.0970   -3.7530  -14.9350 ha        1 592      0.138500
     66 H22        -4.7770   -4.8040  -14.5840 ha        1 592      0.163000
     67 H28        -3.2290   -6.4000  -15.7220 ha        1 592      0.165000
     68 H9         -0.7930   -5.8720  -15.8930 ha        1 592      0.163000
     69 H12         0.9300   -1.3030   -1.5860 hn        1 592      0.455800
     70 H32        -0.1880   -2.6880  -12.1660 hn        1 592      0.454800
@<TRIPOS>BOND
     1    1    2 1   
     2    1   37 1   
     3    1   38 1   
     4    1   39 1   
     5    2    3 ar  
     6    2    9 ar  
     7    3    4 1   
     8    3    6 ar  
     9    4    5 1   
    10    5   41 1   
    11    5   42 1   
    12    5   43 1   
    13    6    7 ar  
    14    6   40 1   
    15    7    8 ar  
    16    7   44 1   
    17    8    9 ar  
    18    8   45 1   
    19    9   10 1   
    20   10   11 2   
    21   10   12 1   
    22   12   13 1   
    23   12   46 1   
    24   12   69 1   
    25   13   14 1   
    26   13   15 1   
    27   13   47 1   
    28   14   19 1   
    29   14   48 1   
    30   14   49 1   
    31   15   16 1   
    32   15   50 1   
    33   15   51 1   
    34   16   17 1   
    35   16   20 1   
    36   16   53 1   
    37   17   18 1   
    38   17   54 1   
    39   17   55 1   
    40   18   19 1   
    41   18   56 1   
    42   18   57 1   
    43   19   20 1   
    44   19   52 1   
    45   20   21 1   
    46   21   22 ar  
    47   21   24 ar  
    48   22   23 ar  
    49   22   58 1   
    50   23   26 ar  
    51   23   59 1   
    52   24   25 ar  
    53   25   26 ar  
    54   25   60 1   
    55   26   27 1   
    56   27   28 2   
    57   27   29 1   
    58   29   30 1   
    59   29   61 1   
    60   29   70 1   
    61   30   31 1   
    62   30   62 1   
    63   30   63 1   
    64   31   32 ar  
    65   31   36 ar  
    66   32   33 ar  
    67   32   64 1   
    68   33   34 ar  
    69   33   66 1   
    70   34   35 ar  
    71   34   67 1   
    72   35   36 ar  
    73   35   68 1   
    74   36   65 1   
@<TRIPOS>SUBSTRUCTURE
     1 592         1 TEMP              0 ****  ****    0 ROOT
