@<TRIPOS>MOLECULE
592
   68    66     1     0     0
SMALL
bcc


@<TRIPOS>ATOM
      1 C20         0.3340    2.0500    5.2450 c3        1 592     -0.185000
      2 C13         1.8400    1.6450    5.3780 c2        1 592     -0.042000
      3 C14         2.5100    1.8330    6.5950 c2        1 592      0.070000
      4 O2          1.8220    2.4430    7.7070 os        1 592     -0.208000
      5 C19         2.5330    3.5470    8.3060 c3        1 592     -0.077000
      6 C15         3.8350    1.4680    6.7190 c1        1 592     -0.185000
      7 C16         4.5120    0.9090    5.6320 c1        1 592     -0.125250
      8 C1          3.8480    0.7200    4.4170 c1        1 592     -0.125250
      9 C12         2.5110    1.0890    4.2930 c1        1 592     -0.094000
     10 C10         1.7340    0.7580    2.9910 c2        1 592      0.350000
     11 O1          0.5590    0.9820    2.9230 o         1 592     -0.358000
     12 N1          2.4320    0.2270    1.8520 n         1 592     -0.385000
     13 C4          1.7120   -0.0430    0.6200 c3        1 592      0.030000
     14 C5          1.2250    1.2220    0.0870 c3        1 592     -0.199500
     15 C3          2.6860   -0.8830   -0.3630 c3        1 592     -0.199500
     16 C2          3.0160   -0.2020   -1.7520 c3        1 592     -0.006500
     17 C8          4.0190    0.8350   -1.5400 c3        1 592     -0.162000
     18 C7          3.0820    2.1320   -1.1600 c3        1 592     -0.162000
     19 C6          1.6650    1.5390   -1.2740 c3        1 592     -0.006500
     20 N4          1.9200    0.5040   -2.0740 n3        1 592     -0.208000
     21 C21         0.7660   -0.3840   -2.1150 c2        1 592      0.143000
     22 C26        -0.5170    0.1450   -2.2230 c2        1 592     -0.242000
     23 C25        -1.5990   -0.6970   -2.3960 c1        1 592     -0.033000
     24 N2          0.9560   -1.7480   -2.1800 n1        1 592     -0.200000
     25 C23        -0.1190   -2.5870   -2.3530 c1        1 592      0.024000
     26 C24        -1.4060   -2.0600   -2.4610 c1        1 592     -0.227000
     27 C27        -2.6140   -2.9980   -2.6870 c2        1 592      0.352000
     28 O3         -2.4480   -4.2070   -2.7450 o         1 592     -0.373000
     29 N3         -3.9190   -2.4510   -2.8350 n         1 592     -0.362000
     30 C11        -4.9900   -3.2600   -3.4000 c3        1 592      0.006000
     31 C17        -5.6200   -2.5180   -4.6150 c2        1 592     -0.120000
     32 C18        -6.2400   -1.3010   -4.4350 c2        1 592     -0.122000
     33 C22        -6.7610   -0.6090   -5.5420 c1        1 592     -0.135000
     34 C28        -6.6490   -1.1530   -6.8140 c1        1 592     -0.125250
     35 C9         -6.0200   -2.3870   -6.9930 c1        1 592     -0.125250
     36 C29        -5.5090   -3.0670   -5.9070 c1        1 592     -0.112000
     37 H201        0.1420    2.2960    4.3100 hc        1 592      0.097667
     38 H202       -0.2390    1.2860    5.5100 hc        1 592      0.097667
     39 H203        0.1450    2.8280    5.8390 hc        1 592      0.097667
     40 H15         4.3110    1.6030    7.5880 ha        1 592      0.140000
     41 H191        3.5110    3.4290    8.1650 h1        1 592      0.085333
     42 H192        2.2350    4.4080    7.8790 h1        1 592      0.085333
     43 H193        2.3410    3.5740    9.2730 h1        1 592      0.085333
     44 H16         5.4550    0.6500    5.7210 ha        1 592      0.135500
     45 H1          4.3250    0.3250    3.6490 ha        1 592      0.135500
     46 HA          3.3310    0.0420    1.9100 hn        1 592      0.225000
     47 H4          0.9230   -0.6130    0.8370 h1        1 592      0.129000
     48 H51C        1.5270    1.9510    0.6900 hc        1 592      0.102750
     49 H52C        0.2560    1.2000    0.0950 hc        1 592      0.102750
     50 H31C        3.5350   -1.0440    0.1110 hc        1 592      0.102750
     51 H32C        2.2560   -1.7670   -0.5450 hc        1 592      0.102750
     52 H6          1.0620    2.1670   -1.6990 h1        1 592      0.124500
     53 H2          3.2720   -0.8480   -2.4470 h1        1 592      0.124500
     54 H81C        4.5310    1.0000   -2.3640 hc        1 592      0.092500
     55 H82C        4.6030    0.6060   -0.8100 hc        1 592      0.092500
     56 H71C        3.2090    2.8500   -1.8010 hc        1 592      0.092500
     57 H72C        3.2570    2.4300   -0.2700 hc        1 592      0.092500
     58 H26        -0.6590    1.1470   -2.1750 ha        1 592      0.145000
     59 H25        -2.5260   -0.3160   -2.4740 ha        1 592      0.135000
     60 H23         0.0210   -3.5690   -2.4000 ha        1 592      0.183000
     61 H3         -4.0830   -1.5930   -2.5770 hn        1 592      0.216000
     62 H111       -4.6310   -4.1120   -3.6940 h1        1 592      0.110000
     63 H112       -5.6580   -3.4090   -2.7380 h1        1 592      0.110000
     64 H18        -6.3210   -0.9040   -3.5000 ha        1 592      0.129000
     65 H29        -5.0630   -3.9430   -6.0370 ha        1 592      0.154000
     66 H22        -7.2150    0.2830   -5.4120 ha        1 592      0.131000
     67 H28        -7.0210   -0.6600   -7.6050 ha        1 592      0.135500
     68 H9         -5.9380   -2.7890   -7.9310 ha        1 592      0.135500
@<TRIPOS>BOND
     1    1    2 1   
     2    1   37 1   
     3    1   38 1   
     4    1   39 1   
     5    2    3 1   
     6    2    9 1   
     7    3    4 1   
     8    3    6 1   
     9    4    5 1   
    10    5   41 1   
    11    5   42 1   
    12    5   43 1   
    13    6   40 1   
    14    7    8 1   
    15    7   44 1   
    16    8   45 1   
    17    9   10 1   
    18   10   11 1   
    19   10   12 1   
    20   12   13 1   
    21   12   46 1   
    22   13   14 1   
    23   13   15 1   
    24   13   47 1   
    25   14   19 1   
    26   14   48 1   
    27   14   49 1   
    28   15   16 1   
    29   15   50 1   
    30   15   51 1   
    31   16   17 1   
    32   16   20 1   
    33   16   53 1   
    34   17   18 1   
    35   17   54 1   
    36   17   55 1   
    37   18   19 1   
    38   18   56 1   
    39   18   57 1   
    40   19   20 1   
    41   19   52 1   
    42   20   21 1   
    43   21   22 1   
    44   21   24 1   
    45   22   23 1   
    46   22   58 1   
    47   23   59 1   
    48   25   26 1   
    49   25   60 1   
    50   26   27 1   
    51   27   28 1   
    52   27   29 1   
    53   29   30 1   
    54   29   61 1   
    55   30   31 1   
    56   30   62 1   
    57   30   63 1   
    58   31   32 1   
    59   31   36 1   
    60   32   33 1   
    61   32   64 1   
    62   33   66 1   
    63   34   35 1   
    64   34   67 1   
    65   35   68 1   
    66   36   65 1   
@<TRIPOS>SUBSTRUCTURE
     1 592         1 TEMP              0 ****  ****    0 ROOT
