@<TRIPOS>MOLECULE
592
   68    72     1     0     0
SMALL
bcc


@<TRIPOS>ATOM
      1 C20         5.8420    2.6880   -0.4700 c3        1 592     -0.060800
      2 C13         6.4610    1.3440   -0.4900 ca        1 592     -0.048300
      3 C14         7.8380    1.2040   -0.1840 ca        1 592      0.115100
      4 O2          8.4870    2.3850    0.1270 os        1 592     -0.323900
      5 C19         9.8940    2.2980    0.3180 c3        1 592      0.112700
      6 C15         8.4620   -0.0470   -0.1960 ca        1 592     -0.186000
      7 C16         7.7130   -1.1820   -0.5090 ca        1 592     -0.105000
      8 C1          6.3590   -1.0710   -0.8010 ca        1 592     -0.140000
      9 C12         5.7400    0.1860   -0.7940 ca        1 592     -0.114600
     10 C10         4.2870    0.2630   -1.1440 c         1 592      0.677700
     11 O1          3.8730    0.8400   -2.1680 o         1 592     -0.597100
     12 N1          3.4270   -0.3690   -0.2670 n         1 592     -0.576900
     13 C4          1.9900   -0.3760   -0.4410 c3        1 592      0.105700
     14 C5          1.4440   -1.7960   -0.7240 c3        1 592     -0.120900
     15 C3          1.2560    0.3360    0.7210 c3        1 592     -0.120900
     16 C2          0.7080   -0.6110    1.7960 c3        1 592      0.191000
     17 C8          1.8750   -1.4010    2.4500 c3        1 592     -0.082900
     18 C7          2.0040   -2.6630    1.5900 c3        1 592     -0.082900
     19 C6          0.8920   -2.5110    0.5150 c3        1 592      0.191000
     20 N4         -0.1200   -1.6800    1.1990 nh        1 592     -0.716300
     21 C21        -1.3390   -1.3860    0.5680 ca        1 592      0.662200
     22 C26        -1.9440   -2.3440   -0.3080 ca        1 592     -0.304300
     23 C25        -3.2160   -2.1040   -0.8050 ca        1 592     -0.009000
     24 N2         -1.9990   -0.2240    0.9020 nb        1 592     -0.727000
     25 C23        -3.2250   -0.0270    0.4030 ca        1 592      0.462200
     26 C24        -3.8850   -0.9210   -0.4620 ca        1 592     -0.309900
     27 C27        -5.2490   -0.6860   -0.9960 c         1 592      0.678700
     28 O3         -6.0140   -1.6400   -1.2580 o         1 592     -0.612100
     29 N3         -5.6210    0.6210   -1.2700 n         1 592     -0.552900
     30 C11        -6.9660    0.9600   -1.6510 c3        1 592      0.129300
     31 C17        -7.8740    1.3210   -0.5080 ca        1 592     -0.127300
     32 C18        -8.2940    2.6410   -0.3220 ca        1 592     -0.116500
     33 C22        -9.1590    2.9580    0.7260 ca        1 592     -0.133500
     34 C28        -9.6030    1.9600    1.5920 ca        1 592     -0.125000
     35 C9         -9.1830    0.6410    1.4100 ca        1 592     -0.133500
     36 C29        -8.3210    0.3210    0.3630 ca        1 592     -0.116500
     37 H201        4.9070    2.7150   -1.0830 hc        1 592      0.058700
     38 H202        5.5950    2.9770    0.5830 hc        1 592      0.058700
     39 H203        6.5560    3.4480   -0.8760 hc        1 592      0.058700
     40 H15         9.5310   -0.1490    0.0360 ha        1 592      0.140000
     41 H191       10.1310    1.6720    1.2120 h1        1 592      0.046033
     42 H192       10.3950    1.8890   -0.5920 h1        1 592      0.046033
     43 H193       10.1970    3.3620    0.4920 h1        1 592      0.046033
     44 H16         8.2010   -2.1680   -0.5240 ha        1 592      0.137000
     45 H1          5.7730   -1.9670   -1.0540 ha        1 592      0.138000
     46 HA          3.7950   -0.7990    0.5470 hn        1 592      0.311500
     47 H4          1.7830    0.2360   -1.3760 h1        1 592      0.090700
     48 H51C        0.6150   -1.6950   -1.4760 hc        1 592      0.063200
     49 H52C        2.2340   -2.4400   -1.1880 hc        1 592      0.063200
     50 H31C        1.9300    1.0800    1.2170 hc        1 592      0.063200
     51 H32C        0.4040    0.9140    0.2750 hc        1 592      0.063200
     52 H6          0.4620   -3.5070    0.2360 h1        1 592      0.084700
     53 H2          0.1150   -0.0380    2.5570 h1        1 592      0.084700
     54 H81C        2.8090   -0.7930    2.4640 hc        1 592      0.053200
     55 H82C        1.6170   -1.6640    3.5040 hc        1 592      0.053200
     56 H71C        3.0060   -2.7580    1.1120 hc        1 592      0.053200
     57 H72C        1.8230   -3.5800    2.2010 hc        1 592      0.053200
     58 H26        -1.4190   -3.2690   -0.5790 ha        1 592      0.147000
     59 H25        -3.7120   -2.8350   -1.4660 ha        1 592      0.162000
     60 H23        -3.7010    0.9140    0.7380 h4        1 592      0.019100
     61 H3         -5.0670    1.3550   -0.8970 hn        1 592      0.303500
     62 H111       -6.9030    1.8290   -2.3680 h1        1 592      0.070700
     63 H112       -7.4130    0.0790   -2.1990 h1        1 592      0.070700
     64 H18        -7.9480    3.4310   -1.0050 ha        1 592      0.141500
     65 H29        -7.9870   -0.7180    0.2070 ha        1 592      0.141500
     66 H22        -9.4900    3.9970    0.8670 ha        1 592      0.132500
     67 H28       -10.2840    2.2110    2.4180 ha        1 592      0.131000
     68 H9         -9.5340   -0.1470    2.0920 ha        1 592      0.132500
@<TRIPOS>BOND
     1    1    2 1   
     2    1   37 1   
     3    1   38 1   
     4    1   39 1   
     5    2    3 ar  
     6    2    9 ar  
     7    3    4 1   
     8    3    6 ar  
     9    4    5 1   
    10    5   41 1   
    11    5   42 1   
    12    5   43 1   
    13    6    7 ar  
    14    6   40 1   
    15    7    8 ar  
    16    7   44 1   
    17    8    9 ar  
    18    8   45 1   
    19    9   10 1   
    20   10   11 2   
    21   10   12 1   
    22   12   13 1   
    23   12   46 1   
    24   13   14 1   
    25   13   15 1   
    26   13   47 1   
    27   14   19 1   
    28   14   48 1   
    29   14   49 1   
    30   15   16 1   
    31   15   50 1   
    32   15   51 1   
    33   16   17 1   
    34   16   20 1   
    35   16   53 1   
    36   17   18 1   
    37   17   54 1   
    38   17   55 1   
    39   18   19 1   
    40   18   56 1   
    41   18   57 1   
    42   19   20 1   
    43   19   52 1   
    44   20   21 1   
    45   21   22 ar  
    46   21   24 ar  
    47   22   23 ar  
    48   22   58 1   
    49   23   26 ar  
    50   23   59 1   
    51   24   25 ar  
    52   25   26 ar  
    53   25   60 1   
    54   26   27 1   
    55   27   28 2   
    56   27   29 1   
    57   29   30 1   
    58   29   61 1   
    59   30   31 1   
    60   30   62 1   
    61   30   63 1   
    62   31   32 ar  
    63   31   36 ar  
    64   32   33 ar  
    65   32   64 1   
    66   33   34 ar  
    67   33   66 1   
    68   34   35 ar  
    69   34   67 1   
    70   35   36 ar  
    71   35   68 1   
    72   36   65 1   
@<TRIPOS>SUBSTRUCTURE
     1 592         1 TEMP              0 ****  ****    0 ROOT
