@<TRIPOS>MOLECULE
592
   70    74     1     0     0
SMALL
bcc


@<TRIPOS>ATOM
      1 C20         1.1210   -1.1650    0.2230 c3        1 592     -0.069800
      2 C13         2.2650   -0.2600    0.4630 ca        1 592     -0.025300
      3 C14         2.2220    0.6230    1.5770 ca        1 592      0.140100
      4 O2          1.0670    0.5510    2.3140 os        1 592     -0.313900
      5 C19         1.0080    1.3510    3.4980 c3        1 592      0.104700
      6 C15         3.2890    1.4820    1.8580 ca        1 592     -0.142000
      7 C16         4.4170    1.4780    1.0340 ca        1 592     -0.077000
      8 C1          4.4820    0.6350   -0.0680 ca        1 592     -0.147000
      9 C12         3.4080   -0.2300   -0.3460 ca        1 592     -0.182600
     10 C10         3.5250   -1.1660   -1.4680 c         1 592      0.590700
     11 O1          3.4240   -2.3810   -1.5120 o         1 592     -0.408100
     12 N1          3.8470   -0.5100   -2.8130 ny        1 592     -0.699800
     13 C4          2.5950   -0.0710   -3.5380 c3        1 592      0.147500
     14 C5          2.9250    0.9420   -4.6500 c3        1 592     -0.104900
     15 C3          1.7610   -1.2720   -4.0190 c3        1 592     -0.104900
     16 C2          1.9830   -1.6520   -5.4930 c3        1 592      0.189000
     17 C8          3.4620   -2.0610   -5.7320 c3        1 592     -0.120400
     18 C7          4.1630   -0.7470   -6.0860 c3        1 592     -0.120400
     19 C6          3.0300    0.3170   -6.0510 c3        1 592      0.189000
     20 N4          1.7750   -0.4270   -6.2960 nh        1 592     -0.719300
     21 C21         1.2250   -0.4680   -7.5820 ca        1 592      0.707200
     22 C26         1.1670    0.7300   -8.3710 ca        1 592     -0.291300
     23 C25         0.5020    0.7150   -9.5830 ca        1 592      0.031000
     24 N2          0.6350   -1.6330   -8.0370 nb        1 592     -0.713000
     25 C23        -0.0010   -1.6150   -9.2060 ca        1 592      0.497200
     26 C24        -0.1090   -0.4760  -10.0380 ca        1 592     -0.377900
     27 C27        -0.7900   -0.4300  -11.3220 c         1 592      0.575700
     28 O3         -0.8440    0.5200  -12.0940 o         1 592     -0.425100
     29 N3         -1.5160   -1.6830  -11.7590 ny        1 592     -0.676800
     30 C11        -2.2570   -1.5230  -13.0610 c3        1 592      0.181100
     31 C17        -2.9390   -2.7920  -13.4300 ca        1 592     -0.200300
     32 C18        -4.2560   -3.0250  -13.0160 ca        1 592     -0.100500
     33 C22        -4.9120   -4.1900  -13.4100 ca        1 592     -0.118000
     34 C28        -4.2560   -5.1230  -14.2160 ca        1 592     -0.072000
     35 C9         -2.9430   -4.8910  -14.6310 ca        1 592     -0.118000
     36 C29        -2.2830   -3.7280  -14.2400 ca        1 592     -0.100500
     37 H201        1.1220   -1.9790    0.9950 hc        1 592      0.068700
     38 H202        1.1590   -1.6350   -0.7890 hc        1 592      0.068700
     39 H203        0.1560   -0.6050    0.3300 hc        1 592      0.068700
     40 H15         3.2550    2.1570    2.7290 ha        1 592      0.173000
     41 H191        0.0080    1.0830    3.9290 h1        1 592      0.065367
     42 H192        1.8300    1.0730    4.2000 h1        1 592      0.065367
     43 H193        1.0490    2.4360    3.2370 h1        1 592      0.065367
     44 H16         5.2640    2.1460    1.2670 ha        1 592      0.169000
     45 H1          5.3960    0.6180   -0.6780 ha        1 592      0.133000
     46 HA          4.3580   -1.1760   -3.4040 hn        1 592      0.454300
     47 H4          1.9880    0.4760   -2.7490 hx        1 592      0.110700
     48 H51C        3.8760    1.5000   -4.4430 hc        1 592      0.091950
     49 H52C        2.0960    1.7020   -4.6520 hc        1 592      0.091950
     50 H31C        1.9480   -2.1840   -3.3910 hc        1 592      0.091950
     51 H32C        0.6800   -0.9920   -3.8780 hc        1 592      0.091950
     52 H6          3.2050    1.1260   -6.8090 h1        1 592      0.113700
     53 H2          1.2740   -2.4790   -5.7650 h1        1 592      0.113700
     54 H81C        3.5230   -2.7860   -6.5820 hc        1 592      0.070700
     55 H82C        3.8960   -2.5670   -4.8390 hc        1 592      0.070700
     56 H71C        4.6110   -0.7970   -7.1090 hc        1 592      0.070700
     57 H72C        4.9840   -0.4870   -5.3790 hc        1 592      0.070700
     58 H26         1.6210    1.6660   -8.0140 ha        1 592      0.172000
     59 H25         0.4430    1.6310  -10.2010 ha        1 592      0.185000
     60 H23        -0.4360   -2.5960   -9.4820 h4        1 592      0.023100
     61 H3         -2.1840   -1.9530  -11.0280 hn        1 592      0.455800
     62 H111       -1.5050   -1.2140  -13.8430 hx        1 592      0.117700
     63 H112       -2.9960   -0.6800  -12.9270 hx        1 592      0.117700
     64 H18        -4.7860   -2.2810  -12.4020 ha        1 592      0.138500
     65 H29        -1.2560   -3.5380  -14.5900 ha        1 592      0.138500
     66 H22        -5.9520   -4.3680  -13.0940 ha        1 592      0.163000
     67 H28        -4.7800   -6.0400  -14.5340 ha        1 592      0.165000
     68 H9         -2.4310   -5.6220  -15.2770 ha        1 592      0.163000
     69 H12         4.4370    0.3120   -2.6460 hn        1 592      0.454300
     70 H32        -0.8340   -2.4440  -11.8590 hn        1 592      0.455800
@<TRIPOS>BOND
     1    1    2 1   
     2    1   37 1   
     3    1   38 1   
     4    1   39 1   
     5    2    3 ar  
     6    2    9 ar  
     7    3    4 1   
     8    3    6 ar  
     9    4    5 1   
    10    5   41 1   
    11    5   42 1   
    12    5   43 1   
    13    6    7 ar  
    14    6   40 1   
    15    7    8 ar  
    16    7   44 1   
    17    8    9 ar  
    18    8   45 1   
    19    9   10 1   
    20   10   11 2   
    21   10   12 1   
    22   12   13 1   
    23   12   46 1   
    24   12   69 1   
    25   13   14 1   
    26   13   15 1   
    27   13   47 1   
    28   14   19 1   
    29   14   48 1   
    30   14   49 1   
    31   15   16 1   
    32   15   50 1   
    33   15   51 1   
    34   16   17 1   
    35   16   20 1   
    36   16   53 1   
    37   17   18 1   
    38   17   54 1   
    39   17   55 1   
    40   18   19 1   
    41   18   56 1   
    42   18   57 1   
    43   19   20 1   
    44   19   52 1   
    45   20   21 1   
    46   21   22 ar  
    47   21   24 ar  
    48   22   23 ar  
    49   22   58 1   
    50   23   26 ar  
    51   23   59 1   
    52   24   25 ar  
    53   25   26 ar  
    54   25   60 1   
    55   26   27 1   
    56   27   28 2   
    57   27   29 1   
    58   29   30 1   
    59   29   61 1   
    60   29   70 1   
    61   30   31 1   
    62   30   62 1   
    63   30   63 1   
    64   31   32 ar  
    65   31   36 ar  
    66   32   33 ar  
    67   32   64 1   
    68   33   34 ar  
    69   33   66 1   
    70   34   35 ar  
    71   34   67 1   
    72   35   36 ar  
    73   35   68 1   
    74   36   65 1   
@<TRIPOS>SUBSTRUCTURE
     1 592         1 TEMP              0 ****  ****    0 ROOT
