@<TRIPOS>MOLECULE
593
   49    50     1     0     0
SMALL
bcc


@<TRIPOS>ATOM
      1 C1         -3.6570   -1.8090   -1.9070 c3        1 593     -0.068000
      2 N1         -2.2440   -1.7430   -1.6400 n         1 593     -0.332000
      3 O1         -1.9570   -2.2640    0.7200 o         1 593     -0.318000
      4 C2         -1.6020   -1.6590   -0.2770 c2        1 593      0.292000
      5 N2         -0.1530   -0.9270   -1.9320 n1        1 593     -0.255000
      6 C3         -0.1210   -1.0730   -0.5580 c2        1 593      0.056000
      7 N3         -1.6580   -0.7180   -3.7640 n3        1 593     -0.306000
      8 C4         -1.2810   -1.2840   -2.5010 c2        1 593      0.167000
      9 C5          0.9970   -2.0290   -0.0870 c2        1 593     -0.070000
     10 C6          0.8940   -2.6650    1.1470 c1        1 593     -0.126000
     11 C7          1.8500   -3.6010    1.5300 c1        1 593     -0.130000
     12 C8          2.9100   -3.9020    0.6800 c1        1 593     -0.130000
     13 C9          3.0140   -3.2670   -0.5530 c1        1 593     -0.142000
     14 C10         2.0580   -2.3300   -0.9370 c2        1 593     -0.098000
     15 C11         0.2140    0.2320    0.2210 c3        1 593     -0.014000
     16 C12        -0.0910    0.4420    1.6910 c3        1 593     -0.150667
     17 C13         0.3740    1.7890    2.3260 c3        1 593     -0.099333
     18 C14         1.4920    2.4260    1.7430 c3        1 593     -0.149667
     19 C15         1.5070    2.5110    0.3330 c3        1 593     -0.099333
     20 C16         1.1340    1.2220   -0.4640 c3        1 593     -0.150667
     21 C17         0.5060    3.4850    0.0020 c3        1 593     -0.149667
     22 C18        -0.8760    2.9800    0.5990 c3        1 593     -0.099333
     23 C19        -0.7160    2.7060    2.1530 c3        1 593     -0.149667
     24 C20        -1.2730    1.6960   -0.0920 c3        1 593     -0.150667
     25 H1         -4.1240   -2.1600   -1.1170 h1        1 593      0.090333
     26 H1A        -3.8180   -2.4030   -2.6740 h1        1 593      0.090333
     27 H1B        -3.9940   -0.9090   -2.1140 h1        1 593      0.090333
     28 HN3        -2.5320   -0.7610   -4.0430 hn        1 593      0.205000
     29 HN3A       -1.0190   -0.3520   -4.3120 hn        1 593      0.205000
     30 H6          0.1480   -2.4540    1.7450 ha        1 593      0.156000
     31 H7          1.7770   -4.0500    2.4000 ha        1 593      0.131000
     32 H8          3.5850   -4.5630    0.9500 ha        1 593      0.131000
     33 H9          3.7630   -3.4790   -1.1540 ha        1 593      0.131000
     34 H10         2.1310   -1.8830   -1.8060 ha        1 593      0.150000
     35 H12        -1.0640    0.3720    1.8110 hc        1 593      0.091500
     36 H12A        0.3320   -0.2900    2.1940 hc        1 593      0.091500
     37 H13         0.5400    1.6560    3.2890 hc        1 593      0.087333
     38 H14         2.3020    1.9410    2.0270 hc        1 593      0.080000
     39 H14A        1.5420    3.3420    2.1030 hc        1 593      0.080000
     40 H15         2.3900    2.8360    0.0350 hc        1 593      0.087333
     41 H16         0.7080    1.5000   -1.3040 hc        1 593      0.091500
     42 H16A        1.9710    0.7520   -0.6870 hc        1 593      0.091500
     43 H17         0.4350    3.5720   -0.9750 hc        1 593      0.080000
     44 H17A        0.7420    4.3550    0.3990 hc        1 593      0.080000
     45 H18        -1.5700    3.6640    0.4520 hc        1 593      0.087333
     46 H19        -0.5200    3.5500    2.6220 hc        1 593      0.080000
     47 H19A       -1.5440    2.3100    2.5090 hc        1 593      0.080000
     48 H20        -1.3720    1.8600   -1.0560 hc        1 593      0.091500
     49 H20A       -2.1280    1.3770    0.2760 hc        1 593      0.091500
@<TRIPOS>BOND
     1    1    2 1   
     2    1   25 1   
     3    1   26 1   
     4    1   27 1   
     5    2    4 1   
     6    2    8 1   
     7    3    4 1   
     8    4    6 1   
     9    5    8 1   
    10    6    9 1   
    11    6   15 1   
    12    7    8 1   
    13    7   28 1   
    14    7   29 1   
    15    9   10 1   
    16    9   14 1   
    17   10   30 1   
    18   11   12 1   
    19   11   31 1   
    20   12   32 1   
    21   13   14 1   
    22   13   33 1   
    23   14   34 1   
    24   15   16 1   
    25   15   20 1   
    26   15   24 1   
    27   16   17 1   
    28   16   35 1   
    29   16   36 1   
    30   17   18 1   
    31   17   23 1   
    32   17   37 1   
    33   18   19 1   
    34   18   38 1   
    35   18   39 1   
    36   19   20 1   
    37   19   21 1   
    38   19   40 1   
    39   20   41 1   
    40   20   42 1   
    41   21   22 1   
    42   21   43 1   
    43   21   44 1   
    44   22   23 1   
    45   22   24 1   
    46   22   45 1   
    47   23   46 1   
    48   23   47 1   
    49   24   48 1   
    50   24   49 1   
@<TRIPOS>SUBSTRUCTURE
     1 593         1 TEMP              0 ****  ****    0 ROOT
