@<TRIPOS>MOLECULE
593
   49    53     1     0     0
SMALL
bcc


@<TRIPOS>ATOM
      1 C1         -2.2930   -3.3580    1.1960 c3        1 593      0.088300
      2 N1         -1.8720   -2.1890    0.5030 n         1 593     -0.444300
      3 O1         -0.9690   -0.9710    2.2750 o         1 593     -0.594500
      4 C2         -1.1480   -1.1100    1.0620 c         1 593      0.685500
      5 N2         -1.1470   -0.9730   -1.3450 n2        1 593     -0.666900
      6 C3         -0.6870   -0.2120   -0.1500 c3        1 593      0.138500
      7 N3         -2.2690   -3.0950   -1.7660 nh        1 593     -0.866800
      8 C4         -1.7800   -2.0710   -0.9320 c2        1 593      0.613800
      9 C5         -1.3720    1.1370   -0.0790 ca        1 593     -0.075300
     10 C6         -1.7170    1.7100    1.1520 ca        1 593     -0.113000
     11 C7         -2.3520    2.9500    1.2020 ca        1 593     -0.139000
     12 C8         -2.6460    3.6380    0.0260 ca        1 593     -0.125000
     13 C9         -2.2950    3.0810   -1.2020 ca        1 593     -0.139000
     14 C10        -1.6600    1.8410   -1.2570 ca        1 593     -0.113000
     15 C11         0.8650   -0.0610   -0.1180 c3        1 593     -0.015000
     16 C12         1.3630    0.6200   -1.3990 c3        1 593     -0.072733
     17 C13         2.8800    0.7720   -1.3570 c3        1 593     -0.059700
     18 C14         3.2810    1.6180   -0.1540 c3        1 593     -0.071067
     19 C15         2.8060    0.9350    1.1230 c3        1 593     -0.059700
     20 C16         1.2890    0.7890    1.0870 c3        1 593     -0.072733
     21 C17         3.4510   -0.4410    1.2370 c3        1 593     -0.071067
     22 C18         3.0510   -1.2850    0.0320 c3        1 593     -0.059700
     23 C19         3.5260   -0.6050   -1.2470 c3        1 593     -0.071067
     24 C20         1.5340   -1.4380   -0.0050 c3        1 593     -0.072733
     25 H1         -3.3830   -3.5470    0.9980 h1        1 593      0.050700
     26 H1A        -1.7060   -4.2600    0.8690 h1        1 593      0.050700
     27 H1B        -2.1420   -3.1990    2.2980 h1        1 593      0.050700
     28 HN3        -2.3280   -2.8250   -2.7260 hn        1 593      0.409300
     29 HN3A       -3.1020   -3.5260   -1.4250 hn        1 593      0.409300
     30 H6         -1.4800    1.1900    2.0950 ha        1 593      0.153500
     31 H7         -2.6190    3.3840    2.1770 ha        1 593      0.132000
     32 H8         -3.1490    4.6140    0.0680 ha        1 593      0.130000
     33 H9         -2.5180    3.6200   -2.1350 ha        1 593      0.132000
     34 H10        -1.3830    1.4230   -2.2380 ha        1 593      0.153500
     35 H12         1.0790    0.0140   -2.2970 hc        1 593      0.052700
     36 H12A        0.8830    1.6280   -1.4940 hc        1 593      0.052700
     37 H13         3.2240    1.2740   -2.3000 hc        1 593      0.048033
     38 H14         4.3940    1.7420   -0.1290 hc        1 593      0.040700
     39 H14A        2.8210    2.6360   -0.2340 hc        1 593      0.040700
     40 H15         3.0930    1.5580    2.0120 hc        1 593      0.048033
     41 H16         0.8210    1.8050    1.0150 hc        1 593      0.052700
     42 H16A        0.9310    0.3070    2.0340 hc        1 593      0.052700
     43 H17         4.5650   -0.3380    1.2760 hc        1 593      0.040700
     44 H17A        3.1160   -0.9420    2.1810 hc        1 593      0.040700
     45 H18         3.5210   -2.3010    0.1130 hc        1 593      0.048033
     46 H19         3.2480   -1.2270   -2.1350 hc        1 593      0.040700
     47 H19A        4.6410   -0.5020   -1.2320 hc        1 593      0.040700
     48 H20         1.1900   -1.9480    0.9330 hc        1 593      0.052700
     49 H20A        1.2520   -2.0790   -0.8790 hc        1 593      0.052700
@<TRIPOS>BOND
     1    1    2 1   
     2    1   25 1   
     3    1   26 1   
     4    1   27 1   
     5    2    4 1   
     6    2    8 1   
     7    3    4 2   
     8    4    6 1   
     9    5    6 1   
    10    5    8 2   
    11    6    9 1   
    12    6   15 1   
    13    7    8 1   
    14    7   28 1   
    15    7   29 1   
    16    9   10 ar  
    17    9   14 ar  
    18   10   11 ar  
    19   10   30 1   
    20   11   12 ar  
    21   11   31 1   
    22   12   13 ar  
    23   12   32 1   
    24   13   14 ar  
    25   13   33 1   
    26   14   34 1   
    27   15   16 1   
    28   15   20 1   
    29   15   24 1   
    30   16   17 1   
    31   16   35 1   
    32   16   36 1   
    33   17   18 1   
    34   17   23 1   
    35   17   37 1   
    36   18   19 1   
    37   18   38 1   
    38   18   39 1   
    39   19   20 1   
    40   19   21 1   
    41   19   40 1   
    42   20   41 1   
    43   20   42 1   
    44   21   22 1   
    45   21   43 1   
    46   21   44 1   
    47   22   23 1   
    48   22   24 1   
    49   22   45 1   
    50   23   46 1   
    51   23   47 1   
    52   24   48 1   
    53   24   49 1   
@<TRIPOS>SUBSTRUCTURE
     1 593         1 TEMP              0 ****  ****    0 ROOT
