@<TRIPOS>MOLECULE
593
   50    54     1     0     0
SMALL
bcc


@<TRIPOS>ATOM
      1 C1         -0.0620    0.1870   -0.0240 c3        1 593      0.057300
      2 N1          1.3310   -0.1160   -0.0150 n         1 593     -0.433300
      3 O1          1.7420   -0.1610    2.2820 o         1 593     -0.502500
      4 C2          2.1900   -0.0920    1.1460 c         1 593      0.690500
      5 N2          3.4960    0.0220   -0.8820 n2        1 593     -0.521900
      6 C3          3.6710   -0.0190    0.6070 c3        1 593      0.149500
      7 N3          1.6580    0.0350   -2.5080 n4        1 593     -0.778600
      8 C4          2.2020    0.0020   -1.1320 c2        1 593      0.463800
      9 C5          4.3430    1.2500    1.0810 ca        1 593     -0.118300
     10 C6          3.9870    1.8340    2.3040 ca        1 593     -0.112500
     11 C7          4.6140    3.0030    2.7330 ca        1 593     -0.125000
     12 C8          5.6040    3.5990    1.9530 ca        1 593     -0.099000
     13 C9          5.9740    3.0130    0.7430 ca        1 593     -0.125000
     14 C10         5.3530    1.8430    0.3090 ca        1 593     -0.112500
     15 C11         4.4430   -1.3010    1.0590 c3        1 593     -0.019000
     16 C12         5.8130   -1.3720    0.3740 c3        1 593     -0.073067
     17 C13         6.5630   -2.6160    0.8430 c3        1 593     -0.059367
     18 C14         6.7620   -2.5570    2.3530 c3        1 593     -0.075067
     19 C15         5.4020   -2.5010    3.0390 c3        1 593     -0.059367
     20 C16         4.6520   -1.2560    2.5790 c3        1 593     -0.073067
     21 C17         4.5970   -3.7450    2.6840 c3        1 593     -0.075067
     22 C18         4.4010   -3.8040    1.1730 c3        1 593     -0.059367
     23 C19         5.7600   -3.8610    0.4840 c3        1 593     -0.075067
     24 C20         3.6450   -2.5620    0.7080 c3        1 593     -0.073067
     25 H1         -0.4450    0.0940    1.0320 h1        1 593      0.070033
     26 H1A        -0.2620    1.2320   -0.3880 h1        1 593      0.070033
     27 H1B        -0.6110   -0.5470   -0.6720 h1        1 593      0.070033
     28 HN3         0.9600    0.7860   -2.5790 hn        1 593      0.482800
     29 HN3A        2.4210    0.2050   -3.1800 hn        1 593      0.482800
     30 H6          3.2280    1.3690    2.9530 ha        1 593      0.149500
     31 H7          4.3260    3.4510    3.6970 ha        1 593      0.150000
     32 H8          6.0970    4.5230    2.2950 ha        1 593      0.152000
     33 H9          6.7660    3.4690    0.1290 ha        1 593      0.150000
     34 H10         5.6820    1.3870   -0.6370 ha        1 593      0.149500
     35 H12         5.6960   -1.4150   -0.7380 hc        1 593      0.049200
     36 H12A        6.4070   -0.4560    0.6290 hc        1 593      0.049200
     37 H13         7.5620   -2.6520    0.3330 hc        1 593      0.063700
     38 H14         7.3650   -1.6530    2.6240 hc        1 593      0.052200
     39 H14A        7.3250   -3.4630    2.6970 hc        1 593      0.052200
     40 H15         5.5430   -2.4500    4.1520 hc        1 593      0.063700
     41 H16         3.6610   -1.1980    3.1000 hc        1 593      0.049200
     42 H16A        5.2430   -0.3430    2.8520 hc        1 593      0.049200
     43 H17         3.6030   -3.7170    3.1980 hc        1 593      0.052200
     44 H17A        5.1400   -4.6610    3.0310 hc        1 593      0.052200
     45 H18         3.8040   -4.7170    0.9070 hc        1 593      0.063700
     46 H19         6.3130   -4.7780    0.8140 hc        1 593      0.052200
     47 H19A        5.6240   -3.9220   -0.6260 hc        1 593      0.052200
     48 H20         3.4860   -2.6290   -0.3980 hc        1 593      0.049200
     49 H20A        2.6430   -2.5320    1.2100 hc        1 593      0.049200
     50 H33         1.2150   -0.8710   -2.7130 hn        1 593      0.482800
@<TRIPOS>BOND
     1    1    2 1   
     2    1   25 1   
     3    1   26 1   
     4    1   27 1   
     5    2    4 1   
     6    2    8 1   
     7    3    4 2   
     8    4    6 1   
     9    5    6 1   
    10    5    8 2   
    11    6    9 1   
    12    6   15 1   
    13    7    8 1   
    14    7   28 1   
    15    7   29 1   
    16    7   50 1   
    17    9   10 ar  
    18    9   14 ar  
    19   10   11 ar  
    20   10   30 1   
    21   11   12 ar  
    22   11   31 1   
    23   12   13 ar  
    24   12   32 1   
    25   13   14 ar  
    26   13   33 1   
    27   14   34 1   
    28   15   16 1   
    29   15   20 1   
    30   15   24 1   
    31   16   17 1   
    32   16   35 1   
    33   16   36 1   
    34   17   18 1   
    35   17   23 1   
    36   17   37 1   
    37   18   19 1   
    38   18   38 1   
    39   18   39 1   
    40   19   20 1   
    41   19   21 1   
    42   19   40 1   
    43   20   41 1   
    44   20   42 1   
    45   21   22 1   
    46   21   43 1   
    47   21   44 1   
    48   22   23 1   
    49   22   24 1   
    50   22   45 1   
    51   23   46 1   
    52   23   47 1   
    53   24   48 1   
    54   24   49 1   
@<TRIPOS>SUBSTRUCTURE
     1 593         1 TEMP              0 ****  ****    0 ROOT
