@<TRIPOS>MOLECULE
593
   50    54     1     0     0
SMALL
bcc


@<TRIPOS>ATOM
      1 C1         -0.0640    0.1850   -0.0170 c3        1 593      0.057300
      2 N1          1.3290   -0.1170   -0.0100 n         1 593     -0.433300
      3 O1          1.7440   -0.1640    2.2860 o         1 593     -0.502500
      4 C2          2.1900   -0.0940    1.1500 c         1 593      0.690500
      5 N2          3.4930    0.0230   -0.8810 n2        1 593     -0.521900
      6 C3          3.6710   -0.0190    0.6090 c3        1 593      0.149500
      7 N3          1.6520    0.0360   -2.5030 nz        1 593     -0.778600
      8 C4          2.1980    0.0030   -1.1290 c2        1 593      0.464800
      9 C5          4.3430    1.2500    1.0830 ca        1 593     -0.118300
     10 C6          3.9880    1.8330    2.3060 ca        1 593     -0.112500
     11 C7          4.6150    3.0020    2.7360 ca        1 593     -0.125000
     12 C8          5.6040    3.5990    1.9550 ca        1 593     -0.099000
     13 C9          5.9720    3.0140    0.7440 ca        1 593     -0.125000
     14 C10         5.3510    1.8440    0.3090 ca        1 593     -0.112500
     15 C11         4.4440   -1.3010    1.0580 c3        1 593     -0.019000
     16 C12         5.8130   -1.3710    0.3710 c3        1 593     -0.073067
     17 C13         6.5640   -2.6140    0.8380 c3        1 593     -0.059367
     18 C14         6.7660   -2.5570    2.3480 c3        1 593     -0.075067
     19 C15         5.4070   -2.5020    3.0360 c3        1 593     -0.059367
     20 C16         4.6560   -1.2570    2.5780 c3        1 593     -0.073067
     21 C17         4.6020   -3.7460    2.6810 c3        1 593     -0.075067
     22 C18         4.4040   -3.8040    1.1710 c3        1 593     -0.059367
     23 C19         5.7610   -3.8600    0.4790 c3        1 593     -0.075067
     24 C20         3.6460   -2.5630    0.7080 c3        1 593     -0.073067
     25 H1         -0.2660    1.2290   -0.3800 h1        1 593      0.070033
     26 H1A        -0.4450    0.0900    1.0400 h1        1 593      0.070033
     27 H1B        -0.6130   -0.5510   -0.6640 h1        1 593      0.070033
     28 HN3         0.9550    0.7880   -2.5720 hn        1 593      0.482800
     29 HN3A        2.4140    0.2060   -3.1770 hn        1 593      0.482800
     30 H6          3.2300    1.3660    2.9570 ha        1 593      0.149500
     31 H7          4.3280    3.4490    3.7010 ha        1 593      0.150000
     32 H8          6.0960    4.5230    2.2960 ha        1 593      0.152000
     33 H9          6.7630    3.4710    0.1290 ha        1 593      0.150000
     34 H10         5.6790    1.3890   -0.6380 ha        1 593      0.149500
     35 H12         5.6940   -1.4130   -0.7410 hc        1 593      0.049200
     36 H12A        6.4060   -0.4540    0.6260 hc        1 593      0.049200
     37 H13         7.5630   -2.6500    0.3260 hc        1 593      0.063700
     38 H14         7.3300   -3.4620    2.6900 hc        1 593      0.052200
     39 H14A        7.3690   -1.6530    2.6190 hc        1 593      0.052200
     40 H15         5.5500   -2.4510    4.1490 hc        1 593      0.063700
     41 H16         3.6650   -1.2000    3.1000 hc        1 593      0.049200
     42 H16A        5.2470   -0.3440    2.8510 hc        1 593      0.049200
     43 H17         3.6080   -3.7190    3.1970 hc        1 593      0.052200
     44 H17A        5.1460   -4.6620    3.0270 hc        1 593      0.052200
     45 H18         3.8070   -4.7170    0.9040 hc        1 593      0.063700
     46 H19         5.6240   -3.9200   -0.6310 hc        1 593      0.052200
     47 H19A        6.3160   -4.7760    0.8070 hc        1 593      0.052200
     48 H20         3.4850   -2.6290   -0.3980 hc        1 593      0.049200
     49 H20A        2.6440   -2.5330    1.2110 hc        1 593      0.049200
     50 H33         1.2080   -0.8690   -2.7080 hn        1 593      0.482800
@<TRIPOS>BOND
     1    1    2 1   
     2    1   25 1   
     3    1   26 1   
     4    1   27 1   
     5    2    4 1   
     6    2    8 1   
     7    3    4 2   
     8    4    6 1   
     9    5    6 1   
    10    5    8 2   
    11    6    9 1   
    12    6   15 1   
    13    7    8 1   
    14    7   28 1   
    15    7   29 1   
    16    7   50 1   
    17    9   10 ar  
    18    9   14 ar  
    19   10   11 ar  
    20   10   30 1   
    21   11   12 ar  
    22   11   31 1   
    23   12   13 ar  
    24   12   32 1   
    25   13   14 ar  
    26   13   33 1   
    27   14   34 1   
    28   15   16 1   
    29   15   20 1   
    30   15   24 1   
    31   16   17 1   
    32   16   35 1   
    33   16   36 1   
    34   17   18 1   
    35   17   23 1   
    36   17   37 1   
    37   18   19 1   
    38   18   38 1   
    39   18   39 1   
    40   19   20 1   
    41   19   21 1   
    42   19   40 1   
    43   20   41 1   
    44   20   42 1   
    45   21   22 1   
    46   21   43 1   
    47   21   44 1   
    48   22   23 1   
    49   22   24 1   
    50   22   45 1   
    51   23   46 1   
    52   23   47 1   
    53   24   48 1   
    54   24   49 1   
@<TRIPOS>SUBSTRUCTURE
     1 593         1 TEMP              0 ****  ****    0 ROOT
