@<TRIPOS>MOLECULE
595
   96    98     1     0     0
SMALL
bcc


@<TRIPOS>ATOM
      1 C          -3.3740    3.5770   -0.8340 ca        1 595     -0.022000
      2 N          -4.2840    4.1690   -1.8190 n4        1 595     -0.029000
      3 O          -1.1870    1.7860    3.4530 o         1 595     -0.832000
      4 S          -0.7760    1.5730    2.1760 s6        1 595      2.906000
      5 C1         -2.3760    2.6830   -1.2570 ca        1 595     -0.119500
      6 C2         -1.5430    2.0960   -0.3060 ca        1 595      0.038500
      7 C3         -1.6790    2.3760    1.0670 ca        1 595     -0.892000
      8 C4         -2.6690    3.2950    1.4580 ca        1 595      0.038500
      9 C5         -3.5170    3.8960    0.5280 ca        1 595     -0.119500
     10 N6          1.3970    0.6670    4.1860 n3        1 595     -0.341000
     11 O7         -0.1380    0.4990    1.6520 o         1 595     -0.832000
     12 C8          1.8990    2.0150    4.3700 c3        1 595     -0.091000
     13 C9          3.3390    2.1960    4.8860 c3        1 595     -0.190000
     14 C10         2.3370   -0.3330    3.7060 c3        1 595     -0.090000
     15 C11         2.8990   -0.0570    2.3120 c3        1 595     -0.161000
     16 C12         4.1130   -0.9300    2.0250 c3        1 595     -0.107000
     17 C13         4.3240   -1.0470    0.5280 c3        1 595     -0.213000
     18 C14         5.3600   -0.3770    2.6830 c3        1 595     -0.213000
     19 C15         3.4680    1.7440    6.3300 c3        1 595     -0.156000
     20 C16         4.8860    1.9490    6.8420 c3        1 595     -0.183000
     21 C17         5.0070    1.4500    8.2880 c3        1 595     -0.048000
     22 N18         6.4530    1.2810    8.7350 n4        1 595     -0.093000
     23 C19         7.2530    2.5200    8.9160 c2        1 595      0.243000
     24 C20         8.6500    2.4010    9.5550 c3        1 595     -0.086000
     25 N21         8.7430    3.3030   10.7560 n4        1 595     -0.081000
     26 C22         7.7020    2.9910   11.7940 c2        1 595      0.364000
     27 O23         8.0120    3.5320   12.9700 os        1 595     -0.192000
     28 C24         7.0880    3.3010   14.0770 c3        1 595     -0.055000
     29 O25         6.7130    2.3180   11.5050 o         1 595     -0.324000
     30 C26         1.7220    2.8070    3.0870 c2        1 595      0.382000
     31 O27         0.7230    2.6760    2.3130 os        1 595     -0.529000
     32 O28         6.8140    3.5980    8.5360 o         1 595     -0.160000
     33 C29         9.1780    0.1320    8.6540 ca        1 595     -0.181000
     34 C30        10.4400    1.0070   10.6130 ca        1 595     -0.181000
     35 C31        10.6540    0.1130   11.6700 ca        1 595     -0.140250
     36 C32        11.8850    0.0820   12.3270 ca        1 595     -0.100000
     37 C33        12.9100    0.9440   11.9380 ca        1 595     -0.076500
     38 C34        12.7020    1.8380   10.8830 ca        1 595     -0.100000
     39 C35        11.4770    1.8690   10.2210 ca        1 595     -0.140250
     40 C36         8.4420   -1.0640    8.6080 ca        1 595     -0.140250
     41 C37         8.5720   -1.9270    7.5220 ca        1 595     -0.100000
     42 C38         9.4340   -1.6060    6.4700 ca        1 595     -0.076500
     43 C39        10.1640   -0.4180    6.5080 ca        1 595     -0.100000
     44 C40        10.0410    0.4460    7.5980 ca        1 595     -0.140250
     45 C41         4.2290    2.3290    9.2550 c3        1 595     -0.258000
     46 C42         9.1220    0.9620    9.8980 c3        1 595     -0.009000
     47 HN         -3.8090    4.2790   -2.7280 hn        1 595      0.285000
     48 HNA        -4.6100    5.0940   -1.4990 hn        1 595      0.285000
     49 H1         -2.2370    2.4230   -2.3240 ha        1 595      0.197500
     50 H2         -0.7700    1.3770   -0.6500 ha        1 595      0.200500
     51 H4         -2.8020    3.5410    2.5320 ha        1 595      0.200500
     52 H5         -4.2890    4.6030    0.8850 ha        1 595      0.197500
     53 H8          1.2050    2.5440    5.1090 h1        1 595      0.165000
     54 H9          3.6130    3.2830    4.8160 hc        1 595      0.116500
     55 H9A         4.0550    1.6210    4.2380 hc        1 595      0.116500
     56 H10         3.1910   -0.4750    4.4310 h1        1 595      0.102000
     57 H10A        1.7630   -1.3070    3.6670 h1        1 595      0.102000
     58 H11         2.1000   -0.2660    1.5500 hc        1 595      0.080000
     59 H11A        3.1860    1.0260    2.2070 hc        1 595      0.080000
     60 H12         3.9150   -1.9620    2.4350 hc        1 595      0.108000
     61 H13         5.2180   -1.6820    0.3160 hc        1 595      0.081000
     62 H13A        3.4360   -1.5190    0.0430 hc        1 595      0.081000
     63 H13B        4.4890   -0.0420    0.0730 hc        1 595      0.081000
     64 H14         5.2350   -0.3180    3.7920 hc        1 595      0.081000
     65 H14A        6.2310   -1.0420    2.4620 hc        1 595      0.081000
     66 H14B        5.5920    0.6440    2.2960 hc        1 595      0.081000
     67 H15         2.7510    2.3270    6.9680 hc        1 595      0.104000
     68 H15A        3.1920    0.6590    6.4130 hc        1 595      0.104000
     69 H16         5.1530    3.0390    6.7950 hc        1 595      0.116000
     70 H16A        5.5950    1.3890    6.1740 hc        1 595      0.116000
     71 H17         4.5960    0.3920    8.3390 hx        1 595      0.151000
     72 HN18        6.9530    0.6700    8.0600 hn        1 595      0.284000
     73 H20         9.3700    2.8240    8.7750 hx        1 595      0.209000
     74 HN21        8.6400    4.2910   10.4750 hn        1 595      0.306500
     75 H24         7.0260    2.2060   14.2790 h1        1 595      0.147000
     76 H24A        6.0950    3.7400   13.8220 h1        1 595      0.147000
     77 H24B        7.6060    3.8610   14.9040 h1        1 595      0.147000
     78 H26         2.4660    3.5930    2.8090 h4        1 595      0.194000
     79 H31         9.8630   -0.5910   11.9750 ha        1 595      0.135250
     80 H32        12.0500   -0.6370   13.1490 ha        1 595      0.175500
     81 H33        13.8880    0.9120   12.4500 ha        1 595      0.182000
     82 H34        13.5180    2.5090   10.5640 ha        1 595      0.175500
     83 H35        11.3630    2.5380    9.3560 ha        1 595      0.135250
     84 H36         7.8230   -1.3700    9.4670 ha        1 595      0.135250
     85 H37         8.0230   -2.8840    7.5110 ha        1 595      0.175500
     86 H38         9.5600   -2.3070    5.6260 ha        1 595      0.182000
     87 H39        10.8670   -0.1740    5.6920 ha        1 595      0.175500
     88 H40        10.6710    1.3490    7.6400 ha        1 595      0.135250
     89 H41         3.1350    2.1490    9.0940 hc        1 595      0.127333
     90 H41A        4.4580    2.0850   10.3230 hc        1 595      0.127333
     91 H41B        4.4390    3.4130    9.0770 hc        1 595      0.127333
     92 H42         8.3670    0.5100   10.6110 hc        1 595      0.110000
     93 HN3        -5.1040    3.5540   -1.9460 hn        1 595      0.285000
     94 H61         0.9410    0.3480    5.0220 hn        1 595      0.208000
     95 H182        6.4360    0.8020    9.6520 hn        1 595      0.284000
     96 H212        9.6920    3.1710   11.1800 hn        1 595      0.306500
@<TRIPOS>BOND
     1    1    2 1   
     2    1    5 1   
     3    1    9 1   
     4    2   47 1   
     5    2   48 1   
     6    2   93 1   
     7    3    4 1   
     8    4    7 1   
     9    4   11 1   
    10    4   31 1   
    11    5    6 1   
    12    5   49 1   
    13    6    7 1   
    14    6   50 1   
    15    7    8 1   
    16    8    9 1   
    17    8   51 1   
    18    9   52 1   
    19   10   12 1   
    20   10   14 1   
    21   10   94 1   
    22   12   13 1   
    23   12   30 1   
    24   12   53 1   
    25   13   19 1   
    26   13   54 1   
    27   13   55 1   
    28   14   15 1   
    29   14   56 1   
    30   14   57 1   
    31   15   16 1   
    32   15   58 1   
    33   15   59 1   
    34   16   17 1   
    35   16   18 1   
    36   16   60 1   
    37   17   61 1   
    38   17   62 1   
    39   17   63 1   
    40   18   64 1   
    41   18   65 1   
    42   18   66 1   
    43   19   20 1   
    44   19   67 1   
    45   19   68 1   
    46   20   21 1   
    47   20   69 1   
    48   20   70 1   
    49   21   22 1   
    50   21   45 1   
    51   21   71 1   
    52   22   23 1   
    53   22   72 1   
    54   22   95 1   
    55   23   24 1   
    56   23   32 1   
    57   24   25 1   
    58   24   46 1   
    59   24   73 1   
    60   25   26 1   
    61   25   74 1   
    62   25   96 1   
    63   26   27 1   
    64   26   29 1   
    65   27   28 1   
    66   28   75 1   
    67   28   76 1   
    68   28   77 1   
    69   30   31 1   
    70   30   78 1   
    71   33   40 1   
    72   33   44 1   
    73   33   46 1   
    74   34   35 1   
    75   34   39 1   
    76   34   46 1   
    77   35   36 1   
    78   35   79 1   
    79   36   37 1   
    80   36   80 1   
    81   37   38 1   
    82   37   81 1   
    83   38   39 1   
    84   38   82 1   
    85   39   83 1   
    86   40   41 1   
    87   40   84 1   
    88   41   42 1   
    89   41   85 1   
    90   42   43 1   
    91   42   86 1   
    92   43   44 1   
    93   43   87 1   
    94   44   88 1   
    95   45   89 1   
    96   45   90 1   
    97   45   91 1   
    98   46   92 1   
@<TRIPOS>SUBSTRUCTURE
     1 595         1 TEMP              0 ****  ****    0 ROOT
