@<TRIPOS>MOLECULE
595
   95    97     1     0     0
SMALL
bcc


@<TRIPOS>ATOM
      1 C          -3.8090    3.6120   -0.1850 ca        1 595      0.247000
      2 N          -4.6630    4.2540   -1.0000 nv        1 595     -0.295000
      3 O          -1.2330    1.6330    3.8520 o         1 595     -0.878500
      4 S          -1.0890    1.4160    2.5070 s6        1 595      2.938000
      5 C1         -2.9180    2.5960   -0.6810 ca        1 595     -0.240500
      6 C2         -2.0670    1.9440    0.1630 ca        1 595      0.073500
      7 C3         -2.0060    2.2180    1.5650 ca        1 595     -1.128000
      8 C4         -2.8810    3.2440    2.0380 ca        1 595      0.073500
      9 C5         -3.7440    3.9140    1.2220 ca        1 595     -0.240500
     10 N6          1.4170    0.4650    4.3400 n7        1 595     -0.327000
     11 O7         -0.4790    0.3100    1.9920 o         1 595     -0.878500
     12 C8          1.8270    1.8450    4.4750 c3        1 595     -0.079000
     13 C9          3.2600    2.1230    4.9640 c3        1 595     -0.194000
     14 C10         2.3640   -0.4780    3.7830 c3        1 595     -0.072000
     15 C11         2.7510   -0.1950    2.3320 c3        1 595     -0.165000
     16 C12         3.8780   -1.1110    1.8770 c3        1 595     -0.106000
     17 C13         3.8650   -1.2420    0.3670 c3        1 595     -0.211000
     18 C14         5.2260   -0.5990    2.3430 c3        1 595     -0.211000
     19 C15         3.4510    1.6570    6.3930 c3        1 595     -0.155000
     20 C16         4.8500    1.9860    6.8870 c3        1 595     -0.184000
     21 C17         5.0450    1.4600    8.3130 c3        1 595     -0.048000
     22 N18         6.5160    1.3740    8.7040 ny        1 595     -0.092000
     23 C19         7.2450    2.6570    8.8490 c2        1 595      0.239000
     24 C20         8.6890    2.6210    9.3860 c3        1 595     -0.089000
     25 N21         8.8040    3.5120   10.5940 ny        1 595     -0.079000
     26 C22         7.8580    3.1190   11.6930 c2        1 595      0.362000
     27 O23         8.1930    3.6920   12.8490 os        1 595     -0.196000
     28 C24         7.3510    3.3980   14.0040 c3        1 595     -0.056000
     29 O25         6.9110    2.3660   11.4720 o         1 595     -0.315000
     30 C26         1.5990    2.5950    3.1690 c2        1 595      0.338000
     31 O27         0.5540    2.4750    2.4850 os        1 595     -0.466000
     32 O28         6.7180    3.7130    8.5260 o         1 595     -0.155000
     33 C29         9.3030    0.4090    8.4030 ca        1 595     -0.178000
     34 C30        10.6360    1.3340   10.2920 ca        1 595     -0.178000
     35 C31        10.9770    0.4450   11.3190 ca        1 595     -0.139500
     36 C32        12.2490    0.4880   11.8930 ca        1 595     -0.100750
     37 C33        13.1880    1.4180   11.4490 ca        1 595     -0.077500
     38 C34        12.8530    2.3070   10.4240 ca        1 595     -0.100750
     39 C35        11.5860    2.2650    9.8450 ca        1 595     -0.139500
     40 C36         8.6580   -0.8390    8.3870 ca        1 595     -0.139500
     41 C37         8.7550   -1.6640    7.2690 ca        1 595     -0.100750
     42 C38         9.4930   -1.2540    6.1550 ca        1 595     -0.077500
     43 C39        10.1350   -0.0150    6.1660 ca        1 595     -0.100750
     44 C40        10.0460    0.8110    7.2870 ca        1 595     -0.139500
     45 C41         4.2470    2.2630    9.3270 c3        1 595     -0.257000
     46 C42         9.2780    1.2130    9.6660 c3        1 595     -0.011000
     47 HN         -5.2840    4.9470   -0.6470 hn        1 595      0.262500
     48 HNA        -4.7080    4.0310   -1.9690 hn        1 595      0.262500
     49 H1         -2.9330    2.3400   -1.7540 ha        1 595      0.171500
     50 H2         -1.3990    1.1580   -0.2410 ha        1 595      0.162000
     51 H4         -2.8590    3.4860    3.1190 ha        1 595      0.162000
     52 H5         -4.4080    4.6910    1.6400 ha        1 595      0.171500
     53 H8          1.1060    2.3370    5.2100 h1        1 595      0.155000
     54 H9          3.9980    1.6110    4.2900 hc        1 595      0.107000
     55 H9A         3.4520    3.2270    4.9050 hc        1 595      0.107000
     56 H10         3.3030   -0.5420    4.4100 h1        1 595      0.085000
     57 H10A        1.8610   -1.4890    3.8190 h1        1 595      0.085000
     58 H11         3.0710    0.8760    2.2120 hc        1 595      0.089000
     59 H11A        1.8480   -0.3510    1.6800 hc        1 595      0.089000
     60 H12         3.7090   -2.1340    2.3210 hc        1 595      0.100000
     61 H13         3.9840   -0.2420   -0.1160 hc        1 595      0.077833
     62 H13A        2.9030   -1.6920    0.0230 hc        1 595      0.077833
     63 H13B        4.7030   -1.8990    0.0310 hc        1 595      0.077833
     64 H14         5.2410   -0.4690    3.4520 hc        1 595      0.077833
     65 H14A        6.0280   -1.3230    2.0590 hc        1 595      0.077833
     66 H14B        5.4580    0.3850    1.8680 hc        1 595      0.077833
     67 H15         2.6900    2.1540    7.0530 hc        1 595      0.102500
     68 H15A        3.2800    0.5480    6.4560 hc        1 595      0.102500
     69 H16         5.0060    3.0990    6.8690 hc        1 595      0.114000
     70 H16A        5.5970    1.5210    6.1890 hc        1 595      0.114000
     71 H17         4.7050    0.3760    8.3490 hx        1 595      0.152000
     72 HN18        6.5640    0.8960    9.6200 hn        1 595      0.282500
     73 H20         9.3220    3.1050    8.5670 hx        1 595      0.208000
     74 HN21        8.6150    4.4930   10.3360 hn        1 595      0.304500
     75 H24         6.3140    3.7580   13.8020 h1        1 595      0.145667
     76 H24A        7.8660    4.0000   14.8010 h1        1 595      0.145667
     77 H24B        7.3820    2.3020   14.2100 h1        1 595      0.145667
     78 H26         2.3710    3.3200    2.8250 h4        1 595      0.162000
     79 H31        10.2550   -0.3120   11.6650 ha        1 595      0.135000
     80 H32        12.5140   -0.2270   12.6910 ha        1 595      0.174000
     81 H33        14.1970    1.4450   11.8950 ha        1 595      0.180000
     82 H34        13.6000    3.0330   10.0600 ha        1 595      0.174000
     83 H35        11.3710    2.9340    8.9990 ha        1 595      0.135000
     84 H36         8.1360   -1.2080    9.2850 ha        1 595      0.135000
     85 H37         8.2750   -2.6580    7.2740 ha        1 595      0.174000
     86 H38         9.5900   -1.9200    5.2800 ha        1 595      0.180000
     87 H39        10.7390    0.3020    5.2990 ha        1 595      0.174000
     88 H40        10.6060    1.7600    7.3010 ha        1 595      0.135000
     89 H41         4.5060    1.9860   10.3790 hc        1 595      0.126667
     90 H41A        3.1590    2.0380    9.1730 hc        1 595      0.126667
     91 H41B        4.4010    3.3610    9.1880 hc        1 595      0.126667
     92 H42         8.6050    0.6980   10.4180 hc        1 595      0.110000
     93 H61         1.0170    0.1240    5.1920 hn        1 595      0.201000
     94 H182        7.0180    0.7930    8.0050 hn        1 595      0.282500
     95 H212        9.7840    3.4390   10.9520 hn        1 595      0.304500
@<TRIPOS>BOND
     1    1    2 1   
     2    1    5 1   
     3    1    9 1   
     4    2   47 1   
     5    2   48 1   
     6    3    4 1   
     7    4    7 1   
     8    4   11 1   
     9    4   31 1   
    10    5    6 1   
    11    5   49 1   
    12    6    7 1   
    13    6   50 1   
    14    7    8 1   
    15    8    9 1   
    16    8   51 1   
    17    9   52 1   
    18   10   12 1   
    19   10   14 1   
    20   10   93 1   
    21   12   13 1   
    22   12   30 1   
    23   12   53 1   
    24   13   19 1   
    25   13   54 1   
    26   13   55 1   
    27   14   15 1   
    28   14   56 1   
    29   14   57 1   
    30   15   16 1   
    31   15   58 1   
    32   15   59 1   
    33   16   17 1   
    34   16   18 1   
    35   16   60 1   
    36   17   61 1   
    37   17   62 1   
    38   17   63 1   
    39   18   64 1   
    40   18   65 1   
    41   18   66 1   
    42   19   20 1   
    43   19   67 1   
    44   19   68 1   
    45   20   21 1   
    46   20   69 1   
    47   20   70 1   
    48   21   22 1   
    49   21   45 1   
    50   21   71 1   
    51   22   23 1   
    52   22   72 1   
    53   22   94 1   
    54   23   24 1   
    55   23   32 1   
    56   24   25 1   
    57   24   46 1   
    58   24   73 1   
    59   25   26 1   
    60   25   74 1   
    61   25   95 1   
    62   26   27 1   
    63   26   29 1   
    64   27   28 1   
    65   28   75 1   
    66   28   76 1   
    67   28   77 1   
    68   30   31 1   
    69   30   78 1   
    70   33   40 1   
    71   33   44 1   
    72   33   46 1   
    73   34   35 1   
    74   34   39 1   
    75   34   46 1   
    76   35   36 1   
    77   35   79 1   
    78   36   37 1   
    79   36   80 1   
    80   37   38 1   
    81   37   81 1   
    82   38   39 1   
    83   38   82 1   
    84   39   83 1   
    85   40   41 1   
    86   40   84 1   
    87   41   42 1   
    88   41   85 1   
    89   42   43 1   
    90   42   86 1   
    91   43   44 1   
    92   43   87 1   
    93   44   88 1   
    94   45   89 1   
    95   45   90 1   
    96   45   91 1   
    97   46   92 1   
@<TRIPOS>SUBSTRUCTURE
     1 595         1 TEMP              0 ****  ****    0 ROOT
