@<TRIPOS>MOLECULE
595
   92    83     1     0     0
SMALL
bcc


@<TRIPOS>ATOM
      1 C          -2.7440   -5.2670   -0.7330 c1        1 595      0.166000
      2 N          -2.5860   -6.3110    0.2970 n3        1 595     -0.368000
      3 O          -2.5730   -2.5440   -5.2890 o         1 595     -0.937500
      4 S          -3.2700   -2.1160   -4.0600 ss        1 595      2.855000
      5 C1         -1.6770   -4.9540   -1.5820 c1        1 595     -0.118333
      6 C2         -1.8300   -3.9930   -2.5630 c1        1 595     -0.118333
      7 C3         -3.0460   -3.3340   -2.7090 c1        1 595     -0.911000
      8 C4         -4.1080   -3.6420   -1.8690 c1        1 595      0.033000
      9 C5         -3.9510   -4.6160   -0.8750 c1        1 595     -0.245000
     10 N6         -2.7530   -0.5970   -3.5660 n2        1 595     -0.810000
     11 O7         -4.6470   -2.0810   -4.5160 o         1 595     -0.937500
     12 C8         -1.4230   -0.4270   -3.0290 c3        1 595     -0.029000
     13 C9         -0.6570    0.6200   -3.8590 c3        1 595     -0.170000
     14 C10        -3.6570    0.5330   -3.6260 c3        1 595     -0.027000
     15 C11        -4.5710    0.5210   -2.4050 c3        1 595     -0.180000
     16 C12        -5.8350    1.3600   -2.7000 c3        1 595     -0.104000
     17 C13        -7.0050    0.4550   -2.8110 c3        1 595     -0.210000
     18 C14        -6.0650    2.3380   -1.5780 c3        1 595     -0.210000
     19 C15         0.8790    0.2600   -3.8590 c3        1 595     -0.161000
     20 C16         1.5890    1.0660   -2.8010 c3        1 595     -0.168000
     21 C17         2.2470    0.1320   -1.7960 c3        1 595      0.032000
     22 N18         3.0840    0.9070   -0.8890 n         1 595     -0.355000
     23 C19         2.4910    1.5040    0.3380 c2        1 595      0.257000
     24 C20         3.3850    1.8170    1.5600 c3        1 595      0.011000
     25 N21         3.0530    3.1100    2.0740 n         1 595     -0.290000
     26 C22         1.7500    3.3300    2.7130 c2        1 595      0.388000
     27 O23         1.4760    4.5870    3.3930 os        1 595     -0.283000
     28 C24         0.1420    4.6760    3.9350 c3        1 595     -0.051000
     29 O25         0.9180    2.4220    2.7400 o         1 595     -0.382000
     30 C26        -1.5160    0.0290   -1.6110 c2        1 595      0.177000
     31 O27        -1.8140   -0.7670   -0.7290 o         1 595     -0.290000
     32 O28         1.3140    1.7220    0.3880 o         1 595     -0.359000
     33 C29         4.1750   -0.3970    2.4560 c1        1 595     -0.071000
     34 C30         3.3370    1.4120    4.0410 c1        1 595     -0.071000
     35 C31         2.6110    0.9310    5.1100 c2        1 595     -0.112500
     36 C32         2.8460    1.4130    6.3750 c1        1 595     -0.129500
     37 C33         3.8100    2.3810    6.5790 c1        1 595     -0.118333
     38 C34         4.5380    2.8660    5.5150 c1        1 595     -0.118333
     39 C35         4.3030    2.3830    4.2440 c1        1 595     -0.127500
     40 C36         3.6950   -1.6860    2.6380 c2        1 595     -0.112500
     41 C37         4.5860   -2.7600    2.7070 c1        1 595     -0.129500
     42 C38         5.9550   -2.5370    2.5940 c1        1 595     -0.118333
     43 C39         6.4390   -1.2430    2.4120 c1        1 595     -0.118333
     44 C40         5.5530   -0.1740    2.3430 c1        1 595     -0.127500
     45 C41         1.1930   -0.5780   -1.0080 c3        1 595     -0.245000
     46 C42         3.1540    0.7710    2.6330 c1        1 595     -0.035000
     47 HN         -1.7350   -6.5860    0.5520 hn        1 595      0.220500
     48 HNA        -3.3260   -6.6720    0.7010 hn        1 595      0.220500
     49 H1         -0.7750   -5.4400   -1.4760 ha        1 595      0.138500
     50 H2         -1.0890   -3.7790   -3.1490 ha        1 595      0.138500
     51 H4         -4.9540   -3.1840   -1.9700 ha        1 595      0.158000
     52 H5         -4.7090   -4.8380   -0.2710 ha        1 595      0.138000
     53 H8         -0.9230   -1.3210   -3.0690 h1        1 595      0.144000
     54 H9         -0.9980    0.6140   -4.7910 hc        1 595      0.095000
     55 H9A        -0.7890    1.5230   -3.4630 hc        1 595      0.095000
     56 H10        -3.1300    1.3780   -3.6370 h1        1 595      0.100500
     57 H10A       -4.1910    0.4770   -4.4260 h1        1 595      0.100500
     58 H11        -4.8380   -0.4230   -2.1980 hc        1 595      0.087000
     59 H11A       -4.0940    0.9040   -1.6350 hc        1 595      0.087000
     60 H12        -5.7150    1.8510   -3.5460 hc        1 595      0.086000
     61 H13        -7.8350    0.9990   -2.9710 hc        1 595      0.075000
     62 H13A       -7.1030   -0.0550   -1.9790 hc        1 595      0.075000
     63 H13B       -6.8700   -0.1600   -3.5540 hc        1 595      0.075000
     64 H14        -5.4990    3.0900   -1.6930 hc        1 595      0.075000
     65 H14A       -5.8640    1.9050   -0.7220 hc        1 595      0.075000
     66 H14B       -6.9820    2.6250   -1.5840 hc        1 595      0.075000
     67 H15         1.2670    0.4690   -4.7480 hc        1 595      0.083500
     68 H15A        0.9880   -0.6860   -3.6730 hc        1 595      0.083500
     69 H16         2.2860    1.6330   -3.2310 hc        1 595      0.102000
     70 H16A        0.9370    1.6420   -2.3330 hc        1 595      0.102000
     71 H17         2.7980   -0.5270   -2.2740 h1        1 595      0.090000
     72 HN18        3.9550    1.0230   -1.0690 hn        1 595      0.226000
     73 H20         4.3130    1.8030    1.2910 h1        1 595      0.116000
     74 HN21        3.6570    3.8130    1.9930 hn        1 595      0.225000
     75 H24         0.0290    5.5450    4.4080 h1        1 595      0.090667
     76 H24A       -0.0030    3.9350    4.5710 h1        1 595      0.090667
     77 H24B       -0.5080    4.6160    3.2100 h1        1 595      0.090667
     78 H26        -1.3440    0.9770   -1.3840 h4        1 595      0.100000
     79 H31         1.9070    0.2250    4.9640 ha        1 595      0.141500
     80 H32         2.3450    1.0780    7.1110 ha        1 595      0.134500
     81 H33         3.9720    2.7190    7.4690 ha        1 595      0.138500
     82 H34         5.2230    3.5540    5.6620 ha        1 595      0.138500
     83 H35         4.8170    2.7230    3.4910 ha        1 595      0.128500
     84 H36         2.7050   -1.8490    2.7190 ha        1 595      0.141500
     85 H37         4.2390   -3.6930    2.8370 ha        1 595      0.134500
     86 H38         6.5900   -3.3040    2.6430 ha        1 595      0.138500
     87 H39         7.4170   -1.0840    2.3310 ha        1 595      0.138500
     88 H40         5.9000    0.7520    2.2130 ha        1 595      0.128500
     89 H41         1.4190   -0.5390   -0.0470 hc        1 595      0.087000
     90 H41A        1.1470   -1.5210   -1.2960 hc        1 595      0.087000
     91 H41B        0.3250   -0.1470   -1.1580 hc        1 595      0.087000
     92 H42         2.2400    0.4180    2.5520 ha        1 595      0.148000
@<TRIPOS>BOND
     1    1    2 1   
     2    1    9 1   
     3    2   47 1   
     4    2   48 1   
     5    3    4 1   
     6    4   11 1   
     7    5    6 1   
     8    5   49 1   
     9    6   50 1   
    10    7    8 1   
    11    8   51 1   
    12    9   52 1   
    13   10   12 1   
    14   10   14 1   
    15   12   13 1   
    16   12   30 1   
    17   12   53 1   
    18   13   19 1   
    19   13   54 1   
    20   13   55 1   
    21   14   15 1   
    22   14   56 1   
    23   14   57 1   
    24   15   16 1   
    25   15   58 1   
    26   15   59 1   
    27   16   17 1   
    28   16   18 1   
    29   16   60 1   
    30   17   61 1   
    31   17   62 1   
    32   17   63 1   
    33   18   64 1   
    34   18   65 1   
    35   18   66 1   
    36   19   20 1   
    37   19   67 1   
    38   19   68 1   
    39   20   21 1   
    40   20   69 1   
    41   20   70 1   
    42   21   22 1   
    43   21   45 1   
    44   21   71 1   
    45   22   23 1   
    46   22   72 1   
    47   23   24 1   
    48   23   32 1   
    49   24   25 1   
    50   24   46 1   
    51   24   73 1   
    52   25   26 1   
    53   25   74 1   
    54   26   27 1   
    55   26   29 1   
    56   27   28 1   
    57   28   75 1   
    58   28   76 1   
    59   28   77 1   
    60   30   31 1   
    61   30   78 1   
    62   33   40 1   
    63   33   44 1   
    64   34   35 1   
    65   34   39 1   
    66   35   36 1   
    67   35   79 1   
    68   36   80 1   
    69   37   38 1   
    70   37   81 1   
    71   38   82 1   
    72   39   83 1   
    73   40   41 1   
    74   40   84 1   
    75   41   85 1   
    76   42   43 1   
    77   42   86 1   
    78   43   87 1   
    79   44   88 1   
    80   45   89 1   
    81   45   90 1   
    82   45   91 1   
    83   46   92 1   
@<TRIPOS>SUBSTRUCTURE
     1 595         1 TEMP              0 ****  ****    0 ROOT
