@<TRIPOS>MOLECULE
595
   92    94     1     0     0
SMALL
bcc


@<TRIPOS>ATOM
      1 C           5.2410    0.1820   -3.3360 ca        1 595      0.250600
      2 N           6.1840   -0.0180   -4.3150 nh        1 595     -0.857200
      3 O           2.2500    2.0660    0.3970 o         1 595     -0.675800
      4 S           2.1490    0.7520   -0.1170 sy        1 595      1.526200
      5 C1          3.8640   -0.0710   -3.5860 ca        1 595     -0.242000
      6 C2          2.9340    0.0840   -2.5760 ca        1 595      0.040000
      7 C3          3.3020    0.5000   -1.2850 ca        1 595     -0.472500
      8 C4          4.6640    0.7440   -1.0420 ca        1 595      0.040000
      9 C5          5.6190    0.5980   -2.0310 ca        1 595     -0.242000
     10 N6          2.5200   -0.3190    1.0710 n3        1 595     -0.789500
     11 O7          0.8720    0.4410   -0.6620 o         1 595     -0.675800
     12 C8          3.1410    0.1230    2.2960 c3        1 595      0.117500
     13 C9          2.3040   -0.0610    3.5730 c3        1 595     -0.086400
     14 C10         2.1540   -1.7070    0.9450 c3        1 595      0.207800
     15 C11         3.2720   -2.6370    0.4670 c3        1 595     -0.100400
     16 C12         2.7750   -4.0720    0.3610 c3        1 595     -0.067700
     17 C13         3.6960   -4.8710   -0.5400 c3        1 595     -0.091100
     18 C14         2.6810   -4.7290    1.7220 c3        1 595     -0.091100
     19 C15         1.0030    0.7180    3.5450 c3        1 595     -0.077400
     20 C16        -0.1940   -0.1870    3.7470 c3        1 595     -0.097400
     21 C17        -1.5230    0.5500    3.5000 c3        1 595      0.121700
     22 N18        -1.7680    0.8190    2.0980 n         1 595     -0.563900
     23 C19        -1.9610   -0.1630    1.1530 c         1 595      0.633100
     24 C20        -2.1960    0.3050   -0.3130 c3        1 595      0.047700
     25 N21        -1.7960   -0.6980   -1.2770 n         1 595     -0.475900
     26 C22        -2.4640   -1.9180   -1.3330 c         1 595      0.732100
     27 O23        -1.6730   -2.9260   -1.8630 os        1 595     -0.451900
     28 C24        -2.3390   -4.1680   -2.0850 c3        1 595      0.139700
     29 O25        -3.6470   -2.1910   -1.0740 o         1 595     -0.582000
     30 C26         4.5020   -0.5390    2.5290 c         1 595      0.558900
     31 O27         5.5240   -0.1230    1.9870 o         1 595     -0.526100
     32 O28        -1.8820   -1.3760    1.4360 o         1 595     -0.619100
     33 C29        -3.9980    1.9120    0.4180 ca        1 595     -0.070800
     34 C30        -3.9720    1.1410   -1.9110 ca        1 595     -0.070800
     35 C31        -5.1950    0.7370   -2.4640 ca        1 595     -0.120250
     36 C32        -5.5290    1.0850   -3.7710 ca        1 595     -0.131750
     37 C33        -4.6440    1.8360   -4.5440 ca        1 595     -0.131000
     38 C34        -3.4210    2.2330   -4.0050 ca        1 595     -0.131750
     39 C35        -3.0860    1.8870   -2.6960 ca        1 595     -0.120250
     40 C36        -5.0540    1.7790    1.3300 ca        1 595     -0.120250
     41 C37        -5.4080    2.8420    2.1590 ca        1 595     -0.131750
     42 C38        -4.7130    4.0490    2.0890 ca        1 595     -0.131000
     43 C39        -3.6620    4.1890    1.1830 ca        1 595     -0.131750
     44 C40        -3.3080    3.1290    0.3500 ca        1 595     -0.120250
     45 C41        -2.6490   -0.2350    4.1780 c3        1 595     -0.118100
     46 C42        -3.6640    0.7660   -0.4900 c3        1 595      0.014900
     47 HN          7.1010    0.3250   -4.1680 hn        1 595      0.426300
     48 HNA         5.8810   -0.1370   -5.2500 hn        1 595      0.426300
     49 H1          3.5340   -0.3950   -4.5840 ha        1 595      0.142000
     50 H2          1.8670   -0.1170   -2.7870 ha        1 595      0.156500
     51 H4          4.9850    1.0550   -0.0290 ha        1 595      0.156500
     52 H5          6.6760    0.7990   -1.7980 ha        1 595      0.142000
     53 H8          3.3350    1.2410    2.1900 h1        1 595      0.101700
     54 H9          2.1080   -1.1510    3.7510 hc        1 595      0.048200
     55 H9A         2.9370    0.2990    4.4280 hc        1 595      0.048200
     56 H10         1.7680   -2.0850    1.9360 h1        1 595      0.066200
     57 H10A        1.2920   -1.7740    0.2150 h1        1 595      0.066200
     58 H11         3.6400   -2.2960   -0.5370 hc        1 595      0.047200
     59 H11A        4.1430   -2.5910    1.1710 hc        1 595      0.047200
     60 H12         1.7470   -4.0630   -0.1020 hc        1 595      0.057700
     61 H13         4.7370   -4.8680   -0.1360 hc        1 595      0.034700
     62 H13A        3.3460   -5.9280   -0.6090 hc        1 595      0.034700
     63 H13B        3.7140   -4.4340   -1.5670 hc        1 595      0.034700
     64 H14         2.3170   -5.7800    1.6160 hc        1 595      0.034700
     65 H14A        3.6800   -4.7520    2.2190 hc        1 595      0.034700
     66 H14B        1.9690   -4.1760    2.3800 hc        1 595      0.034700
     67 H15         1.0180    1.4940    4.3560 hc        1 595      0.048200
     68 H15A        0.9010    1.2780    2.5770 hc        1 595      0.048200
     69 H16        -0.1320   -1.0780    3.0670 hc        1 595      0.058200
     70 H16A       -0.1960   -0.5680    4.8020 hc        1 595      0.058200
     71 H17        -1.4540    1.5630    4.0040 h1        1 595      0.045700
     72 HN18       -1.9520    1.7630    1.8490 hn        1 595      0.321500
     73 H20        -1.5010    1.1820   -0.5080 h1        1 595      0.098700
     74 HN21       -0.7990   -0.7620   -1.3830 hn        1 595      0.338500
     75 H24        -1.5350   -4.8220   -2.5040 h1        1 595      0.047700
     76 H24A       -2.7330   -4.5680   -1.1200 h1        1 595      0.047700
     77 H24B       -3.1750   -4.0300   -2.8120 h1        1 595      0.047700
     78 H26         4.5100   -1.3990    3.2330 h4        1 595      0.007200
     79 H31        -5.8910    0.1300   -1.8640 ha        1 595      0.137000
     80 H32        -6.4920    0.7620   -4.1930 ha        1 595      0.130750
     81 H33        -4.9080    2.1110   -5.5750 ha        1 595      0.129500
     82 H34        -2.7160    2.8180   -4.6120 ha        1 595      0.130750
     83 H35        -2.1100    2.1960   -2.2910 ha        1 595      0.137000
     84 H36        -5.6090    0.8300    1.3910 ha        1 595      0.137000
     85 H37        -6.2410    2.7280    2.8690 ha        1 595      0.130750
     86 H38        -4.9940    4.8880    2.7410 ha        1 595      0.129500
     87 H39        -3.1140    5.1410    1.1180 ha        1 595      0.130750
     88 H40        -2.4910    3.2550   -0.3780 ha        1 595      0.137000
     89 H41        -2.4350   -0.3170    5.2700 hc        1 595      0.047367
     90 H41A       -3.6290    0.2830    4.0460 hc        1 595      0.047367
     91 H41B       -2.7240   -1.2610    3.7410 hc        1 595      0.047367
     92 H42        -4.3140   -0.1210   -0.2150 hc        1 595      0.103700
@<TRIPOS>BOND
     1    1    2 1   
     2    1    5 ar  
     3    1    9 ar  
     4    2   47 1   
     5    2   48 1   
     6    3    4 2   
     7    4    7 1   
     8    4   10 1   
     9    4   11 2   
    10    5    6 ar  
    11    5   49 1   
    12    6    7 ar  
    13    6   50 1   
    14    7    8 ar  
    15    8    9 ar  
    16    8   51 1   
    17    9   52 1   
    18   10   12 1   
    19   10   14 1   
    20   12   13 1   
    21   12   30 1   
    22   12   53 1   
    23   13   19 1   
    24   13   54 1   
    25   13   55 1   
    26   14   15 1   
    27   14   56 1   
    28   14   57 1   
    29   15   16 1   
    30   15   58 1   
    31   15   59 1   
    32   16   17 1   
    33   16   18 1   
    34   16   60 1   
    35   17   61 1   
    36   17   62 1   
    37   17   63 1   
    38   18   64 1   
    39   18   65 1   
    40   18   66 1   
    41   19   20 1   
    42   19   67 1   
    43   19   68 1   
    44   20   21 1   
    45   20   69 1   
    46   20   70 1   
    47   21   22 1   
    48   21   45 1   
    49   21   71 1   
    50   22   23 1   
    51   22   72 1   
    52   23   24 1   
    53   23   32 2   
    54   24   25 1   
    55   24   46 1   
    56   24   73 1   
    57   25   26 1   
    58   25   74 1   
    59   26   27 1   
    60   26   29 2   
    61   27   28 1   
    62   28   75 1   
    63   28   76 1   
    64   28   77 1   
    65   30   31 2   
    66   30   78 1   
    67   33   40 ar  
    68   33   44 ar  
    69   33   46 1   
    70   34   35 ar  
    71   34   39 ar  
    72   34   46 1   
    73   35   36 ar  
    74   35   79 1   
    75   36   37 ar  
    76   36   80 1   
    77   37   38 ar  
    78   37   81 1   
    79   38   39 ar  
    80   38   82 1   
    81   39   83 1   
    82   40   41 ar  
    83   40   84 1   
    84   41   42 ar  
    85   41   85 1   
    86   42   43 ar  
    87   42   86 1   
    88   43   44 ar  
    89   43   87 1   
    90   44   88 1   
    91   45   89 1   
    92   45   90 1   
    93   45   91 1   
    94   46   92 1   
@<TRIPOS>SUBSTRUCTURE
     1 595         1 TEMP              0 ****  ****    0 ROOT
