@<TRIPOS>MOLECULE
595
   95    97     1     0     0
SMALL
bcc


@<TRIPOS>ATOM
      1 C          -3.8150    3.6640   -0.1520 ca        1 595      0.247000
      2 N          -4.6740    4.3170   -0.9530 nh        1 595     -0.295000
      3 O          -1.2270    1.6100    3.8390 o         1 595     -0.878500
      4 S          -1.0790    1.4280    2.4900 s6        1 595      2.938000
      5 C1         -2.9140    2.6680   -0.6720 ca        1 595     -0.240500
      6 C2         -2.0580    2.0040    0.1570 ca        1 595      0.073500
      7 C3         -2.0020    2.2440    1.5660 ca        1 595     -1.128000
      8 C4         -2.8870    3.2490    2.0630 ca        1 595      0.073500
      9 C5         -3.7560    3.9320    1.2620 ca        1 595     -0.240500
     10 N6          1.4350    0.4560    4.3020 n3        1 595     -0.327000
     11 O7         -0.4570    0.3410    1.9480 o         1 595     -0.878500
     12 C8          1.8290    1.8360    4.4730 c3        1 595     -0.079000
     13 C9          3.2570    2.1180    4.9730 c3        1 595     -0.194000
     14 C10         2.3930   -0.4620    3.7230 c3        1 595     -0.072000
     15 C11         2.7790   -0.1380    2.2800 c3        1 595     -0.165000
     16 C12         3.9140   -1.0310    1.8030 c3        1 595     -0.106000
     17 C13         3.9030   -1.1240    0.2900 c3        1 595     -0.211000
     18 C14         5.2570   -0.5190    2.2820 c3        1 595     -0.211000
     19 C15         3.4500    1.6150    6.3900 c3        1 595     -0.155000
     20 C16         4.8410    1.9550    6.9000 c3        1 595     -0.184000
     21 C17         5.0440    1.3830    8.3070 c3        1 595     -0.048000
     22 N18         6.5140    1.3220    8.7030 n4        1 595     -0.092000
     23 C19         7.2070    2.6170    8.9000 c2        1 595      0.239000
     24 C20         8.6500    2.6000    9.4440 c3        1 595     -0.089000
     25 N21         8.7340    3.4460   10.6850 n4        1 595     -0.079000
     26 C22         7.7940    2.9860   11.7630 c2        1 595      0.362000
     27 O23         8.1090    3.5230   12.9420 os        1 595     -0.196000
     28 C24         7.2690    3.1610   14.0810 c3        1 595     -0.056000
     29 O25         6.8700    2.2160   11.5080 o         1 595     -0.315000
     30 C26         1.5960    2.6160    3.1860 c2        1 595      0.338000
     31 O27         0.5540    2.5030    2.4960 os        1 595     -0.466000
     32 O28         6.6540    3.6710    8.6140 o         1 595     -0.155000
     33 C29         9.3290    0.4460    8.3800 ca        1 595     -0.178000
     34 C30        10.6270    1.3330   10.3100 ca        1 595     -0.178000
     35 C31        10.9880    0.4140   11.3040 ca        1 595     -0.139500
     36 C32        12.2550    0.4690   11.8860 ca        1 595     -0.100750
     37 C33        13.1700    1.4420   11.4830 ca        1 595     -0.077500
     38 C34        12.8160    2.3610   10.4910 ca        1 595     -0.100750
     39 C35        11.5530    2.3060    9.9050 ca        1 595     -0.139500
     40 C36         8.7180   -0.8180    8.3120 ca        1 595     -0.139500
     41 C37         8.8430   -1.5960    7.1630 ca        1 595     -0.100750
     42 C38         9.5750   -1.1230    6.0700 ca        1 595     -0.077500
     43 C39        10.1820    0.1320    6.1330 ca        1 595     -0.100750
     44 C40        10.0650    0.9110    7.2840 ca        1 595     -0.139500
     45 C41         4.2190    2.1270    9.3440 c3        1 595     -0.257000
     46 C42         9.2760    1.1990    9.6720 c3        1 595     -0.011000
     47 HN         -4.7160    4.1180   -1.9270 hn        1 595      0.262500
     48 HNA        -5.3020    4.9950   -0.5840 hn        1 595      0.262500
     49 H1         -2.9240    2.4390   -1.7510 ha        1 595      0.171500
     50 H2         -1.3820    1.2350   -0.2650 ha        1 595      0.162000
     51 H4         -2.8690    3.4650    3.1490 ha        1 595      0.162000
     52 H5         -4.4270    4.6910    1.6970 ha        1 595      0.171500
     53 H8          1.1000    2.3010    5.2180 h1        1 595      0.155000
     54 H9          4.0030    1.6340    4.2880 hc        1 595      0.107000
     55 H9A         3.4360    3.2250    4.9450 hc        1 595      0.107000
     56 H10         1.9030   -1.4800    3.7330 h1        1 595      0.085000
     57 H10A        3.3320   -0.5310    4.3490 h1        1 595      0.085000
     58 H11         3.0890    0.9390    2.1880 hc        1 595      0.089000
     59 H11A        1.8770   -0.2850    1.6230 hc        1 595      0.089000
     60 H12         3.7550   -2.0670    2.2200 hc        1 595      0.100000
     61 H13         4.7480   -1.7640   -0.0620 hc        1 595      0.078000
     62 H13A        2.9460   -1.5750   -0.0670 hc        1 595      0.078000
     63 H13B        4.0120   -0.1110   -0.1680 hc        1 595      0.078000
     64 H14         5.2700   -0.4160    3.3940 hc        1 595      0.078000
     65 H14A        6.0660   -1.2280    1.9810 hc        1 595      0.078000
     66 H14B        5.4810    0.4780    1.8320 hc        1 595      0.078000
     67 H15         2.6790    2.0810    7.0600 hc        1 595      0.103000
     68 H15A        3.2980    0.5030    6.4210 hc        1 595      0.103000
     69 H16         5.5990    1.5280    6.1890 hc        1 595      0.113500
     70 H16A        4.9750    3.0700    6.9200 hc        1 595      0.113500
     71 H17         4.7320    0.2890    8.3020 hx        1 595      0.152000
     72 HN18        6.5720    0.8110    9.6000 hn        1 595      0.282500
     73 H20         9.2730    3.1320    8.6470 hx        1 595      0.208000
     74 HN21        8.5200    4.4310   10.4640 hn        1 595      0.304500
     75 H24         7.3300    2.0600   14.2450 h1        1 595      0.145667
     76 H24A        6.2250    3.5000   13.8870 h1        1 595      0.145667
     77 H24B        7.7640    3.7450   14.9030 h1        1 595      0.145667
     78 H26         2.3610    3.3570    2.8620 h4        1 595      0.162000
     79 H31        10.2850   -0.3740   11.6170 ha        1 595      0.135000
     80 H32        12.5360   -0.2680   12.6580 ha        1 595      0.174000
     81 H33        14.1770    1.4790   11.9360 ha        1 595      0.180000
     82 H34        13.5450    3.1190   10.1600 ha        1 595      0.174000
     83 H35        11.3240    3.0010    9.0840 ha        1 595      0.135000
     84 H36         8.2030   -1.2350    9.1910 ha        1 595      0.135000
     85 H37         8.3910   -2.6020    7.1280 ha        1 595      0.174000
     86 H38         9.6930   -1.7520    5.1700 ha        1 595      0.180000
     87 H39        10.7810    0.4980    5.2810 ha        1 595      0.174000
     88 H40        10.5990    1.8730    7.3370 ha        1 595      0.135000
     89 H41         3.1390    1.8780    9.1780 hc        1 595      0.126667
     90 H41A        4.4830    1.8210   10.3880 hc        1 595      0.126667
     91 H41B        4.3420    3.2340    9.2440 hc        1 595      0.126667
     92 H42         8.6140    0.6370   10.4000 hc        1 595      0.110000
     93 H61         1.0380    0.0890    5.1450 hn        1 595      0.201000
     94 H182        7.0360    0.7820    7.9850 hn        1 595      0.282500
     95 H212        9.7150    3.3860   11.0460 hn        1 595      0.304500
@<TRIPOS>BOND
     1    1    2 1   
     2    1    5 1   
     3    1    9 1   
     4    2   47 1   
     5    2   48 1   
     6    3    4 1   
     7    4    7 1   
     8    4   11 1   
     9    4   31 1   
    10    5    6 1   
    11    5   49 1   
    12    6    7 1   
    13    6   50 1   
    14    7    8 1   
    15    8    9 1   
    16    8   51 1   
    17    9   52 1   
    18   10   12 1   
    19   10   14 1   
    20   10   93 1   
    21   12   13 1   
    22   12   30 1   
    23   12   53 1   
    24   13   19 1   
    25   13   54 1   
    26   13   55 1   
    27   14   15 1   
    28   14   56 1   
    29   14   57 1   
    30   15   16 1   
    31   15   58 1   
    32   15   59 1   
    33   16   17 1   
    34   16   18 1   
    35   16   60 1   
    36   17   61 1   
    37   17   62 1   
    38   17   63 1   
    39   18   64 1   
    40   18   65 1   
    41   18   66 1   
    42   19   20 1   
    43   19   67 1   
    44   19   68 1   
    45   20   21 1   
    46   20   69 1   
    47   20   70 1   
    48   21   22 1   
    49   21   45 1   
    50   21   71 1   
    51   22   23 1   
    52   22   72 1   
    53   22   94 1   
    54   23   24 1   
    55   23   32 1   
    56   24   25 1   
    57   24   46 1   
    58   24   73 1   
    59   25   26 1   
    60   25   74 1   
    61   25   95 1   
    62   26   27 1   
    63   26   29 1   
    64   27   28 1   
    65   28   75 1   
    66   28   76 1   
    67   28   77 1   
    68   30   31 1   
    69   30   78 1   
    70   33   40 1   
    71   33   44 1   
    72   33   46 1   
    73   34   35 1   
    74   34   39 1   
    75   34   46 1   
    76   35   36 1   
    77   35   79 1   
    78   36   37 1   
    79   36   80 1   
    80   37   38 1   
    81   37   81 1   
    82   38   39 1   
    83   38   82 1   
    84   39   83 1   
    85   40   41 1   
    86   40   84 1   
    87   41   42 1   
    88   41   85 1   
    89   42   43 1   
    90   42   86 1   
    91   43   44 1   
    92   43   87 1   
    93   44   88 1   
    94   45   89 1   
    95   45   90 1   
    96   45   91 1   
    97   46   92 1   
@<TRIPOS>SUBSTRUCTURE
     1 595         1 TEMP              0 ****  ****    0 ROOT
