@<TRIPOS>MOLECULE
596
   51    55     1     0     0
SMALL
bcc


@<TRIPOS>ATOM
      1 C1         -0.1700   -0.6880    1.4860 c3        1 596      0.162300
      2 C2          1.3580   -0.8550    1.5910 c3        1 596      0.168300
      3 N3          2.0570    0.4210    1.6740 n3        1 596     -0.727600
      4 C4          1.6730    1.3250    0.5990 c3        1 596      0.168300
      5 C5          0.1440    1.4940    0.4860 c3        1 596      0.162300
      6 N6         -0.5660    0.2310    0.4360 n3        1 596     -0.820200
      7 C7          3.5040    0.2610    1.7660 c3        1 596      0.233100
      8 C8          3.9580   -0.1540    3.1310 ca        1 596     -0.123300
      9 C9          4.1110   -1.4820    3.4980 ca        1 596      0.163100
     10 C10         4.5670   -1.8920    4.7820 ca        1 596     -0.279600
     11 C11         4.8670   -0.9410    5.7400 ca        1 596      0.015000
     12 C12         4.7230    0.4100    5.4130 ca        1 596     -0.259000
     13 C13         4.2800    0.7960    4.1370 ca        1 596      0.200100
     14 O14         4.1480    2.1090    3.7470 os        1 596     -0.313900
     15 C15         4.3940    3.1000    4.7400 c3        1 596      0.110700
     16 O16         3.8490   -2.5680    2.6560 os        1 596     -0.202200
     17 C17         4.1480   -3.7360    3.3990 cc        1 596     -0.042100
     18 C18         4.6110   -3.3630    4.7780 c         1 596      0.590900
     19 O19         4.9430   -4.1430    5.6670 o         1 596     -0.511100
     20 C20         4.0160   -4.9730    2.8950 cf        1 596     -0.118600
     21 C21         3.5720   -5.3510    1.5810 cd        1 596      0.366200
     22 N22         3.1790   -4.5160    0.5770 nc        1 596     -0.465100
     23 N23         2.8470   -5.2550   -0.4790 na        1 596     -0.011100
     24 C24         2.9930   -6.6300   -0.2330 ca        1 596     -0.056200
     25 C25         3.4760   -6.7390    1.1230 ca        1 596     -0.193900
     26 C26         3.7290   -7.9960    1.6680 ca        1 596     -0.066000
     27 C27         3.5030   -9.1150    0.8790 ca        1 596     -0.154000
     28 C28         3.0310   -9.0000   -0.4430 ca        1 596     -0.101000
     29 C29         2.7690   -7.7680   -1.0220 ca        1 596     -0.137000
     30 H1         -0.5640   -0.3760    2.4970 h1        1 596      0.032450
     31 H1A        -0.6120   -1.6940    1.2400 h1        1 596      0.032450
     32 H2          1.5890   -1.4330    2.5290 h1        1 596      0.040700
     33 H2A         1.7170   -1.4710    0.7150 h1        1 596      0.040700
     34 H4          2.0730    0.9840   -0.4000 h1        1 596      0.040700
     35 H4A         2.1130    2.3370    0.8230 h1        1 596      0.040700
     36 H5         -0.2030    2.1440    1.3420 h1        1 596      0.032450
     37 H5A        -0.0730    2.0420   -0.4730 h1        1 596      0.032450
     38 HN6        -1.5540    0.3940    0.4810 hn        1 596      0.359800
     39 H7          3.9880    1.2510    1.5230 h1        1 596      0.052200
     40 H7A         3.8860   -0.5050    1.0250 h1        1 596      0.052200
     41 H11         5.2150   -1.2410    6.7410 ha        1 596      0.152000
     42 H12         4.9600    1.1680    6.1730 ha        1 596      0.144000
     43 H15         3.7000    2.9740    5.6060 h1        1 596      0.049033
     44 H15A        4.1840    4.0590    4.2020 h1        1 596      0.049033
     45 H15B        5.4590    3.0620    5.0770 h1        1 596      0.049033
     46 H20         4.2770   -5.8200    3.5590 ha        1 596      0.163000
     47 HN23        2.5060   -4.8260   -1.3060 hn        1 596      0.329700
     48 H26         4.0990   -8.0930    2.6990 ha        1 596      0.141000
     49 H27         3.6960  -10.1180    1.2880 ha        1 596      0.136000
     50 H28         2.8670   -9.9170   -1.0300 ha        1 596      0.135000
     51 H29         2.4010   -7.6850   -2.0520 ha        1 596      0.140000
@<TRIPOS>BOND
     1    1    2 1   
     2    1    6 1   
     3    1   30 1   
     4    1   31 1   
     5    2    3 1   
     6    2   32 1   
     7    2   33 1   
     8    3    4 1   
     9    3    7 1   
    10    4    5 1   
    11    4   34 1   
    12    4   35 1   
    13    5    6 1   
    14    5   36 1   
    15    5   37 1   
    16    6   38 1   
    17    7    8 1   
    18    7   39 1   
    19    7   40 1   
    20    8    9 ar  
    21    8   13 ar  
    22    9   10 ar  
    23    9   16 1   
    24   10   11 ar  
    25   10   18 1   
    26   11   12 ar  
    27   11   41 1   
    28   12   13 ar  
    29   12   42 1   
    30   13   14 1   
    31   14   15 1   
    32   15   43 1   
    33   15   44 1   
    34   15   45 1   
    35   16   17 1   
    36   17   18 1   
    37   17   20 2   
    38   18   19 2   
    39   20   21 1   
    40   20   46 1   
    41   21   22 2   
    42   21   25 1   
    43   22   23 1   
    44   23   24 1   
    45   23   47 1   
    46   24   25 ar  
    47   24   29 ar  
    48   25   26 ar  
    49   26   27 ar  
    50   26   48 1   
    51   27   28 ar  
    52   27   49 1   
    53   28   29 ar  
    54   28   50 1   
    55   29   51 1   
@<TRIPOS>SUBSTRUCTURE
     1 596         1 TEMP              0 ****  ****    0 ROOT
