@<TRIPOS>MOLECULE
596
   51    55     1     0     0
SMALL
bcc


@<TRIPOS>ATOM
      1 C1          2.0340   -2.8930   -1.8340 c3        1 596      0.149300
      2 C2          1.7790   -1.7980   -0.7770 c3        1 596      0.130800
      3 N3          2.9480   -1.5310    0.0480 n3        1 596     -0.722600
      4 C4          3.5430   -2.7410    0.5980 c3        1 596      0.130800
      5 C5          3.7710   -3.8290   -0.4740 c3        1 596      0.149300
      6 N6          2.6240   -4.1120   -1.3140 n3        1 596     -0.796200
      7 C7          2.6870   -0.5380    1.0850 c3        1 596      0.232100
      8 C8          2.5190    0.8470    0.5420 ca        1 596     -0.125300
      9 C9          1.2820    1.3690    0.1960 ca        1 596      0.163100
     10 C10         1.1010    2.6910   -0.2980 ca        1 596     -0.280600
     11 C11         2.1970    3.5180   -0.4650 ca        1 596      0.016000
     12 C12         3.4630    3.0310   -0.1300 ca        1 596     -0.259000
     13 C13         3.6220    1.7260    0.3650 ca        1 596      0.202100
     14 O14         4.8370    1.2010    0.7420 os        1 596     -0.312900
     15 C15         5.9850    2.0100    0.5040 c3        1 596      0.110700
     16 O16         0.0750    0.6700    0.2980 os        1 596     -0.203200
     17 C17        -0.9420    1.5560   -0.1320 cc        1 596     -0.041100
     18 C18        -0.3400    2.8720   -0.5340 c         1 596      0.590900
     19 O19        -0.9520    3.8500   -0.9560 o         1 596     -0.510100
     20 C20        -2.2410    1.2190   -0.1560 cf        1 596     -0.120600
     21 C21        -2.8420   -0.0290    0.2270 cd        1 596      0.369200
     22 N22        -2.2040   -1.1380    0.6960 nc        1 596     -0.469100
     23 N23        -3.1150   -2.0810    0.9280 na        1 596     -0.013100
     24 C24        -4.4180   -1.6440    0.6380 ca        1 596     -0.056200
     25 C25        -4.2830   -0.2870    0.1640 ca        1 596     -0.194900
     26 C26        -5.4160    0.4280   -0.2170 ca        1 596     -0.066000
     27 C27        -6.6520   -0.1960   -0.1260 ca        1 596     -0.154000
     28 C28        -6.7750   -1.5200    0.3380 ca        1 596     -0.100000
     29 C29        -5.6720   -2.2650    0.7260 ca        1 596     -0.138000
     30 H1          1.0540   -3.1410   -2.3260 h1        1 596      0.057200
     31 H1A         2.7310   -2.4890   -2.6200 h1        1 596      0.057200
     32 H2          1.5120   -0.8410   -1.3060 h1        1 596      0.037450
     33 H2A         0.8850   -2.0930   -0.1520 h1        1 596      0.037450
     34 H4          4.5420   -2.4640    1.0350 h1        1 596      0.037450
     35 H4A         2.9140   -3.1770    1.4290 h1        1 596      0.037450
     36 H5          4.6110   -3.5040   -1.1490 h1        1 596      0.057200
     37 H5A         4.0850   -4.7740    0.0480 h1        1 596      0.057200
     38 HN6         1.9370   -4.6210   -0.7870 hn        1 596      0.343800
     39 H7          1.7590   -0.7930    1.6810 h1        1 596      0.051700
     40 H7A         3.5670   -0.5330    1.7930 h1        1 596      0.051700
     41 H11         2.0750    4.5410   -0.8520 ha        1 596      0.152000
     42 H12         4.3350    3.6860   -0.2610 ha        1 596      0.145000
     43 H15         6.8310    1.3570    0.8370 h1        1 596      0.049700
     44 H15A        6.0790    2.2540   -0.5820 h1        1 596      0.049700
     45 H15B        5.9410    2.9430    1.1160 h1        1 596      0.049700
     46 H20        -2.9550    1.9880   -0.5130 ha        1 596      0.163000
     47 HN23       -2.8480   -2.9560    1.3110 hn        1 596      0.327700
     48 H26        -5.3270    1.4620   -0.5810 ha        1 596      0.141000
     49 H27        -7.5610    0.3500   -0.4210 ha        1 596      0.137000
     50 H28        -7.7780   -1.9720    0.3930 ha        1 596      0.135000
     51 H29        -5.7750   -3.2970    1.0850 ha        1 596      0.140000
@<TRIPOS>BOND
     1    1    2 1   
     2    1    6 1   
     3    1   30 1   
     4    1   31 1   
     5    2    3 1   
     6    2   32 1   
     7    2   33 1   
     8    3    4 1   
     9    3    7 1   
    10    4    5 1   
    11    4   34 1   
    12    4   35 1   
    13    5    6 1   
    14    5   36 1   
    15    5   37 1   
    16    6   38 1   
    17    7    8 1   
    18    7   39 1   
    19    7   40 1   
    20    8    9 ar  
    21    8   13 ar  
    22    9   10 ar  
    23    9   16 1   
    24   10   11 ar  
    25   10   18 1   
    26   11   12 ar  
    27   11   41 1   
    28   12   13 ar  
    29   12   42 1   
    30   13   14 1   
    31   14   15 1   
    32   15   43 1   
    33   15   44 1   
    34   15   45 1   
    35   16   17 1   
    36   17   18 1   
    37   17   20 2   
    38   18   19 2   
    39   20   21 1   
    40   20   46 1   
    41   21   22 2   
    42   21   25 1   
    43   22   23 1   
    44   23   24 1   
    45   23   47 1   
    46   24   25 ar  
    47   24   29 ar  
    48   25   26 ar  
    49   26   27 ar  
    50   26   48 1   
    51   27   28 ar  
    52   27   49 1   
    53   28   29 ar  
    54   28   50 1   
    55   29   51 1   
@<TRIPOS>SUBSTRUCTURE
     1 596         1 TEMP              0 ****  ****    0 ROOT
