@<TRIPOS>MOLECULE
596
   51    48     1     0     0
SMALL
bcc


@<TRIPOS>ATOM
      1 C1         -3.4400    3.3330   -1.3260 c3        1 596     -0.108500
      2 C2         -2.6390    2.3860   -0.4410 c3        1 596     -0.072000
      3 N3         -1.8550    1.4630   -1.2010 n3        1 596     -0.249000
      4 C4         -2.6230    0.7690   -2.1870 c3        1 596     -0.072000
      5 C5         -3.4240    1.7160   -3.0710 c3        1 596     -0.108500
      6 N6         -4.2080    2.6390   -2.3110 n3        1 596     -0.297000
      7 C7         -0.7660    2.1680   -1.8450 c3        1 596     -0.017000
      8 C8          0.5810    1.6780   -1.2650 c2        1 596     -0.111000
      9 C9          1.0540    1.0420   -0.1060 c2        1 596      0.122000
     10 C10         2.1570    1.5730    0.5860 c1        1 596     -0.258000
     11 C11         2.7830    2.7360    0.1180 c1        1 596     -0.124000
     12 C12         2.3100    3.3690   -1.0390 c1        1 596     -0.124000
     13 C13         1.2080    2.8390   -1.7300 c1        1 596      0.151000
     14 O14         2.1210    1.9280   -2.3270 os        1 596     -0.203000
     15 C15         2.6110    2.3480   -3.5940 c3        1 596     -0.078000
     16 O16         0.7420   -0.2980    0.4770 os        1 596     -0.115000
     17 C17         1.7410   -0.6020    1.4430 c2        1 596     -0.063000
     18 C18         2.6100    0.5580    1.5680 c2        1 596      0.312000
     19 O19         3.5750    0.6550    2.3040 o         1 596     -0.272000
     20 C20         1.8640   -1.7730    2.1300 c1        1 596     -0.037000
     21 C21         0.8720   -2.9040    1.8900 c1        1 596     -0.087000
     22 N22         1.6810   -3.5330    0.9980 n2        1 596     -0.004000
     23 N23         1.7930   -4.8540    1.3790 n2        1 596     -0.189000
     24 C24         1.0450   -5.0340    2.5160 c1        1 596     -0.010000
     25 C25         0.4740   -3.8360    2.8380 c1        1 596     -0.111000
     26 C26        -0.3610   -3.7350    3.9730 c1        1 596     -0.065000
     27 C27        -0.6000   -4.8530    4.7620 c1        1 596     -0.124000
     28 C28        -0.0200   -6.0700    4.4350 c1        1 596     -0.124000
     29 C29         0.8010   -6.1710    3.3180 c1        1 596     -0.138000
     30 H1         -4.0500    3.8600   -0.7590 h1        1 596      0.067750
     31 H1A        -2.8200    3.9450   -1.7800 h1        1 596      0.067750
     32 H2         -2.0400    2.9150    0.1320 h1        1 596      0.103750
     33 H2A        -3.2620    1.8800    0.1290 h1        1 596      0.103750
     34 H4         -3.2450    0.1550   -1.7330 h1        1 596      0.103750
     35 H4A        -2.0140    0.2430   -2.7540 h1        1 596      0.103750
     36 H5         -4.0240    1.1850   -3.6460 h1        1 596      0.067750
     37 H5A        -2.8030    2.2210   -3.6410 h1        1 596      0.067750
     38 HN6        -4.6010    3.2470   -2.8780 hn        1 596      0.153000
     39 H7         -0.8610    3.1330   -1.6840 h1        1 596      0.092000
     40 H7A        -0.7890    1.9930   -2.8120 h1        1 596      0.092000
     41 H11         3.5540    3.1070    0.6010 ha        1 596      0.141750
     42 H12         2.7500    4.1850   -1.3670 ha        1 596      0.141750
     43 H15         3.5890    2.2430   -3.6200 h1        1 596      0.088333
     44 H15A        2.2040    1.8000   -4.3020 h1        1 596      0.088333
     45 H15B        2.3800    3.2920   -3.7380 h1        1 596      0.088333
     46 H20         2.5900   -1.8880    2.7780 ha        1 596      0.163000
     47 HN23        2.2820   -5.5000    0.9480 DU        1 596      0.278000
     48 H26        -0.7710   -2.8740    4.2050 ha        1 596      0.141000
     49 H27        -1.1810   -4.7820    5.5520 ha        1 596      0.141750
     50 H28        -0.1890   -6.8610    4.9920 ha        1 596      0.141750
     51 H29         1.2120   -7.0320    3.0870 ha        1 596      0.140000
@<TRIPOS>BOND
     1    1    2 1   
     2    1    6 1   
     3    1   30 1   
     4    1   31 1   
     5    2    3 1   
     6    2   32 1   
     7    2   33 1   
     8    3    4 1   
     9    3    7 1   
    10    4    5 1   
    11    4   34 1   
    12    4   35 1   
    13    5    6 1   
    14    5   36 1   
    15    5   37 1   
    16    6   38 1   
    17    7    8 1   
    18    7   39 1   
    19    7   40 1   
    20    8    9 1   
    21    8   13 1   
    22    9   10 1   
    23    9   16 1   
    24   10   18 1   
    25   11   12 1   
    26   11   41 1   
    27   12   42 1   
    28   13   14 1   
    29   14   15 1   
    30   15   43 1   
    31   15   44 1   
    32   15   45 1   
    33   16   17 1   
    34   17   18 1   
    35   17   20 1   
    36   18   19 1   
    37   20   46 1   
    38   21   22 1   
    39   21   25 1   
    40   22   23 1   
    41   23   24 1   
    42   24   29 1   
    43   25   26 1   
    44   26   48 1   
    45   27   28 1   
    46   27   49 1   
    47   28   50 1   
    48   29   51 1   
@<TRIPOS>SUBSTRUCTURE
     1 596         1 TEMP              0 ****  ****    0 ROOT
