@<TRIPOS>MOLECULE
596
   51    55     1     0     0
SMALL
bcc


@<TRIPOS>ATOM
      1 C1         -0.1750   -0.6880    1.5090 c3        1 596      0.162300
      2 C2          1.3530   -0.8540    1.6040 c3        1 596      0.168300
      3 N3          2.0530    0.4210    1.6820 n3        1 596     -0.727600
      4 C4          1.6610    1.3260    0.6100 c3        1 596      0.168300
      5 C5          0.1320    1.4940    0.5070 c3        1 596      0.162300
      6 N6         -0.5780    0.2310    0.4620 n7        1 596     -0.820200
      7 C7          3.5010    0.2610    1.7650 c3        1 596      0.233100
      8 C8          3.9630   -0.1550    3.1270 ca        1 596     -0.123300
      9 C9          4.1190   -1.4830    3.4910 ca        1 596      0.163100
     10 C10         4.5820   -1.8950    4.7720 ca        1 596     -0.279600
     11 C11         4.8880   -0.9440    5.7300 ca        1 596      0.015000
     12 C12         4.7410    0.4070    5.4050 ca        1 596     -0.259000
     13 C13         4.2900    0.7940    4.1330 ca        1 596      0.200100
     14 O14         4.1550    2.1080    3.7440 os        1 596     -0.313900
     15 C15         4.4070    3.0970    4.7370 c3        1 596      0.110700
     16 O16         3.8530   -2.5690    2.6500 os        1 596     -0.202200
     17 C17         4.1560   -3.7370    3.3890 cc        1 596     -0.042100
     18 C18         4.6280   -3.3650    4.7660 c         1 596      0.590900
     19 O19         4.9650   -4.1460    5.6520 o         1 596     -0.511100
     20 C20         4.0220   -4.9730    2.8840 cf        1 596     -0.118600
     21 C21         3.5710   -5.3500    1.5730 cd        1 596      0.366200
     22 N22         3.1710   -4.5140    0.5720 nc        1 596     -0.465100
     23 N23         2.8340   -5.2520   -0.4830 na        1 596     -0.011100
     24 C24         2.9820   -6.6270   -0.2390 ca        1 596     -0.056200
     25 C25         3.4730   -6.7370    1.1140 ca        1 596     -0.193900
     26 C26         3.7290   -7.9950    1.6560 ca        1 596     -0.066000
     27 C27         3.4990   -9.1130    0.8670 ca        1 596     -0.154000
     28 C28         3.0190   -8.9970   -0.4520 ca        1 596     -0.101000
     29 C29         2.7530   -7.7640   -1.0280 ca        1 596     -0.137000
     30 H1         -0.5630   -0.3750    2.5230 h1        1 596      0.032450
     31 H1A        -0.6180   -1.6940    1.2670 h1        1 596      0.032450
     32 H2          1.7070   -1.4710    0.7260 h1        1 596      0.040700
     33 H2A         1.5910   -1.4330    2.5410 h1        1 596      0.040700
     34 H4          2.0550    0.9840   -0.3910 h1        1 596      0.040700
     35 H4A         2.1040    2.3370    0.8300 h1        1 596      0.040700
     36 H5         -0.0910    2.0420   -0.4510 h1        1 596      0.032450
     37 H5A        -0.2090    2.1450    1.3640 h1        1 596      0.032450
     38 HN6        -1.5660    0.3940    0.5130 hn        1 596      0.359800
     39 H7          3.8780   -0.5030    1.0200 h1        1 596      0.052200
     40 H7A         3.9830    1.2520    1.5200 h1        1 596      0.052200
     41 H11         5.2420   -1.2460    6.7280 ha        1 596      0.152000
     42 H12         4.9830    1.1640    6.1640 ha        1 596      0.144000
     43 H15         5.4730    3.0600    5.0680 h1        1 596      0.049033
     44 H15A        4.1930    4.0570    4.2010 h1        1 596      0.049033
     45 H15B        3.7180    2.9700    5.6070 h1        1 596      0.049033
     46 H20         4.2870   -5.8210    3.5460 ha        1 596      0.163000
     47 HN23        2.4880   -4.8220   -1.3070 hn        1 596      0.329700
     48 H26         4.1040   -8.0930    2.6850 ha        1 596      0.141000
     49 H27         3.6940  -10.1170    1.2740 ha        1 596      0.136000
     50 H28         2.8520   -9.9130   -1.0390 ha        1 596      0.135000
     51 H29         2.3800   -7.6800   -2.0570 ha        1 596      0.140000
@<TRIPOS>BOND
     1    1    2 1   
     2    1    6 1   
     3    1   30 1   
     4    1   31 1   
     5    2    3 1   
     6    2   32 1   
     7    2   33 1   
     8    3    4 1   
     9    3    7 1   
    10    4    5 1   
    11    4   34 1   
    12    4   35 1   
    13    5    6 1   
    14    5   36 1   
    15    5   37 1   
    16    6   38 1   
    17    7    8 1   
    18    7   39 1   
    19    7   40 1   
    20    8    9 ar  
    21    8   13 ar  
    22    9   10 ar  
    23    9   16 1   
    24   10   11 ar  
    25   10   18 1   
    26   11   12 ar  
    27   11   41 1   
    28   12   13 ar  
    29   12   42 1   
    30   13   14 1   
    31   14   15 1   
    32   15   43 1   
    33   15   44 1   
    34   15   45 1   
    35   16   17 1   
    36   17   18 1   
    37   17   20 2   
    38   18   19 2   
    39   20   21 1   
    40   20   46 1   
    41   21   22 2   
    42   21   25 1   
    43   22   23 1   
    44   23   24 1   
    45   23   47 1   
    46   24   25 ar  
    47   24   29 ar  
    48   25   26 ar  
    49   26   27 ar  
    50   26   48 1   
    51   27   28 ar  
    52   27   49 1   
    53   28   29 ar  
    54   28   50 1   
    55   29   51 1   
@<TRIPOS>SUBSTRUCTURE
     1 596         1 TEMP              0 ****  ****    0 ROOT
