@<TRIPOS>MOLECULE
596
   51    55     1     0     0
SMALL
bcc


@<TRIPOS>ATOM
      1 C1         -0.1790   -0.6930    1.5220 c3        1 596      0.162300
      2 C2          1.3500   -0.8580    1.6110 c3        1 596      0.167800
      3 N3          2.0490    0.4190    1.6810 n3        1 596     -0.727600
      4 C4          1.6510    1.3200    0.6070 c3        1 596      0.167800
      5 C5          0.1210    1.4860    0.5100 c3        1 596      0.162300
      6 N6         -0.5880    0.2220    0.4740 n3        1 596     -0.820200
      7 C7          3.4970    0.2610    1.7560 c3        1 596      0.233100
      8 C8          3.9660   -0.1510    3.1170 ca        1 596     -0.123300
      9 C9          4.1250   -1.4780    3.4840 ca        1 596      0.163100
     10 C10         4.5960   -1.8870    4.7630 ca        1 596     -0.279600
     11 C11         4.9060   -0.9330    5.7170 ca        1 596      0.015000
     12 C12         4.7560    0.4170    5.3900 ca        1 596     -0.259000
     13 C13         4.2980    0.8000    4.1190 ca        1 596      0.200100
     14 O14         4.1600    2.1130    3.7280 os        1 596     -0.313900
     15 C15         4.4160    3.1050    4.7170 c3        1 596      0.110700
     16 O16         3.8560   -2.5660    2.6470 os        1 596     -0.202200
     17 C17         4.1640   -3.7330    3.3870 cc        1 596     -0.042100
     18 C18         4.6430   -3.3570    4.7600 c         1 596      0.590900
     19 O19         4.9850   -4.1360    5.6470 o         1 596     -0.511100
     20 C20         4.0280   -4.9700    2.8860 cf        1 596     -0.118600
     21 C21         3.5700   -5.3500    1.5780 cd        1 596      0.366200
     22 N22         3.1640   -4.5170    0.5780 nc        1 596     -0.465100
     23 N23         2.8220   -5.2570   -0.4740 na        1 596     -0.011100
     24 C24         2.9720   -6.6320   -0.2280 ca        1 596     -0.056200
     25 C25         3.4710   -6.7390    1.1220 ca        1 596     -0.193900
     26 C26         3.7320   -7.9950    1.6660 ca        1 596     -0.066000
     27 C27         3.4990   -9.1150    0.8800 ca        1 596     -0.154000
     28 C28         3.0120   -9.0020   -0.4360 ca        1 596     -0.101000
     29 C29         2.7410   -7.7710   -1.0130 ca        1 596     -0.137000
     30 H1         -0.6220   -1.7000    1.2850 h1        1 596      0.032450
     31 H1A        -0.5620   -0.3770    2.5360 h1        1 596      0.032450
     32 H2          1.5930   -1.4320    2.5480 h1        1 596      0.040700
     33 H2A         1.7000   -1.4770    0.7330 h1        1 596      0.040700
     34 H4          2.0930    2.3320    0.8220 h1        1 596      0.040700
     35 H4A         2.0400    0.9750   -0.3950 h1        1 596      0.040700
     36 H5         -0.2170    2.1390    1.3670 h1        1 596      0.032450
     37 H5A        -0.1080    2.0310   -0.4480 h1        1 596      0.032450
     38 HN6        -1.5760    0.3840    0.5290 hn        1 596      0.359800
     39 H7          3.9770    1.2520    1.5070 h1        1 596      0.052200
     40 H7A         3.8710   -0.5050    1.0120 h1        1 596      0.052200
     41 H11         5.2650   -1.2320    6.7130 ha        1 596      0.152000
     42 H12         5.0020    1.1760    6.1460 ha        1 596      0.144000
     43 H15         3.7320    2.9790    5.5910 h1        1 596      0.049033
     44 H15A        5.4840    3.0700    5.0430 h1        1 596      0.049033
     45 H15B        4.1980    4.0630    4.1800 h1        1 596      0.049033
     46 H20         4.2980   -5.8160    3.5480 ha        1 596      0.163000
     47 HN23        2.4700   -4.8300   -1.2970 hn        1 596      0.329700
     48 H26         4.1130   -8.0900    2.6930 ha        1 596      0.141000
     49 H27         3.6970  -10.1170    1.2890 ha        1 596      0.136000
     50 H28         2.8420   -9.9200   -1.0200 ha        1 596      0.135000
     51 H29         2.3620   -7.6890   -2.0400 ha        1 596      0.140000
@<TRIPOS>BOND
     1    1    2 1   
     2    1    6 1   
     3    1   30 1   
     4    1   31 1   
     5    2    3 1   
     6    2   32 1   
     7    2   33 1   
     8    3    4 1   
     9    3    7 1   
    10    4    5 1   
    11    4   34 1   
    12    4   35 1   
    13    5    6 1   
    14    5   36 1   
    15    5   37 1   
    16    6   38 1   
    17    7    8 1   
    18    7   39 1   
    19    7   40 1   
    20    8    9 ar  
    21    8   13 ar  
    22    9   10 ar  
    23    9   16 1   
    24   10   11 ar  
    25   10   18 1   
    26   11   12 ar  
    27   11   41 1   
    28   12   13 ar  
    29   12   42 1   
    30   13   14 1   
    31   14   15 1   
    32   15   43 1   
    33   15   44 1   
    34   15   45 1   
    35   16   17 1   
    36   17   18 1   
    37   17   20 2   
    38   18   19 2   
    39   20   21 1   
    40   20   46 1   
    41   21   22 2   
    42   21   25 1   
    43   22   23 1   
    44   23   24 1   
    45   23   47 1   
    46   24   25 ar  
    47   24   29 ar  
    48   25   26 ar  
    49   26   27 ar  
    50   26   48 1   
    51   27   28 ar  
    52   27   49 1   
    53   28   29 ar  
    54   28   50 1   
    55   29   51 1   
@<TRIPOS>SUBSTRUCTURE
     1 596         1 TEMP              0 ****  ****    0 ROOT
