@<TRIPOS>MOLECULE
598
   59    55     1     0     0
SMALL
bcc


@<TRIPOS>ATOM
      1 S1          4.9200    1.5380   -5.4180 ss        1 598      0.483000
      2 C2          6.2680    2.3060   -5.1130 c1        1 598     -0.319000
      3 C3          6.2520    2.7070   -3.6840 c1        1 598      0.033000
      4 C4          4.8650    2.1970   -3.0270 c2        1 598     -0.373000
      5 C5          4.0800    1.4980   -4.0800 c2        1 598     -0.406000
      6 C6          6.9940    2.0850   -6.4760 c1        1 598      0.389000
      7 O7          7.9010    1.1670   -6.5830 o         1 598     -0.565000
      8 O8          6.7750    2.8560   -7.4290 o         1 598     -0.565000
      9 O9          7.4160    3.4700   -3.7980 o         1 598     -0.178000
     10 C10         8.0310    3.7910   -2.5410 c3        1 598     -0.073000
     11 C11         9.0420    4.9500   -2.7460 c2        1 598      0.313000
     12 O14         8.6340    6.0790   -3.1180 o         1 598     -0.539000
     13 O15        10.2970    4.7230   -2.6550 o         1 598     -0.539000
     14 S18         4.0440    2.1560   -1.7280 ss        1 598      0.834000
     15 C19         2.6870    1.3820   -2.0410 c1        1 598     -0.431000
     16 C20         2.7100    0.9920   -3.4370 c1        1 598     -0.010000
     17 C21         1.5760    1.0730   -1.2500 c1        1 598     -0.127000
     18 C22         0.4800    0.3820   -1.8150 c1        1 598     -0.066000
     19 C23         0.5070    0.0030   -3.1810 c1        1 598     -0.173000
     20 C24         1.6340    0.3160   -3.9850 c1        1 598     -0.109000
     21 N28        -0.3570   -0.0010   -0.6890 n3        1 598     -0.241000
     22 C29        -1.8150    0.2490   -0.7360 c3        1 598     -0.019000
     23 C30        -2.5030   -1.0230   -0.7610 c3        1 598     -0.195000
     24 C31        -2.3780   -1.7680    0.5370 c3        1 598     -0.023500
     25 N32        -2.7670   -0.9260    1.7240 n3        1 598     -0.832000
     26 C33        -2.0880    0.3290    1.7560 c3        1 598     -0.023500
     27 C34        -2.2060    1.0850    0.4430 c3        1 598     -0.195000
     28 S44        -3.2170   -1.6420    3.1100 s4        1 598      2.003800
     29 C45        -4.9910   -1.9690    3.0940 c2        1 598     -0.801000
     30 C46        -5.3980   -2.6850    4.4210 c2        1 598     -0.042000
     31 C49        -5.9560   -1.9540    5.4620 c2        1 598     -0.110000
     32 C50        -6.4340   -2.6110    6.6000 c1        1 598     -0.132000
     33 C51        -6.3510   -4.0130    6.6900 c1        1 598     -0.132500
     34 C52        -5.7900   -4.7460    5.6420 c1        1 598     -0.132500
     35 C53        -5.3150   -4.0900    4.5110 c1        1 598     -0.125000
     36 O59        -2.4620   -2.8600    3.3430 o         1 598     -0.539400
     37 O60        -2.8320   -0.8480    4.2630 o         1 598     -0.539400
     38 H101        7.3330    4.0690   -1.8920 h1        1 598      0.092000
     39 H102        8.5040    2.9990   -2.1950 h1        1 598      0.092000
     40 H21         1.6150    1.2140   -0.2720 ha        1 598      0.104000
     41 H23        -0.2500   -0.4750   -3.5680 ha        1 598      0.100000
     42 H24         1.6640    0.0100   -4.9720 ha        1 598      0.112000
     43 H28         0.0270   -0.4740    0.0580 hn        1 598      0.144000
     44 H29        -2.0260    0.7400   -1.5550 h1        1 598      0.110000
     45 H301       -2.1190   -1.5840   -1.4960 hc        1 598      0.094000
     46 H302       -3.4540   -0.8640   -0.9450 hc        1 598      0.094000
     47 H311       -2.9510   -2.5510    0.5040 h1        1 598      0.101000
     48 H312       -1.4490   -2.0600    0.6470 h1        1 598      0.101000
     49 H331       -2.4990    0.9080    2.5070 h1        1 598      0.101000
     50 H332       -1.0880    0.1670    1.9650 h1        1 598      0.101000
     51 H341       -1.6120    1.8870    0.4790 hc        1 598      0.094000
     52 H342       -3.1400    1.3810    0.3280 hc        1 598      0.094000
     53 H451       -5.4730   -1.1380    3.0120 ha        1 598      0.148500
     54 H452       -5.2000   -2.5270    2.3590 ha        1 598      0.148500
     55 H49        -6.0120   -0.9620    5.4000 ha        1 598      0.137000
     56 H50        -6.7620   -2.1200    7.3150 ha        1 598      0.127000
     57 H51        -6.7000   -4.4950    7.5200 ha        1 598      0.124000
     58 H52        -5.7310   -5.7210    5.7020 ha        1 598      0.124000
     59 H53        -4.9280   -4.5960    3.7880 ha        1 598      0.156000
@<TRIPOS>BOND
     1    1    2 1   
     2    1    5 1   
     3    2    3 1   
     4    3    4 1   
     5    4    5 1   
     6    4   14 1   
     7    5   16 1   
     8    6    7 1   
     9    6    8 1   
    10    9   10 1   
    11   10   11 1   
    12   10   38 1   
    13   10   39 1   
    14   11   12 1   
    15   11   13 1   
    16   14   15 1   
    17   15   17 1   
    18   16   20 1   
    19   17   40 1   
    20   18   19 1   
    21   18   21 1   
    22   19   41 1   
    23   20   42 1   
    24   21   22 1   
    25   21   43 1   
    26   22   23 1   
    27   22   27 1   
    28   22   44 1   
    29   23   24 1   
    30   23   45 1   
    31   23   46 1   
    32   24   25 1   
    33   24   47 1   
    34   24   48 1   
    35   25   26 1   
    36   25   28 1   
    37   26   27 1   
    38   26   49 1   
    39   26   50 1   
    40   27   51 1   
    41   27   52 1   
    42   28   36 1   
    43   28   37 1   
    44   29   30 1   
    45   29   53 1   
    46   29   54 1   
    47   30   31 1   
    48   30   35 1   
    49   31   32 1   
    50   31   55 1   
    51   32   56 1   
    52   33   34 1   
    53   33   57 1   
    54   34   58 1   
    55   35   59 1   
@<TRIPOS>SUBSTRUCTURE
     1 598         1 TEMP              0 ****  ****    0 ROOT
