@<TRIPOS>MOLECULE
598
   59    64     1     0     0
SMALL
bcc


@<TRIPOS>ATOM
      1 S1         43.6750   13.4700    1.6920 ss        1 598     -0.000200
      2 C2         44.1160   14.9960    2.3030 cc        1 598     -0.078400
      3 C3         45.4440   15.0150    2.6750 cc        1 598      0.078100
      4 C4         46.1070   13.7680    2.4110 cd        1 598      0.055700
      5 C5         45.2080   12.8240    1.8540 cd        1 598     -0.162400
      6 C6         43.0950   16.1100    2.3620 c         1 598      0.919600
      7 O7         43.2110   17.0670    1.5460 o         1 598     -0.830300
      8 O8         42.1460   16.0090    3.1920 o         1 598     -0.830300
      9 O9         46.0590   16.0650    3.3230 os        1 598     -0.293900
     10 C10        47.2210   16.5660    2.6560 c3        1 598      0.027400
     11 C11        48.5220   15.9360    3.1430 c         1 598      0.728600
     12 O14        48.6360   14.6600    3.3220 os        1 598     -0.434900
     13 O15        49.5160   16.6780    3.3510 o         1 598     -0.794500
     14 S18        47.6590   13.1850    2.5700 sx        1 598      0.191100
     15 C19        47.2410   11.6550    1.9360 ca        1 598     -0.432000
     16 C20        45.8540   11.5850    1.5760 ca        1 598     -0.016000
     17 C21        48.0500   10.5350    1.7400 ca        1 598     -0.098000
     18 C22        47.5160    9.3510    1.2150 ca        1 598      0.022600
     19 C23        46.1390    9.3020    0.8650 ca        1 598     -0.214000
     20 C24        45.3260   10.4080    1.0370 ca        1 598     -0.100000
     21 N28        48.3560    8.2190    0.9640 nh        1 598     -0.679600
     22 C29        49.0240    7.6850    2.1460 c3        1 598      0.178500
     23 C30        48.0840    7.1690    3.2500 c3        1 598     -0.116900
     24 C31        48.8850    6.6490    4.4400 c3        1 598      0.221300
     25 N32        49.8720    5.6520    4.0830 n3        1 598     -0.814500
     26 C33        50.7420    6.0540    3.0020 c3        1 598      0.221300
     27 C34        49.9980    6.5580    1.7660 c3        1 598     -0.116900
     28 S44        49.8580    4.1740    4.7040 s6        1 598      1.431900
     29 C45        48.5660    3.3430    3.8760 c3        1 598     -0.252300
     30 C46        48.7770    3.0250    2.4480 ca        1 598     -0.057300
     31 C49        47.9590    3.5940    1.4640 ca        1 598     -0.121000
     32 C50        48.1400    3.2650    0.1210 ca        1 598     -0.130500
     33 C51        49.1360    2.3630   -0.2510 ca        1 598     -0.132000
     34 C52        49.9550    1.7940    0.7250 ca        1 598     -0.130500
     35 C53        49.7790    2.1210    2.0670 ca        1 598     -0.121000
     36 O59        49.4560    4.1870    6.0630 o         1 598     -0.658300
     37 O60        51.0660    3.4800    4.4470 o         1 598     -0.658300
     38 H101       47.2210   17.6590    2.9160 h1        1 598      0.052700
     39 H102       47.1410   16.4430    1.5460 h1        1 598      0.052700
     40 H21        49.1170   10.5980    2.0020 ha        1 598      0.114000
     41 H23        45.7140    8.3810    0.4410 ha        1 598      0.089000
     42 H24        44.2650   10.3630    0.7540 ha        1 598      0.111000
     43 H28        47.8220    7.4900    0.5240 hn        1 598      0.342800
     44 H29        49.6270    8.5350    2.5870 h1        1 598      0.074700
     45 H301       47.4240    6.3590    2.8450 hc        1 598      0.056950
     46 H302       47.4260    8.0080    3.6000 hc        1 598      0.056950
     47 H311       48.1850    6.2060    5.2050 h1        1 598      0.058200
     48 H312       49.4190    7.5190    4.9230 h1        1 598      0.058200
     49 H331       51.3950    5.1800    2.7150 h1        1 598      0.058200
     50 H332       51.4120    6.8800    3.3810 h1        1 598      0.058200
     51 H341       50.7550    6.9380    1.0320 hc        1 598      0.056950
     52 H342       49.4400    5.7130    1.2830 hc        1 598      0.056950
     53 H451       47.6090    3.9220    3.9910 h1        1 598      0.111700
     54 H452       48.3920    2.3760    4.4260 h1        1 598      0.111700
     55 H49        47.1720    4.3100    1.7490 ha        1 598      0.146000
     56 H50        47.4980    3.7250   -0.6440 ha        1 598      0.131500
     57 H51        49.2790    2.1060   -1.3100 ha        1 598      0.126000
     58 H52        50.7480    1.0890    0.4350 ha        1 598      0.131500
     59 H53        50.4430    1.6910    2.8350 ha        1 598      0.146000
@<TRIPOS>BOND
     1    1    2 1   
     2    1    5 1   
     3    2    3 1   
     4    2    6 2   
     5    3    4 2   
     6    3    9 1   
     7    4    5 1   
     8    4   14 1   
     9    5   16 2   
    10    6    7 1   
    11    6    8 1   
    12    9   10 1   
    13   10   11 1   
    14   10   38 1   
    15   10   39 1   
    16   11   12 1   
    17   11   13 2   
    18   12   14 1   
    19   14   15 2   
    20   15   16 ar  
    21   15   17 ar  
    22   16   20 ar  
    23   17   18 ar  
    24   17   40 1   
    25   18   19 ar  
    26   18   21 1   
    27   19   20 ar  
    28   19   41 1   
    29   20   42 1   
    30   21   22 1   
    31   21   43 1   
    32   22   23 1   
    33   22   27 1   
    34   22   44 1   
    35   23   24 1   
    36   23   45 1   
    37   23   46 1   
    38   24   25 1   
    39   24   47 1   
    40   24   48 1   
    41   25   26 1   
    42   25   28 1   
    43   26   27 1   
    44   26   49 1   
    45   26   50 1   
    46   27   51 1   
    47   27   52 1   
    48   28   29 1   
    49   28   36 2   
    50   28   37 2   
    51   29   30 1   
    52   29   53 1   
    53   29   54 1   
    54   30   31 ar  
    55   30   35 ar  
    56   31   32 ar  
    57   31   55 1   
    58   32   33 ar  
    59   32   56 1   
    60   33   34 ar  
    61   33   57 1   
    62   34   35 ar  
    63   34   58 1   
    64   35   59 1   
@<TRIPOS>SUBSTRUCTURE
     1 598         1 TEMP              0 ****  ****    0 ROOT
