@<TRIPOS>MOLECULE
598
   60    65     1     0     0
SMALL
bcc


@<TRIPOS>ATOM
      1 S1          0.6250   -1.8340    1.0250 ss        1 598      0.055800
      2 C2          1.8580   -0.7310    0.6720 cc        1 598     -0.050400
      3 C3          1.7120    0.4390    1.3960 cc        1 598      0.058100
      4 C4          0.5900    0.3910    2.2820 cd        1 598      0.066700
      5 C5         -0.1030   -0.8550    2.1670 cd        1 598     -0.187400
      6 C6          2.9590   -1.0950   -0.3130 c         1 598      0.917600
      7 O7          4.1120   -1.2700    0.1590 o         1 598     -0.804300
      8 O8          2.6340   -1.2360   -1.5220 o         1 598     -0.804300
      9 O9          2.4690    1.5770    1.2290 os        1 598     -0.282900
     10 C10         3.2120    1.9630    2.3870 c3        1 598      0.030400
     11 C11         2.4360    2.8000    3.3910 c         1 598      0.723600
     12 O14         1.1290    2.8540    3.3860 os        1 598     -0.445900
     13 O15         3.0530    3.4810    4.2410 o         1 598     -0.744500
     14 S18        -0.0340    1.4030    3.4240 sx        1 598      0.279100
     15 C19        -1.2710    0.2960    3.8440 ca        1 598     -0.478000
     16 C20        -1.1870   -0.9250    3.0670 ca        1 598      0.042000
     17 C21        -2.2580    0.4150    4.8040 ca        1 598     -0.049000
     18 C22        -3.1580   -0.6440    5.0080 ca        1 598     -0.176400
     19 C23        -3.0820   -1.8400    4.2510 ca        1 598     -0.167000
     20 C24        -2.1020   -1.9660    3.2860 ca        1 598     -0.100000
     21 N28        -4.1900   -0.5140    6.0320 n4        1 598     -0.595400
     22 C29        -3.7720   -1.0990    7.3570 c3        1 598      0.124500
     23 C30        -2.5350   -0.3940    7.9200 c3        1 598     -0.122900
     24 C31        -2.1660   -1.0090    9.2720 c3        1 598      0.228800
     25 N32        -3.2600   -1.0130   10.2120 n3        1 598     -0.813500
     26 C33        -4.4620   -1.6230    9.7060 c3        1 598      0.228800
     27 C34        -4.9230   -1.0440    8.3640 c3        1 598     -0.122900
     28 S44        -3.1690   -0.3330   11.6840 s6        1 598      1.441900
     29 C45        -2.9520    1.3590   11.3860 c3        1 598     -0.265300
     30 C46        -3.8810    2.0260   10.4470 ca        1 598     -0.059300
     31 C49        -3.3830    2.7690    9.3690 ca        1 598     -0.136000
     32 C50        -4.2580    3.4300    8.5070 ca        1 598     -0.131500
     33 C51        -5.6350    3.3550    8.7150 ca        1 598     -0.137000
     34 C52        -6.1360    2.6190    9.7900 ca        1 598     -0.131500
     35 C53        -5.2660    1.9610   10.6560 ca        1 598     -0.136000
     36 O59        -2.0030   -0.7510   12.3520 o         1 598     -0.644300
     37 O60        -4.3900   -0.5140   12.3710 o         1 598     -0.644300
     38 H101        3.6470    1.0690    2.9030 h1        1 598      0.069700
     39 H102        4.0410    2.5910    1.9590 h1        1 598      0.069700
     40 H21        -2.3290    1.3390    5.4010 ha        1 598      0.113000
     41 H23        -3.7960   -2.6570    4.4230 ha        1 598      0.103000
     42 H24        -2.0360   -2.8860    2.6860 ha        1 598      0.136000
     43 H28        -5.0350   -0.9970    5.7180 hn        1 598      0.429800
     44 H29        -3.5020   -2.1790    7.1470 hx        1 598      0.107700
     45 H301       -1.6680   -0.5140    7.2150 hc        1 598      0.076950
     46 H302       -2.7340    0.7050    8.0400 hc        1 598      0.076950
     47 H311       -1.8190   -2.0710    9.1040 h1        1 598      0.070950
     48 H312       -1.3030   -0.4310    9.7120 h1        1 598      0.070950
     49 H331       -5.2930   -1.4940   10.4590 h1        1 598      0.070950
     50 H332       -4.2800   -2.7300    9.5720 h1        1 598      0.070950
     51 H341       -5.7950   -1.6500    8.0050 hc        1 598      0.076950
     52 H342       -5.2670    0.0150    8.5120 hc        1 598      0.076950
     53 H451       -1.8910    1.5570   11.0630 h1        1 598      0.127200
     54 H452       -3.0480    1.8850   12.3810 h1        1 598      0.127200
     55 H49        -2.2960    2.8510    9.2080 ha        1 598      0.152500
     56 H50        -3.8560    4.0230    7.6710 ha        1 598      0.142500
     57 H51        -6.3240    3.8870    8.0420 ha        1 598      0.138000
     58 H52        -7.2210    2.5700    9.9650 ha        1 598      0.142500
     59 H53        -5.6630    1.3920   11.5140 ha        1 598      0.152500
     60 H282       -4.4010    0.4800    6.1630 hn        1 598      0.429800
@<TRIPOS>BOND
     1    1    2 1   
     2    1    5 1   
     3    2    3 1   
     4    2    6 2   
     5    3    4 2   
     6    3    9 1   
     7    4    5 1   
     8    4   14 1   
     9    5   16 2   
    10    6    7 1   
    11    6    8 1   
    12    9   10 1   
    13   10   11 1   
    14   10   38 1   
    15   10   39 1   
    16   11   12 1   
    17   11   13 2   
    18   12   14 1   
    19   14   15 2   
    20   15   16 ar  
    21   15   17 ar  
    22   16   20 ar  
    23   17   18 ar  
    24   17   40 1   
    25   18   19 ar  
    26   18   21 1   
    27   19   20 ar  
    28   19   41 1   
    29   20   42 1   
    30   21   22 1   
    31   21   43 1   
    32   21   60 1   
    33   22   23 1   
    34   22   27 1   
    35   22   44 1   
    36   23   24 1   
    37   23   45 1   
    38   23   46 1   
    39   24   25 1   
    40   24   47 1   
    41   24   48 1   
    42   25   26 1   
    43   25   28 1   
    44   26   27 1   
    45   26   49 1   
    46   26   50 1   
    47   27   51 1   
    48   27   52 1   
    49   28   29 1   
    50   28   36 2   
    51   28   37 2   
    52   29   30 1   
    53   29   53 1   
    54   29   54 1   
    55   30   31 ar  
    56   30   35 ar  
    57   31   32 ar  
    58   31   55 1   
    59   32   33 ar  
    60   32   56 1   
    61   33   34 ar  
    62   33   57 1   
    63   34   35 ar  
    64   34   58 1   
    65   35   59 1   
@<TRIPOS>SUBSTRUCTURE
     1 598         1 TEMP              0 ****  ****    0 ROOT
