@<TRIPOS>MOLECULE
598
   59    64     1     0     0
SMALL
bcc


@<TRIPOS>ATOM
      1 S1          0.2000    1.4000    0.4980 ss        1 598     -0.000200
      2 C2          1.7860    0.9040    0.1330 cc        1 598     -0.078400
      3 C3          2.3080    0.1300    1.1490 cc        1 598      0.078100
      4 C4          1.3680   -0.0860    2.2140 cd        1 598      0.055700
      5 C5          0.1450    0.5810    1.9530 cd        1 598     -0.162400
      6 C6          2.4230    1.3120   -1.1760 c         1 598      0.919600
      7 O7          2.5810    0.4260   -2.0620 o         1 598     -0.830300
      8 O8          2.7240    2.5290   -1.3420 o         1 598     -0.830300
      9 O9          3.6130   -0.3110    1.2030 os        1 598     -0.293900
     10 C10         3.7480   -1.7290    1.3370 c3        1 598      0.027400
     11 C11         3.8780   -2.1940    2.7840 c         1 598      0.728600
     12 O14         3.1100   -1.7370    3.7190 os        1 598     -0.434900
     13 O15         4.7410   -3.0640    3.0670 o         1 598     -0.794500
     14 S18         1.3610   -0.9420    3.6410 sx        1 598      0.191100
     15 C19        -0.2400   -0.4750    4.0120 ca        1 598     -0.432000
     16 C20        -0.8010    0.3670    2.9970 ca        1 598     -0.016000
     17 C21        -1.0150   -0.8030    5.1260 ca        1 598     -0.098000
     18 C22        -2.3180   -0.3060    5.2620 ca        1 598      0.022600
     19 C23        -2.8560    0.5280    4.2440 ca        1 598     -0.214000
     20 C24        -2.1070    0.8500    3.1250 ca        1 598     -0.100000
     21 N28        -3.1310   -0.6850    6.3780 nu        1 598     -0.679600
     22 C29        -2.5890   -0.3110    7.6790 c3        1 598      0.178500
     23 C30        -2.4000    1.2010    7.8980 c3        1 598     -0.116900
     24 C31        -1.8160    1.4750    9.2810 c3        1 598      0.221300
     25 N32        -2.5760    0.8800   10.3600 n3        1 598     -0.814500
     26 C33        -2.8450   -0.5280   10.1750 c3        1 598      0.221300
     27 C34        -3.4590   -0.8660    8.8180 c3        1 598     -0.116900
     28 S44        -3.2180    1.7560   11.5390 s6        1 598      1.431900
     29 C45        -4.6200    2.5150   10.8310 c3        1 598     -0.252300
     30 C46        -5.7660    1.6410   10.5010 ca        1 598     -0.057300
     31 C49        -6.1790    1.4810    9.1720 ca        1 598     -0.121000
     32 C50        -7.2800    0.6810    8.8700 ca        1 598     -0.130500
     33 C51        -7.9800    0.0380    9.8890 ca        1 598     -0.132000
     34 C52        -7.5720    0.1920   11.2140 ca        1 598     -0.130500
     35 C53        -6.4720    0.9890   11.5220 ca        1 598     -0.121000
     36 O59        -2.3750    2.8370   11.8990 o         1 598     -0.658300
     37 O60        -3.6510    0.9510   12.6210 o         1 598     -0.658300
     38 H101        2.8990   -2.2690    0.8480 h1        1 598      0.052700
     39 H102        4.7040   -1.9530    0.7900 h1        1 598      0.052700
     40 H21        -0.5860   -1.4630    5.8960 ha        1 598      0.114000
     41 H23        -3.8810    0.9130    4.3360 ha        1 598      0.089000
     42 H24        -2.5360    1.4870    2.3390 ha        1 598      0.111000
     43 H28        -4.0520   -0.2940    6.2740 hn        1 598      0.342800
     44 H29        -1.5670   -0.7930    7.7530 h1        1 598      0.074700
     45 H301       -1.6940    1.6030    7.1250 hc        1 598      0.057200
     46 H302       -3.3800    1.7310    7.7800 hc        1 598      0.057200
     47 H311       -1.7560    2.5890    9.4540 h1        1 598      0.058200
     48 H312       -0.7660    1.0630    9.3180 h1        1 598      0.058200
     49 H331       -1.8690   -1.0870   10.2780 h1        1 598      0.058200
     50 H332       -3.5340   -0.8770   10.9970 h1        1 598      0.058200
     51 H341       -3.5330   -1.9810    8.7350 hc        1 598      0.057200
     52 H342       -4.4970   -0.4440    8.7510 hc        1 598      0.057200
     53 H451       -4.3160    3.0920    9.9150 h1        1 598      0.111700
     54 H452       -4.9760    3.2940   11.5620 h1        1 598      0.111700
     55 H49        -5.6300    1.9840    8.3610 ha        1 598      0.146000
     56 H50        -7.5910    0.5550    7.8220 ha        1 598      0.131500
     57 H51        -8.8470   -0.5940    9.6490 ha        1 598      0.126000
     58 H52        -8.1160   -0.3210   12.0210 ha        1 598      0.131500
     59 H53        -6.1330    1.0890   12.5660 ha        1 598      0.146000
@<TRIPOS>BOND
     1    1    2 1   
     2    1    5 1   
     3    2    3 1   
     4    2    6 2   
     5    3    4 2   
     6    3    9 1   
     7    4    5 1   
     8    4   14 1   
     9    5   16 2   
    10    6    7 1   
    11    6    8 1   
    12    9   10 1   
    13   10   11 1   
    14   10   38 1   
    15   10   39 1   
    16   11   12 1   
    17   11   13 2   
    18   12   14 1   
    19   14   15 2   
    20   15   16 ar  
    21   15   17 ar  
    22   16   20 ar  
    23   17   18 ar  
    24   17   40 1   
    25   18   19 ar  
    26   18   21 1   
    27   19   20 ar  
    28   19   41 1   
    29   20   42 1   
    30   21   22 1   
    31   21   43 1   
    32   22   23 1   
    33   22   27 1   
    34   22   44 1   
    35   23   24 1   
    36   23   45 1   
    37   23   46 1   
    38   24   25 1   
    39   24   47 1   
    40   24   48 1   
    41   25   26 1   
    42   25   28 1   
    43   26   27 1   
    44   26   49 1   
    45   26   50 1   
    46   27   51 1   
    47   27   52 1   
    48   28   29 1   
    49   28   36 2   
    50   28   37 2   
    51   29   30 1   
    52   29   53 1   
    53   29   54 1   
    54   30   31 ar  
    55   30   35 ar  
    56   31   32 ar  
    57   31   55 1   
    58   32   33 ar  
    59   32   56 1   
    60   33   34 ar  
    61   33   57 1   
    62   34   35 ar  
    63   34   58 1   
    64   35   59 1   
@<TRIPOS>SUBSTRUCTURE
     1 598         1 TEMP              0 ****  ****    0 ROOT
