@<TRIPOS>MOLECULE
598
   59    64     1     0     0
SMALL
bcc


@<TRIPOS>ATOM
      1 S1          0.1590    1.3430    0.4780 ss        1 598     -0.000200
      2 C2          1.7550    0.8750    0.1180 cc        1 598     -0.078400
      3 C3          2.2950    0.1290    1.1460 cc        1 598      0.078100
      4 C4          1.3610   -0.0900    2.2160 cd        1 598      0.055700
      5 C5          0.1240    0.5460    1.9460 cd        1 598     -0.162400
      6 C6          2.3810    1.2750   -1.1980 c         1 598      0.919600
      7 O7          2.5580    0.3790   -2.0700 o         1 598     -0.830300
      8 O8          2.6560    2.4950   -1.3850 o         1 598     -0.830300
      9 O9          3.6090   -0.2820    1.2050 os        1 598     -0.293900
     10 C10         3.7760   -1.6940    1.3630 c3        1 598      0.027400
     11 C11         3.9180   -2.1320    2.8170 c         1 598      0.728600
     12 O14         3.1400   -1.6770    3.7450 os        1 598     -0.434900
     13 O15         4.8000   -2.9780    3.1130 o         1 598     -0.794500
     14 S18         1.3740   -0.9230    3.6570 sx        1 598      0.191100
     15 C19        -0.2360   -0.4850    4.0230 ca        1 598     -0.432000
     16 C20        -0.8170    0.3290    2.9940 ca        1 598     -0.016000
     17 C21        -1.0030   -0.8110    5.1430 ca        1 598     -0.098000
     18 C22        -2.3160   -0.3390    5.2730 ca        1 598      0.022600
     19 C23        -2.8720    0.4660    4.2420 ca        1 598     -0.214000
     20 C24        -2.1320    0.7850    3.1170 ca        1 598     -0.100000
     21 N28        -3.1200   -0.7170    6.3950 nh        1 598     -0.679600
     22 C29        -2.5800   -0.3210    7.6910 c3        1 598      0.178500
     23 C30        -2.4020    1.1960    7.8880 c3        1 598     -0.116900
     24 C31        -1.8190    1.4950    9.2660 c3        1 598      0.221300
     25 N32        -2.5740    0.9090   10.3540 n3        1 598     -0.814500
     26 C33        -2.8330   -0.5030   10.1900 c3        1 598      0.221300
     27 C34        -3.4460   -0.8660    8.8380 c3        1 598     -0.116900
     28 S44        -3.2220    1.7970   11.5210 s6        1 598      1.431900
     29 C45        -4.6280    2.5390   10.8020 c3        1 598     -0.252300
     30 C46        -5.7680    1.6530   10.4830 ca        1 598     -0.057300
     31 C49        -6.1800    1.4730    9.1570 ca        1 598     -0.121000
     32 C50        -7.2770    0.6620    8.8650 ca        1 598     -0.130500
     33 C51        -7.9730    0.0290    9.8940 ca        1 598     -0.132000
     34 C52        -7.5660    0.2030   11.2170 ca        1 598     -0.130500
     35 C53        -6.4710    1.0110   11.5130 ca        1 598     -0.121000
     36 O59        -2.3860    2.8880   11.8670 o         1 598     -0.658300
     37 O60        -3.6510    1.0050   12.6140 o         1 598     -0.658300
     38 H101        2.9380   -2.2610    0.8840 h1        1 598      0.052700
     39 H102        4.7350   -1.9070    0.8180 h1        1 598      0.052700
     40 H21        -0.5590   -1.4490    5.9220 ha        1 598      0.114000
     41 H23        -3.9060    0.8300    4.3290 ha        1 598      0.089000
     42 H24        -2.5760    1.4010    2.3210 ha        1 598      0.111000
     43 H28        -4.0460   -0.3420    6.2900 hn        1 598      0.342800
     44 H29        -1.5550   -0.7940    7.7710 h1        1 598      0.074700
     45 H301       -3.3860    1.7170    7.7630 hc        1 598      0.056950
     46 H302       -1.6990    1.5920    7.1080 hc        1 598      0.056950
     47 H311       -1.7670    2.6110    9.4220 h1        1 598      0.058200
     48 H312       -0.7660    1.0900    9.3080 h1        1 598      0.058200
     49 H331       -1.8520   -1.0530   10.3000 h1        1 598      0.058200
     50 H332       -3.5190   -0.8450   11.0170 h1        1 598      0.058200
     51 H341       -4.4860   -0.4520    8.7660 hc        1 598      0.056950
     52 H342       -3.5120   -1.9820    8.7720 hc        1 598      0.056950
     53 H451       -4.3270    3.1040    9.8780 h1        1 598      0.111700
     54 H452       -4.9890    3.3260   11.5220 h1        1 598      0.111700
     55 H49        -5.6330    1.9670    8.3390 ha        1 598      0.146000
     56 H50        -7.5870    0.5200    7.8190 ha        1 598      0.131500
     57 H51        -8.8360   -0.6110    9.6620 ha        1 598      0.126000
     58 H52        -8.1070   -0.3010   12.0300 ha        1 598      0.131500
     59 H53        -6.1340    1.1280   12.5560 ha        1 598      0.146000
@<TRIPOS>BOND
     1    1    2 1   
     2    1    5 1   
     3    2    3 1   
     4    2    6 2   
     5    3    4 2   
     6    3    9 1   
     7    4    5 1   
     8    4   14 1   
     9    5   16 2   
    10    6    7 1   
    11    6    8 1   
    12    9   10 1   
    13   10   11 1   
    14   10   38 1   
    15   10   39 1   
    16   11   12 1   
    17   11   13 2   
    18   12   14 1   
    19   14   15 2   
    20   15   16 ar  
    21   15   17 ar  
    22   16   20 ar  
    23   17   18 ar  
    24   17   40 1   
    25   18   19 ar  
    26   18   21 1   
    27   19   20 ar  
    28   19   41 1   
    29   20   42 1   
    30   21   22 1   
    31   21   43 1   
    32   22   23 1   
    33   22   27 1   
    34   22   44 1   
    35   23   24 1   
    36   23   45 1   
    37   23   46 1   
    38   24   25 1   
    39   24   47 1   
    40   24   48 1   
    41   25   26 1   
    42   25   28 1   
    43   26   27 1   
    44   26   49 1   
    45   26   50 1   
    46   27   51 1   
    47   27   52 1   
    48   28   29 1   
    49   28   36 2   
    50   28   37 2   
    51   29   30 1   
    52   29   53 1   
    53   29   54 1   
    54   30   31 ar  
    55   30   35 ar  
    56   31   32 ar  
    57   31   55 1   
    58   32   33 ar  
    59   32   56 1   
    60   33   34 ar  
    61   33   57 1   
    62   34   35 ar  
    63   34   58 1   
    64   35   59 1   
@<TRIPOS>SUBSTRUCTURE
     1 598         1 TEMP              0 ****  ****    0 ROOT
