@<TRIPOS>MOLECULE
599
   68    72     1     0     0
SMALL
bcc


@<TRIPOS>ATOM
      1 C1          0.1370    0.0210   -0.0020 c3        1 599      0.129800
      2 N2          1.5560    0.1360    0.3210 n3        1 599     -0.724600
      3 C3          1.7910    0.1320    1.7600 c3        1 599      0.129800
      4 C4          1.0620   -1.0100    2.4760 c3        1 599      0.126400
      5 O5         -0.3240   -1.0350    2.1550 os        1 599     -0.413600
      6 C6         -0.5450   -1.1250    0.7530 c3        1 599      0.126400
      7 C13         2.1610    1.2780   -0.3510 c3        1 599      0.171800
      8 C14         3.6810    1.3410   -0.2020 c3        1 599     -0.105400
      9 C15         4.2200    2.3820   -1.1820 c3        1 599      0.055300
     10 N16         5.6580    2.5790   -1.1050 na        1 599      0.112400
     11 N21         6.2600    3.2320   -0.1010 nc        1 599     -0.496800
     12 C22         7.6140    3.1270   -0.2910 cd        1 599      0.375800
     13 C23         7.8700    2.3450   -1.4780 cd        1 599     -0.261600
     14 C24         6.5950    1.9990   -1.9700 cc        1 599     -0.111600
     15 C30         6.3780    1.1850   -3.1810 c3        1 599     -0.037100
     16 C31         7.6970    1.1160   -3.9790 c3        1 599      0.087000
     17 N32         8.8930    0.9310   -3.1870 n         1 599     -0.443800
     18 C33         9.1190    1.9540   -2.1710 c3        1 599      0.154300
     19 C39         8.6000    3.7330    0.5910 ca        1 599     -0.116500
     20 C41         9.7150    2.9950    1.0140 ca        1 599     -0.098000
     21 C42        10.6630    3.5760    1.8500 ca        1 599     -0.131000
     22 C43        10.5080    4.8980    2.2780 ca        1 599      0.040400
     23 C44         9.3890    5.6500    1.8700 ca        1 599      0.027000
     24 C45         8.4380    5.0520    1.0260 ca        1 599     -0.075000
     25 C52         9.2040    6.9790    2.2880 cg        1 599     -0.095000
     26 C53         9.0380    8.1140    2.6410 ch        1 599     -0.092000
     27 C54         8.8470    9.4430    3.0560 ca        1 599      0.026000
     28 C58         7.6990   10.1510    2.6640 ca        1 599     -0.097500
     29 C59         7.5100   11.4670    3.0750 ca        1 599     -0.128500
     30 C60         8.4700   12.0850    3.8820 ca        1 599      0.024400
     31 C61         9.6180   11.3910    4.2790 ca        1 599     -0.128500
     32 C62         9.8050   10.0750    3.8670 ca        1 599     -0.097500
     33 C69         9.4600   -0.3270   -3.0100 c         1 599      0.615100
     34 C70         9.1190   -1.4600   -3.9740 c3        1 599      0.070400
     35 O71        10.0320   -2.5250   -3.8600 oh        1 599     -0.589800
     36 O77        10.2990   -0.5410   -2.1100 o         1 599     -0.604100
     37 CL81       11.6880    5.5750    3.2950 cl        1 599     -0.079400
     38 CL83        8.2410   13.6920    4.3840 cl        1 599     -0.091400
     39 H1         -0.4190    0.9780    0.2250 h1        1 599      0.042200
     40 H1A         0.0510   -0.1770   -1.1060 h1        1 599      0.042200
     41 H3          2.8970    0.0030    1.9250 h1        1 599      0.042200
     42 H3A         1.4790    1.1090    2.2330 h1        1 599      0.042200
     43 H4          1.5250   -1.9990    2.2170 h1        1 599      0.055200
     44 H4A         1.0890   -0.8490    3.5850 h1        1 599      0.055200
     45 H6         -1.6590   -1.0520    0.6390 h1        1 599      0.055200
     46 H6A        -0.1830   -2.1180    0.3770 h1        1 599      0.055200
     47 H13         1.9080    1.1860   -1.4460 h1        1 599      0.032700
     48 H13A        1.7270    2.2570    0.0150 h1        1 599      0.032700
     49 H14         3.9530    1.6260    0.8480 hc        1 599      0.068200
     50 H14A        4.1370    0.3380   -0.4120 hc        1 599      0.068200
     51 H15         3.9910    2.0640   -2.2380 h1        1 599      0.066200
     52 H15A        3.7150    3.3720   -0.9860 h1        1 599      0.066200
     53 H30         6.0430    0.1540   -2.8920 hc        1 599      0.062700
     54 H30A        5.5890    1.6290   -3.8430 hc        1 599      0.062700
     55 H31         7.6030    0.2980   -4.7440 h1        1 599      0.061700
     56 H31A        7.8220    2.0940   -4.5290 h1        1 599      0.061700
     57 H33         9.5500    2.8570   -2.6970 h1        1 599      0.081200
     58 H33A        9.8840    1.5850   -1.4280 h1        1 599      0.081200
     59 H41         9.8380    1.9490    0.6910 ha        1 599      0.151000
     60 H42        11.5370    2.9900    2.1770 ha        1 599      0.153000
     61 H45         7.5580    5.6330    0.7090 ha        1 599      0.155000
     62 H58         6.9450    9.6620    2.0290 ha        1 599      0.146000
     63 H59         6.6080   12.0160    2.7640 ha        1 599      0.149500
     64 H61        10.3710   11.8810    4.9150 ha        1 599      0.149500
     65 H62        10.7060    9.5250    4.1780 ha        1 599      0.146000
     66 H70         8.0810   -1.8270   -3.7480 h1        1 599      0.064200
     67 H70A        9.1900   -1.1270   -5.0450 h1        1 599      0.064200
     68 HO71       10.3350   -2.5760   -2.9400 ho        1 599      0.431000
@<TRIPOS>BOND
     1    1    2 1   
     2    1    6 1   
     3    1   39 1   
     4    1   40 1   
     5    2    3 1   
     6    2    7 1   
     7    3    4 1   
     8    3   41 1   
     9    3   42 1   
    10    4    5 1   
    11    4   43 1   
    12    4   44 1   
    13    5    6 1   
    14    6   45 1   
    15    6   46 1   
    16    7    8 1   
    17    7   47 1   
    18    7   48 1   
    19    8    9 1   
    20    8   49 1   
    21    8   50 1   
    22    9   10 1   
    23    9   51 1   
    24    9   52 1   
    25   10   11 1   
    26   10   14 1   
    27   11   12 2   
    28   12   13 1   
    29   12   19 1   
    30   13   14 2   
    31   13   18 1   
    32   14   15 1   
    33   15   16 1   
    34   15   53 1   
    35   15   54 1   
    36   16   17 1   
    37   16   55 1   
    38   16   56 1   
    39   17   18 1   
    40   17   33 1   
    41   18   57 1   
    42   18   58 1   
    43   19   20 ar  
    44   19   24 ar  
    45   20   21 ar  
    46   20   59 1   
    47   21   22 ar  
    48   21   60 1   
    49   22   23 ar  
    50   22   37 1   
    51   23   24 ar  
    52   23   25 1   
    53   24   61 1   
    54   25   26 3   
    55   26   27 1   
    56   27   28 ar  
    57   27   32 ar  
    58   28   29 ar  
    59   28   62 1   
    60   29   30 ar  
    61   29   63 1   
    62   30   31 ar  
    63   30   38 1   
    64   31   32 ar  
    65   31   64 1   
    66   32   65 1   
    67   33   34 1   
    68   33   36 2   
    69   34   35 1   
    70   34   66 1   
    71   34   67 1   
    72   35   68 1   
@<TRIPOS>SUBSTRUCTURE
     1 599         1 TEMP              0 ****  ****    0 ROOT
