@<TRIPOS>MOLECULE
599
   68    72     1     0     0
SMALL
bcc


@<TRIPOS>ATOM
      1 C1          0.0570   -0.0700   -0.2170 c3        1 599      0.129800
      2 N2          1.4730    0.0010    0.1290 n3        1 599     -0.724600
      3 C3          1.6950   -0.1630    1.5600 c3        1 599      0.129800
      4 C4          0.9540   -1.3740    2.1390 c3        1 599      0.126400
      5 O5         -0.4290   -1.3560    1.8050 os        1 599     -0.413600
      6 C6         -0.6370   -1.2890    0.4000 c3        1 599      0.126400
      7 C13         2.0880    1.2080   -0.4070 c3        1 599      0.171800
      8 C14         3.6060    1.2490   -0.2340 c3        1 599     -0.105400
      9 C15         4.1600    2.3880   -1.0890 c3        1 599      0.055300
     10 N16         5.5960    2.5760   -0.9690 na        1 599      0.113400
     11 N21         6.1820    3.1150    0.1100 nc        1 599     -0.496800
     12 C22         7.5390    3.0300   -0.0690 cd        1 599      0.375800
     13 C23         7.8140    2.3820   -1.3310 cd        1 599     -0.263600
     14 C24         6.5470    2.0930   -1.8780 cc        1 599     -0.110600
     15 C30         6.3510    1.4190   -3.1750 c3        1 599     -0.038100
     16 C31         7.6820    1.4450   -3.9520 c3        1 599      0.086000
     17 N32         8.8630    1.1630   -3.1660 n         1 599     -0.443800
     18 C33         9.0750    2.0690   -2.0410 c3        1 599      0.155300
     19 C39         8.5100    3.5350    0.8890 ca        1 599     -0.116500
     20 C41         9.6170    2.7530    1.2490 ca        1 599     -0.098000
     21 C42        10.5510    3.2380    2.1580 ca        1 599     -0.131000
     22 C43        10.3900    4.5070    2.7230 ca        1 599      0.040400
     23 C44         9.2790    5.3020    2.3800 ca        1 599      0.027000
     24 C45         8.3420    4.8010    1.4600 ca        1 599     -0.075000
     25 C52         9.0880    6.5780    2.9350 cg        1 599     -0.095000
     26 C53         8.9180    7.6690    3.4040 ch        1 599     -0.092000
     27 C54         8.7210    8.9470    3.9560 ca        1 599      0.026000
     28 C58         7.5840    9.6990    3.6170 ca        1 599     -0.097500
     29 C59         7.3890   10.9640    4.1630 ca        1 599     -0.128500
     30 C60         8.3320   11.4860    5.0550 ca        1 599      0.024400
     31 C61         9.4680   10.7470    5.4020 ca        1 599     -0.128500
     32 C62         9.6600    9.4820    4.8540 ca        1 599     -0.097500
     33 C69         9.4110   -0.1150   -3.1090 c         1 599      0.614100
     34 C70         9.0150   -1.1650   -4.1430 c3        1 599      0.069400
     35 O71         9.5310   -2.4320   -3.8080 oh        1 599     -0.590800
     36 O77        10.3020   -0.3990   -2.2810 o         1 599     -0.602100
     37 Cl81       11.5530    5.0670    3.8260 cl        1 599     -0.079400
     38 Cl83        8.0950   13.0310    5.7230 cl        1 599     -0.091400
     39 H1         -0.4970    0.8580    0.1090 h1        1 599      0.041950
     40 H1A        -0.0190   -0.1450   -1.3370 h1        1 599      0.041950
     41 H3          2.7990   -0.3170    1.7200 h1        1 599      0.041950
     42 H3A         1.3830    0.7560    2.1370 h1        1 599      0.041950
     43 H4          1.4150   -2.3300    1.7770 h1        1 599      0.055450
     44 H4A         0.9710   -1.3370    3.2600 h1        1 599      0.055450
     45 H6         -0.2750   -2.2370   -0.0800 h1        1 599      0.055450
     46 H6A        -1.7490   -1.1980    0.2850 h1        1 599      0.055450
     47 H13         1.8490    1.2360   -1.5090 h1        1 599      0.032200
     48 H13A        1.6520    2.1420    0.0570 h1        1 599      0.032200
     49 H14         3.8660    1.4190    0.8440 hc        1 599      0.068700
     50 H14A        4.0640    0.2740   -0.5450 hc        1 599      0.068700
     51 H15         3.9470    2.1840   -2.1760 h1        1 599      0.066200
     52 H15A        3.6510    3.3520   -0.7970 h1        1 599      0.066200
     53 H30         6.0180    0.3590   -3.0070 hc        1 599      0.063700
     54 H30A        5.5680    1.9300   -3.7950 hc        1 599      0.063700
     55 H31         7.6080    0.7320   -4.8180 h1        1 599      0.061700
     56 H31A        7.8170    2.4840   -4.3730 h1        1 599      0.061700
     57 H33         9.8280    1.6170   -1.3310 h1        1 599      0.080200
     58 H33A        9.5160    3.0220   -2.4570 h1        1 599      0.080200
     59 H41         9.7440    1.7470    0.8180 ha        1 599      0.151000
     60 H42        11.4180    2.6180    2.4360 ha        1 599      0.153000
     61 H45         7.4680    5.4150    1.1930 ha        1 599      0.155000
     62 H58         6.8440    9.2860    2.9150 ha        1 599      0.146000
     63 H59         6.4970   11.5490    3.8930 ha        1 599      0.149500
     64 H61        10.2070   11.1600    6.1040 ha        1 599      0.149500
     65 H62        10.5530    8.8960    5.1240 ha        1 599      0.146000
     66 H70         9.4020   -0.8520   -5.1520 h1        1 599      0.065200
     67 H70A        7.9010   -1.3040   -4.1790 h1        1 599      0.065200
     68 HO71       10.3960   -2.3100   -3.3870 ho        1 599      0.431000
@<TRIPOS>BOND
     1    1    2 1   
     2    1    6 1   
     3    1   39 1   
     4    1   40 1   
     5    2    3 1   
     6    2    7 1   
     7    3    4 1   
     8    3   41 1   
     9    3   42 1   
    10    4    5 1   
    11    4   43 1   
    12    4   44 1   
    13    5    6 1   
    14    6   45 1   
    15    6   46 1   
    16    7    8 1   
    17    7   47 1   
    18    7   48 1   
    19    8    9 1   
    20    8   49 1   
    21    8   50 1   
    22    9   10 1   
    23    9   51 1   
    24    9   52 1   
    25   10   11 1   
    26   10   14 1   
    27   11   12 2   
    28   12   13 1   
    29   12   19 1   
    30   13   14 2   
    31   13   18 1   
    32   14   15 1   
    33   15   16 1   
    34   15   53 1   
    35   15   54 1   
    36   16   17 1   
    37   16   55 1   
    38   16   56 1   
    39   17   18 1   
    40   17   33 1   
    41   18   57 1   
    42   18   58 1   
    43   19   20 ar  
    44   19   24 ar  
    45   20   21 ar  
    46   20   59 1   
    47   21   22 ar  
    48   21   60 1   
    49   22   23 ar  
    50   22   37 1   
    51   23   24 ar  
    52   23   25 1   
    53   24   61 1   
    54   25   26 3   
    55   26   27 1   
    56   27   28 ar  
    57   27   32 ar  
    58   28   29 ar  
    59   28   62 1   
    60   29   30 ar  
    61   29   63 1   
    62   30   31 ar  
    63   30   38 1   
    64   31   32 ar  
    65   31   64 1   
    66   32   65 1   
    67   33   34 1   
    68   33   36 2   
    69   34   35 1   
    70   34   66 1   
    71   34   67 1   
    72   35   68 1   
@<TRIPOS>SUBSTRUCTURE
     1 599         1 TEMP              0 ****  ****    0 ROOT
