@<TRIPOS>MOLECULE
599
   68    72     1     0     0
SMALL
bcc


@<TRIPOS>ATOM
      1 C1          0.0760   -0.2360   -0.1640 c3        1 599      0.129800
      2 N2          1.4900   -0.1230    0.1770 n3        1 599     -0.724600
      3 C3          1.7180   -0.2510    1.6120 c3        1 599      0.129800
      4 C4          1.0070   -1.4650    2.2190 c3        1 599      0.126400
      5 O5         -0.3770   -1.4870    1.8870 os        1 599     -0.413600
      6 C6         -0.5880   -1.4570    0.4810 c3        1 599      0.126400
      7 C13         2.0760    1.0850   -0.3870 c3        1 599      0.171800
      8 C14         3.5930    1.1660   -0.2170 c3        1 599     -0.105400
      9 C15         4.1190    2.2990   -1.0970 c3        1 599      0.055300
     10 N16         5.5500    2.5230   -0.9840 na        1 599      0.113400
     11 N21         6.1240    3.0970    0.0820 nc        1 599     -0.496800
     12 C22         7.4830    3.0420   -0.0980 cd        1 599      0.375800
     13 C23         7.7720    2.3760   -1.3470 cd        1 599     -0.263600
     14 C24         6.5110    2.0460   -1.8860 cc        1 599     -0.110600
     15 C30         6.3290    1.3420   -3.1690 c3        1 599     -0.038100
     16 C31         7.6580    1.3850   -3.9490 c3        1 599      0.086000
     17 N32         8.8470    1.1460   -3.1600 n         1 599     -0.443800
     18 C33         9.0390    2.0790   -2.0530 c3        1 599      0.155300
     19 C39         8.4440    3.5890    0.8490 ca        1 599     -0.116500
     20 C41         9.5690    2.8400    1.2210 ca        1 599     -0.098000
     21 C42        10.4930    3.3650    2.1190 ca        1 599     -0.131000
     22 C43        10.3020    4.6410    2.6590 ca        1 599      0.040400
     23 C44         9.1710    5.4010    2.3030 ca        1 599      0.027000
     24 C45         8.2450    4.8600    1.3960 ca        1 599     -0.075000
     25 C52         8.9510    6.6840    2.8350 cg        1 599     -0.095000
     26 C53         8.7540    7.7790    3.2840 ch        1 599     -0.092000
     27 C54         8.5280    9.0610    3.8120 ca        1 599      0.026000
     28 C58         7.3690    9.7770    3.4660 ca        1 599     -0.097500
     29 C59         7.1450   11.0470    3.9900 ca        1 599     -0.128500
     30 C60         8.0800   11.6110    4.8640 ca        1 599      0.024400
     31 C61         9.2370   10.9090    5.2160 ca        1 599     -0.128500
     32 C62         9.4590    9.6390    4.6910 ca        1 599     -0.097500
     33 C69         9.4250   -0.1170   -3.0800 c         1 599      0.614100
     34 C70         9.0530   -1.1950   -4.0930 c3        1 599      0.069400
     35 O71         9.5990   -2.4430   -3.7340 oh        1 599     -0.590800
     36 O77        10.3240   -0.3630   -2.2480 o         1 599     -0.602100
     37 CL81       11.4530    5.2500    3.7500 cl        1 599     -0.079400
     38 CL83        7.8070   13.1620    5.5030 cl        1 599     -0.091400
     39 H1         -0.4990    0.6860    0.1420 h1        1 599      0.041950
     40 H1A         0.0000   -0.3380   -1.2820 h1        1 599      0.041950
     41 H3          2.8250   -0.3740    1.7730 h1        1 599      0.041950
     42 H3A         1.3850    0.6740    2.1680 h1        1 599      0.041950
     43 H4          1.4900   -2.4180    1.8770 h1        1 599      0.055450
     44 H4A         1.0250   -1.4020    3.3380 h1        1 599      0.055450
     45 H6         -0.2050   -2.4060    0.0220 h1        1 599      0.055450
     46 H6A        -1.7020   -1.3950    0.3660 h1        1 599      0.055450
     47 H13         1.8350    1.0820   -1.4890 h1        1 599      0.032200
     48 H13A        1.6190    2.0190    0.0570 h1        1 599      0.032200
     49 H14         3.8500    1.3650    0.8560 hc        1 599      0.068700
     50 H14A        4.0730    0.1950   -0.5080 hc        1 599      0.068700
     51 H15         3.9100    2.0660   -2.1800 h1        1 599      0.066200
     52 H15A        3.5870    3.2560   -0.8260 h1        1 599      0.066200
     53 H30         6.0220    0.2780   -2.9800 hc        1 599      0.063700
     54 H30A        5.5330    1.8220   -3.7970 hc        1 599      0.063700
     55 H31         7.6000    0.6530   -4.8010 h1        1 599      0.061700
     56 H31A        7.7670    2.4190   -4.3910 h1        1 599      0.061700
     57 H33         9.8030    1.6580   -1.3360 h1        1 599      0.080200
     58 H33A        9.4560    3.0340   -2.4880 h1        1 599      0.080200
     59 H41         9.7200    1.8300    0.8090 ha        1 599      0.151000
     60 H42        11.3750    2.7720    2.4060 ha        1 599      0.153000
     61 H45         7.3560    5.4480    1.1190 ha        1 599      0.155000
     62 H58         6.6350    9.3300    2.7790 ha        1 599      0.146000
     63 H59         6.2350   11.6020    3.7150 ha        1 599      0.149500
     64 H61         9.9710   11.3550    5.9040 ha        1 599      0.149500
     65 H62        10.3690    9.0830    4.9660 ha        1 599      0.146000
     66 H70         9.4310   -0.8930   -5.1080 h1        1 599      0.065200
     67 H70A        7.9420   -1.3620   -4.1240 h1        1 599      0.065200
     68 HO71       10.4620   -2.2920   -3.3180 ho        1 599      0.431000
@<TRIPOS>BOND
     1    1    2 1   
     2    1    6 1   
     3    1   39 1   
     4    1   40 1   
     5    2    3 1   
     6    2    7 1   
     7    3    4 1   
     8    3   41 1   
     9    3   42 1   
    10    4    5 1   
    11    4   43 1   
    12    4   44 1   
    13    5    6 1   
    14    6   45 1   
    15    6   46 1   
    16    7    8 1   
    17    7   47 1   
    18    7   48 1   
    19    8    9 1   
    20    8   49 1   
    21    8   50 1   
    22    9   10 1   
    23    9   51 1   
    24    9   52 1   
    25   10   11 1   
    26   10   14 1   
    27   11   12 2   
    28   12   13 1   
    29   12   19 1   
    30   13   14 2   
    31   13   18 1   
    32   14   15 1   
    33   15   16 1   
    34   15   53 1   
    35   15   54 1   
    36   16   17 1   
    37   16   55 1   
    38   16   56 1   
    39   17   18 1   
    40   17   33 1   
    41   18   57 1   
    42   18   58 1   
    43   19   20 ar  
    44   19   24 ar  
    45   20   21 ar  
    46   20   59 1   
    47   21   22 ar  
    48   21   60 1   
    49   22   23 ar  
    50   22   37 1   
    51   23   24 ar  
    52   23   25 1   
    53   24   61 1   
    54   25   26 3   
    55   26   27 1   
    56   27   28 ar  
    57   27   32 ar  
    58   28   29 ar  
    59   28   62 1   
    60   29   30 ar  
    61   29   63 1   
    62   30   31 ar  
    63   30   38 1   
    64   31   32 ar  
    65   31   64 1   
    66   32   65 1   
    67   33   34 1   
    68   33   36 2   
    69   34   35 1   
    70   34   66 1   
    71   34   67 1   
    72   35   68 1   
@<TRIPOS>SUBSTRUCTURE
     1 599         1 TEMP              0 ****  ****    0 ROOT
