@<TRIPOS>MOLECULE
599
   68    64     1     0     0
SMALL
bcc


@<TRIPOS>ATOM
      1 C1         -6.3650   -2.9360    1.9680 c3        1 599     -0.107000
      2 N2         -5.3790   -1.9730    2.3360 n3        1 599     -0.250000
      3 C3         -5.8780   -0.9970    3.2510 c3        1 599     -0.107000
      4 C4         -6.5510   -1.6290    4.4520 c3        1 599     -0.024000
      5 O5         -7.5360   -2.5880    4.0840 os        1 599     -0.270000
      6 C6         -7.0360   -3.5620    3.1730 c3        1 599     -0.024000
      7 C13        -4.8820   -1.3180    1.1510 c3        1 599     -0.065000
      8 C14        -3.3810   -1.3660    1.1450 c3        1 599     -0.183000
      9 C15        -2.8340   -0.6920   -0.1720 c3        1 599     -0.004000
     10 N16        -1.3780   -0.7660   -0.1870 n3        1 599     -0.100000
     11 N21        -0.5020   -0.0030    0.6220 n2        1 599     -0.064000
     12 C22         0.8250   -0.2480    0.1880 c2        1 599     -0.062000
     13 C23         0.7720   -1.1440   -0.8680 c1        1 599     -0.210000
     14 C24        -0.6070   -1.4710   -1.1060 c1        1 599     -0.062000
     15 C30        -0.9380   -2.4020   -2.3570 c2        1 599     -0.125000
     16 C31         0.1420   -2.6960   -3.2310 c3        1 599     -0.033000
     17 N32         1.4210   -2.8580   -2.6370 n         1 599     -0.305000
     18 C33         1.8830   -1.8590   -1.8030 c2        1 599      0.045000
     19 C39         2.0050    0.4070    0.6770 c1        1 599     -0.005000
     20 C41         2.7800   -0.1990    1.6680 c1        1 599     -0.117500
     21 C42         3.8970    0.4490    2.1710 c1        1 599     -0.117500
     22 C43         4.2480    1.7120    1.6840 c1        1 599     -0.039000
     23 C44         3.4750    2.3170    0.6950 c1        1 599      0.036000
     24 C45         2.3550    1.6620    0.1940 c2        1 599     -0.075000
     25 C52         3.8560    3.6320    0.1570 c1        1 599     -0.097000
     26 C53         4.1640    4.7100   -0.2890 c1        1 599     -0.097000
     27 C54         4.5520    6.0540   -0.8450 c1        1 599      0.027000
     28 C58         3.6090    6.8420   -1.4810 c2        1 599     -0.098000
     29 C59         4.0080    8.0510   -2.1330 c1        1 599     -0.129000
     30 C60         5.3370    8.4290   -2.1270 c1        1 599     -0.053000
     31 C61         6.2760    7.6390   -1.4910 c1        1 599     -0.128000
     32 C62         5.8750    6.4350   -0.8410 c1        1 599     -0.096000
     33 C69         2.2150   -4.0310   -2.8990 c2        1 599      0.261000
     34 C70         3.5970   -4.1690   -2.2780 c3        1 599     -0.030000
     35 O71         4.1950   -5.4930   -2.6860 oh        1 599     -0.318000
     36 O77         1.7850   -4.9120   -3.6490 o         1 599     -0.370000
     37 CL81        5.7060    2.5420    2.3200 cl        1 599      0.001000
     38 CL83        5.8240    9.9690   -2.8590 cl        1 599     -0.011000
     39 H1         -7.0340   -2.5080    1.4270 h1        1 599      0.081250
     40 H1A        -5.9380   -3.6420    1.4410 h1        1 599      0.081250
     41 H3         -5.1300   -0.4400    3.5640 h1        1 599      0.081250
     42 H3A        -6.5270   -0.4260    2.7830 h1        1 599      0.081250
     43 H4         -5.8180   -2.1110    5.0330 h1        1 599      0.094750
     44 H4A        -7.0000   -0.8790    5.0260 h1        1 599      0.094750
     45 H6         -7.7980   -4.1450    2.8610 h1        1 599      0.094750
     46 H6A        -6.3810   -4.1190    3.6420 h1        1 599      0.094750
     47 H13        -5.2150   -1.7650    0.3790 h1        1 599      0.072000
     48 H13A       -5.1810   -0.3800    1.1420 h1        1 599      0.072000
     49 H14        -3.0370   -0.8870    1.9240 hc        1 599      0.108500
     50 H14A       -3.1010   -2.2490    1.1780 hc        1 599      0.108500
     51 H15        -3.2230   -1.2040   -1.0220 h1        1 599      0.106000
     52 H15A       -3.1110    0.2410   -0.1990 h1        1 599      0.106000
     53 H30        -1.2890   -3.2450   -2.0190 ha        1 599      0.106500
     54 H30A       -1.6710   -1.9490   -2.9020 ha        1 599      0.106500
     55 H31        -0.0870   -3.5650   -3.7430 h1        1 599      0.114000
     56 H31A        0.2110   -1.9110   -3.9310 h1        1 599      0.114000
     57 H33         2.2600   -1.1660   -2.3780 h4        1 599      0.102500
     58 H33A        2.5590   -2.2750   -1.1880 h4        1 599      0.102500
     59 H41         2.5370   -1.0750    2.0030 ha        1 599      0.146000
     60 H42         4.4380    0.0230    2.8660 ha        1 599      0.146000
     61 H45         1.8320    2.0720   -0.4770 ha        1 599      0.157000
     62 H58         2.7350    6.5910   -1.4830 ha        1 599      0.145000
     63 H59         3.3060    8.6390   -2.6080 ha        1 599      0.150000
     64 H61         7.3010    7.9300   -1.4870 ha        1 599      0.151000
     65 H62         6.5690    5.8530   -0.3730 ha        1 599      0.148000
     66 H70         4.2110   -3.3880   -2.6130 h1        1 599      0.106000
     67 H70A        3.5230   -4.1290   -1.2950 h1        1 599      0.106000
     68 HO71        4.5270   -5.4290   -3.5460 ho        1 599      0.230000
@<TRIPOS>BOND
     1    1    2 1   
     2    1    6 1   
     3    1   39 1   
     4    1   40 1   
     5    2    3 1   
     6    2    7 1   
     7    3    4 1   
     8    3   41 1   
     9    3   42 1   
    10    4    5 1   
    11    4   43 1   
    12    4   44 1   
    13    5    6 1   
    14    6   45 1   
    15    6   46 1   
    16    7    8 1   
    17    7   47 1   
    18    7   48 1   
    19    8    9 1   
    20    8   49 1   
    21    8   50 1   
    22    9   10 1   
    23    9   51 1   
    24    9   52 1   
    25   10   11 1   
    26   10   14 1   
    27   11   12 1   
    28   12   13 1   
    29   12   19 1   
    30   13   14 1   
    31   15   16 1   
    32   15   53 1   
    33   15   54 1   
    34   16   17 1   
    35   16   55 1   
    36   16   56 1   
    37   17   18 1   
    38   17   33 1   
    39   18   57 1   
    40   18   58 1   
    41   19   24 1   
    42   20   21 1   
    43   20   59 1   
    44   21   60 1   
    45   22   23 1   
    46   22   37 1   
    47   23   24 1   
    48   24   61 1   
    49   25   26 1   
    50   27   28 1   
    51   27   32 1   
    52   28   29 1   
    53   28   62 1   
    54   29   63 1   
    55   30   31 1   
    56   30   38 1   
    57   31   64 1   
    58   32   65 1   
    59   33   34 1   
    60   33   36 1   
    61   34   35 1   
    62   34   66 1   
    63   34   67 1   
    64   35   68 1   
@<TRIPOS>SUBSTRUCTURE
     1 599         1 TEMP              0 ****  ****    0 ROOT
