@<TRIPOS>MOLECULE
599
   68    72     1     0     0
SMALL
bcc


@<TRIPOS>ATOM
      1 C1         -6.1600    5.2270   -0.2870 c3        1 599      0.129800
      2 N2         -5.4420    4.0770    0.2530 n3        1 599     -0.724600
      3 C3         -4.8280    4.3720    1.5420 c3        1 599      0.129800
      4 C4         -5.8000    5.0380    2.5220 c3        1 599      0.126400
      5 O5         -6.4290    6.1790    1.9490 os        1 599     -0.413600
      6 C6         -7.1050    5.8630    0.7380 c3        1 599      0.126400
      7 C13        -4.4980    3.5390   -0.7170 c3        1 599      0.171800
      8 C14        -3.8500    2.2270   -0.2770 c3        1 599     -0.105400
      9 C15        -3.1320    1.6150   -1.4800 c3        1 599      0.055300
     10 N16        -2.4190    0.3840   -1.1820 na        1 599      0.113400
     11 N21        -1.2660    0.3470   -0.4990 nc        1 599     -0.496800
     12 C22        -0.9430   -0.9710   -0.3020 cd        1 599      0.375800
     13 C23        -1.9680   -1.8060   -0.8840 cd        1 599     -0.263600
     14 C24        -2.9060   -0.9050   -1.4310 cc        1 599     -0.110600
     15 C30        -4.1360   -1.3280   -2.1280 c3        1 599     -0.038100
     16 C31        -4.0160   -2.8260   -2.4760 c3        1 599      0.086000
     17 N32        -3.4560   -3.6600   -1.4360 n         1 599     -0.443800
     18 C33        -2.1160   -3.2740   -1.0020 c3        1 599      0.155300
     19 C39         0.2610   -1.4110    0.3880 ca        1 599     -0.116500
     20 C41         0.1880   -2.4240    1.3530 ca        1 599     -0.098000
     21 C42         1.3390   -2.8520    2.0070 ca        1 599     -0.131000
     22 C43         2.5750   -2.2700    1.7070 ca        1 599      0.040400
     23 C44         2.6640   -1.2440    0.7470 ca        1 599      0.027000
     24 C45         1.4940   -0.8200    0.0940 ca        1 599     -0.075000
     25 C52         3.8910   -0.6380    0.4290 cg        1 599     -0.095000
     26 C53         4.9350   -0.1140    0.1520 ch        1 599     -0.092000
     27 C54         6.1590    0.4970   -0.1690 ca        1 599      0.026000
     28 C58         6.2050    1.5460   -1.1020 ca        1 599     -0.097500
     29 C59         7.4170    2.1510   -1.4210 ca        1 599     -0.128500
     30 C60         8.5940    1.7090   -0.8070 ca        1 599      0.024400
     31 C61         8.5620    0.6650    0.1230 ca        1 599     -0.128500
     32 C62         7.3480    0.0620    0.4410 ca        1 599     -0.097500
     33 C69        -4.2680   -4.3650   -0.5520 c         1 599      0.614100
     34 C70        -5.7450   -4.5750   -0.8710 c3        1 599      0.069400
     35 O71        -6.4270   -5.1450    0.2210 oh        1 599     -0.590800
     36 O77        -3.7910   -4.9200    0.4600 o         1 599     -0.602100
     37 CL81        3.9600   -2.8210    2.5230 cl        1 599     -0.079400
     38 CL83       10.0750    2.4470   -1.1960 cl        1 599     -0.091400
     39 H1         -5.4500    6.0220   -0.6590 h1        1 599      0.041950
     40 H1A        -6.7720    4.8700   -1.1620 h1        1 599      0.041950
     41 H3         -4.4890    3.3960    1.9900 h1        1 599      0.041950
     42 H3A        -3.9230    5.0370    1.4270 h1        1 599      0.041950
     43 H4         -6.5830    4.3090    2.8610 h1        1 599      0.055450
     44 H4A        -5.2390    5.4420    3.4050 h1        1 599      0.055450
     45 H6         -7.4760    6.8510    0.3590 h1        1 599      0.055450
     46 H6A        -7.9700    5.1830    0.9570 h1        1 599      0.055450
     47 H13        -5.0760    3.3560   -1.6690 h1        1 599      0.032200
     48 H13A       -3.6770    4.2790   -0.9570 h1        1 599      0.032200
     49 H14        -3.1160    2.4190    0.5490 hc        1 599      0.068700
     50 H14A       -4.6250    1.5180    0.1140 hc        1 599      0.068700
     51 H15        -3.8820    1.3700   -2.2850 h1        1 599      0.066200
     52 H15A       -2.3940    2.3620   -1.8910 h1        1 599      0.066200
     53 H30        -5.0280   -1.1510   -1.4690 hc        1 599      0.063700
     54 H30A       -4.2920   -0.7540   -3.0790 hc        1 599      0.063700
     55 H31        -5.0290   -3.2070   -2.7810 h1        1 599      0.061700
     56 H31A       -3.3310   -2.9210   -3.3680 h1        1 599      0.061700
     57 H33        -1.3890   -3.6610   -1.7770 h1        1 599      0.080200
     58 H33A       -1.8790   -3.7770   -0.0200 h1        1 599      0.080200
     59 H41        -0.7830   -2.8790    1.6040 ha        1 599      0.151000
     60 H42         1.2750   -3.6490    2.7640 ha        1 599      0.153000
     61 H45         1.5560   -0.0140   -0.6530 ha        1 599      0.155000
     62 H58         5.2770    1.8920   -1.5830 ha        1 599      0.146000
     63 H59         7.4470    2.9730   -2.1520 ha        1 599      0.149500
     64 H61         9.4890    0.3210    0.6050 ha        1 599      0.149500
     65 H62         7.3180   -0.7590    1.1730 ha        1 599      0.146000
     66 H70        -6.2650   -3.5970   -1.0620 h1        1 599      0.065200
     67 H70A       -5.8370   -5.2460   -1.7680 h1        1 599      0.065200
     68 HO71       -5.8250   -5.7550    0.6740 ho        1 599      0.431000
@<TRIPOS>BOND
     1    1    2 1   
     2    1    6 1   
     3    1   39 1   
     4    1   40 1   
     5    2    3 1   
     6    2    7 1   
     7    3    4 1   
     8    3   41 1   
     9    3   42 1   
    10    4    5 1   
    11    4   43 1   
    12    4   44 1   
    13    5    6 1   
    14    6   45 1   
    15    6   46 1   
    16    7    8 1   
    17    7   47 1   
    18    7   48 1   
    19    8    9 1   
    20    8   49 1   
    21    8   50 1   
    22    9   10 1   
    23    9   51 1   
    24    9   52 1   
    25   10   11 1   
    26   10   14 1   
    27   11   12 2   
    28   12   13 1   
    29   12   19 1   
    30   13   14 2   
    31   13   18 1   
    32   14   15 1   
    33   15   16 1   
    34   15   53 1   
    35   15   54 1   
    36   16   17 1   
    37   16   55 1   
    38   16   56 1   
    39   17   18 1   
    40   17   33 1   
    41   18   57 1   
    42   18   58 1   
    43   19   20 ar  
    44   19   24 ar  
    45   20   21 ar  
    46   20   59 1   
    47   21   22 ar  
    48   21   60 1   
    49   22   23 ar  
    50   22   37 1   
    51   23   24 ar  
    52   23   25 1   
    53   24   61 1   
    54   25   26 3   
    55   26   27 1   
    56   27   28 ar  
    57   27   32 ar  
    58   28   29 ar  
    59   28   62 1   
    60   29   30 ar  
    61   29   63 1   
    62   30   31 ar  
    63   30   38 1   
    64   31   32 ar  
    65   31   64 1   
    66   32   65 1   
    67   33   34 1   
    68   33   36 2   
    69   34   35 1   
    70   34   66 1   
    71   34   67 1   
    72   35   68 1   
@<TRIPOS>SUBSTRUCTURE
     1 599         1 TEMP              0 ****  ****    0 ROOT
