@<TRIPOS>MOLECULE
59A
   37    37     1     0     0
SMALL
bcc


@<TRIPOS>ATOM
      1 C2          1.8140    0.7280   -0.6450 cx        1 59A      0.003100
      2 O1          1.8510   -0.6420   -0.2240 os        1 59A     -0.361600
      3 C3          1.3640    0.3210    0.7220 cx        1 59A      0.022100
      4 C4         -0.1080    0.3150    1.0850 c         1 59A      0.651100
      5 O4         -0.4370    0.9150    2.1360 o         1 59A     -0.643100
      6 N1         -0.9700   -0.3160    0.2510 n         1 59A     -0.503900
      7 C5         -2.4000   -0.3940    0.4630 c3        1 59A     -0.036300
      8 C6         -3.0210   -1.5690   -0.3830 c         1 59A      0.917600
      9 O5         -4.0440   -2.1200    0.1000 o         1 59A     -0.826300
     10 C10        -3.1300    0.9300    0.1410 c3        1 59A     -0.057700
     11 C12        -4.6050    0.7710    0.4780 c3        1 59A     -0.079400
     12 C11        -2.9360    1.3250   -1.3080 c3        1 59A     -0.090100
     13 C13        -5.3030    2.0940    0.6570 c3        1 59A     -0.085100
     14 OA         -2.4630   -1.8820   -1.4710 o         1 59A     -0.826300
     15 C7          3.1250    1.3990   -0.8470 c         1 59A      0.649100
     16 O2          3.4320    2.1760   -1.7540 o         1 59A     -0.541000
     17 O3          4.0560    1.1160    0.1110 os        1 59A     -0.430900
     18 C8          5.3440    1.7390   -0.0430 c3        1 59A      0.139400
     19 C9          6.1850    1.2600    1.1140 c3        1 59A     -0.100100
     20 H2          1.0880    0.9460   -1.4570 h1        1 59A      0.139700
     21 H3          2.0290    0.4810    1.5960 h1        1 59A      0.122700
     22 HN1        -0.6300   -0.8220   -0.5420 hn        1 59A      0.344500
     23 H5         -2.5780   -0.6210    1.5550 h1        1 59A      0.059700
     24 H10        -2.6970    1.7370    0.7990 hc        1 59A      0.033700
     25 H121       -5.1010    0.1710   -0.3310 hc        1 59A      0.062200
     26 H122       -4.7030    0.1670    1.4200 hc        1 59A      0.062200
     27 H111       -3.6370    2.1480   -1.5900 hc        1 59A      0.029700
     28 H112       -1.8930    1.6830   -1.4810 hc        1 59A      0.029700
     29 H113       -3.1210    0.4430   -1.9720 hc        1 59A      0.029700
     30 H131       -6.3760    1.9310    0.9230 hc        1 59A      0.017033
     31 H132       -4.8250    2.6880    1.4750 hc        1 59A      0.017033
     32 H133       -5.2640    2.7000   -0.2800 hc        1 59A      0.017033
     33 H81         5.2080    2.8520   -0.0320 h1        1 59A      0.048200
     34 H82         5.7750    1.4330   -1.0320 h1        1 59A      0.048200
     35 H91         7.2030    1.7100    1.0360 hc        1 59A      0.046700
     36 H92         5.7240    1.5610    2.0850 hc        1 59A      0.046700
     37 H93         6.2730    0.1470    1.0990 hc        1 59A      0.046700
@<TRIPOS>BOND
     1    1    2 1   
     2    1    3 1   
     3    1   15 1   
     4    1   20 1   
     5    2    3 1   
     6    3    4 1   
     7    3   21 1   
     8    4    5 2   
     9    4    6 1   
    10    6    7 1   
    11    6   22 1   
    12    7    8 1   
    13    7   10 1   
    14    7   23 1   
    15    8    9 1   
    16    8   14 1   
    17   10   11 1   
    18   10   12 1   
    19   10   24 1   
    20   11   13 1   
    21   11   25 1   
    22   11   26 1   
    23   12   27 1   
    24   12   28 1   
    25   12   29 1   
    26   13   30 1   
    27   13   31 1   
    28   13   32 1   
    29   15   16 2   
    30   15   17 1   
    31   17   18 1   
    32   18   19 1   
    33   18   33 1   
    34   18   34 1   
    35   19   35 1   
    36   19   36 1   
    37   19   37 1   
@<TRIPOS>SUBSTRUCTURE
     1 59A         1 TEMP              0 ****  ****    0 ROOT
