@<TRIPOS>MOLECULE
59A
   38    38     1     0     0
SMALL
bcc


@<TRIPOS>ATOM
      1 C2         -1.6930   -0.1240    1.0190 cx        1 59A      0.032100
      2 O1         -0.4120   -0.3010    1.6430 os        1 59A     -0.326600
      3 C3         -1.3730    0.4850    2.3510 cx        1 59A     -0.018900
      4 C4         -1.8590   -0.0470    3.6600 c         1 59A      0.558100
      5 O4         -1.8050    0.5910    4.7080 o         1 59A     -0.448100
      6 N1         -2.4940   -1.3800    3.7150 n4        1 59A     -0.671800
      7 C5         -1.5490   -2.5360    3.4720 c3        1 59A     -0.045500
      8 C6         -2.1360   -3.4060    2.2630 c         1 59A      0.932600
      9 O5         -1.5840   -4.4890    2.0250 o         1 59A     -0.758300
     10 C10        -1.3120   -3.3450    4.7520 c3        1 59A     -0.053700
     11 C12        -0.0650   -4.2020    4.5620 c3        1 59A     -0.081400
     12 C11        -2.5190   -4.1910    5.0960 c3        1 59A     -0.104100
     13 C13         0.4080   -4.8150    5.8540 c3        1 59A     -0.092100
     14 OA         -3.0960   -2.8560    1.6430 o         1 59A     -0.758300
     15 C7         -1.7260    0.7620   -0.1830 c         1 59A      0.635100
     16 O2         -2.3070    0.5400   -1.2420 o         1 59A     -0.486000
     17 O3         -1.0490    1.9350   -0.0190 os        1 59A     -0.445900
     18 C8         -1.0090    2.8160   -1.1610 c3        1 59A      0.140400
     19 C9         -0.1680    3.9990   -0.7480 c3        1 59A     -0.103100
     20 H2         -2.2880   -1.0680    0.8920 h1        1 59A      0.201700
     21 H3         -1.1160    1.5680    2.4230 h1        1 59A      0.159700
     22 HN1        -2.9550   -1.5060    4.6220 hn        1 59A      0.471300
     23 H5         -0.5720   -2.1130    3.1000 hx        1 59A      0.104700
     24 H10        -1.1110   -2.6350    5.6070 hc        1 59A      0.030700
     25 H121        0.7570   -3.5650    4.1380 hc        1 59A      0.070700
     26 H122       -0.2870   -5.0040    3.8040 hc        1 59A      0.070700
     27 H111       -3.4200   -3.5570    5.2750 hc        1 59A      0.047033
     28 H112       -2.7410   -4.9010    4.2590 hc        1 59A      0.047033
     29 H113       -2.3220   -4.7820    6.0230 hc        1 59A      0.047033
     30 H131       -0.3330   -5.5540    6.2440 hc        1 59A      0.034367
     31 H132        1.3750   -5.3490    5.6860 hc        1 59A      0.034367
     32 H133        0.5690   -4.0330    6.6350 hc        1 59A      0.034367
     33 H81        -0.5600    2.2600   -2.0250 h1        1 59A      0.058700
     34 H82        -2.0600    3.1110   -1.4170 h1        1 59A      0.058700
     35 H91        -0.6280    4.5250    0.1230 hc        1 59A      0.051700
     36 H92        -0.0960    4.7080   -1.6070 hc        1 59A      0.051700
     37 H93         0.8580    3.6690   -0.4580 hc        1 59A      0.051700
     38 H12        -3.2190   -1.4570    2.9490 hn        1 59A      0.471300
@<TRIPOS>BOND
     1    1    2 1   
     2    1    3 1   
     3    1   15 1   
     4    1   20 1   
     5    2    3 1   
     6    3    4 1   
     7    3   21 1   
     8    4    5 2   
     9    4    6 1   
    10    6    7 1   
    11    6   22 1   
    12    6   38 1   
    13    7    8 1   
    14    7   10 1   
    15    7   23 1   
    16    8    9 1   
    17    8   14 1   
    18   10   11 1   
    19   10   12 1   
    20   10   24 1   
    21   11   13 1   
    22   11   25 1   
    23   11   26 1   
    24   12   27 1   
    25   12   28 1   
    26   12   29 1   
    27   13   30 1   
    28   13   31 1   
    29   13   32 1   
    30   15   16 2   
    31   15   17 1   
    32   17   18 1   
    33   18   19 1   
    34   18   33 1   
    35   18   34 1   
    36   19   35 1   
    37   19   36 1   
    38   19   37 1   
@<TRIPOS>SUBSTRUCTURE
     1 59A         1 TEMP              0 ****  ****    0 ROOT
