@<TRIPOS>MOLECULE
59A
   38    38     1     0     0
SMALL
bcc


@<TRIPOS>ATOM
      1 C2         -1.6900   -0.1250    1.0170 cx        1 59A      0.032100
      2 O1         -0.4090   -0.3140    1.6360 os        1 59A     -0.326600
      3 C3         -1.3580    0.4860    2.3440 cx        1 59A     -0.018900
      4 C4         -1.8440   -0.0350    3.6580 c         1 59A      0.558100
      5 O4         -1.7790    0.6070    4.7030 o         1 59A     -0.448100
      6 N1         -2.4920   -1.3620    3.7220 ny        1 59A     -0.671800
      7 C5         -1.5600   -2.5280    3.4800 c3        1 59A     -0.045500
      8 C6         -2.1610   -3.3970    2.2760 c         1 59A      0.932600
      9 O5         -1.6210   -4.4870    2.0400 o         1 59A     -0.758300
     10 C10        -1.3270   -3.3350    4.7620 c3        1 59A     -0.053700
     11 C12        -0.0890   -4.2050    4.5710 c3        1 59A     -0.081400
     12 C11        -2.5410   -4.1670    5.1140 c3        1 59A     -0.104100
     13 C13         0.3820   -4.8180    5.8630 c3        1 59A     -0.092100
     14 OA         -3.1180   -2.8400    1.6580 o         1 59A     -0.758300
     15 C7         -1.7200    0.7570   -0.1890 c         1 59A      0.635100
     16 O2         -2.3120    0.5390   -1.2420 o         1 59A     -0.486000
     17 O3         -1.0240    1.9190   -0.0340 os        1 59A     -0.445900
     18 C8         -0.9790    2.7960   -1.1810 c3        1 59A      0.140400
     19 C9         -0.1170    3.9670   -0.7790 c3        1 59A     -0.103100
     20 H2         -2.2970   -1.0630    0.8970 h1        1 59A      0.201700
     21 H3         -1.0880    1.5670    2.4110 h1        1 59A      0.159700
     22 HN1        -2.9510   -1.4790    4.6310 hn        1 59A      0.470800
     23 H5         -0.5810   -2.1170    3.1020 hx        1 59A      0.104700
     24 H10        -1.1150   -2.6240    5.6140 hc        1 59A      0.030700
     25 H121        0.7370   -3.5790    4.1410 hc        1 59A      0.070700
     26 H122       -0.3230   -5.0080    3.8170 hc        1 59A      0.070700
     27 H111       -3.4350   -3.5220    5.2940 hc        1 59A      0.047033
     28 H112       -2.7740   -4.8780    4.2810 hc        1 59A      0.047033
     29 H113       -2.3470   -4.7560    6.0430 hc        1 59A      0.047033
     30 H131        0.5550   -4.0350    6.6410 hc        1 59A      0.034367
     31 H132        1.3430   -5.3640    5.6930 hc        1 59A      0.034367
     32 H133       -0.3650   -5.5470    6.2590 hc        1 59A      0.034367
     33 H81        -0.5450    2.2290   -2.0460 h1        1 59A      0.058700
     34 H82        -2.0270    3.1060   -1.4300 h1        1 59A      0.058700
     35 H91         0.9060    3.6230   -0.4960 hc        1 59A      0.051700
     36 H92        -0.0410    4.6710   -1.6420 hc        1 59A      0.051700
     37 H93        -0.5620    4.5040    0.0920 hc        1 59A      0.051700
     38 H12        -3.2210   -1.4340    2.9590 hn        1 59A      0.470800
@<TRIPOS>BOND
     1    1    2 1   
     2    1    3 1   
     3    1   15 1   
     4    1   20 1   
     5    2    3 1   
     6    3    4 1   
     7    3   21 1   
     8    4    5 2   
     9    4    6 1   
    10    6    7 1   
    11    6   22 1   
    12    6   38 1   
    13    7    8 1   
    14    7   10 1   
    15    7   23 1   
    16    8    9 1   
    17    8   14 1   
    18   10   11 1   
    19   10   12 1   
    20   10   24 1   
    21   11   13 1   
    22   11   25 1   
    23   11   26 1   
    24   12   27 1   
    25   12   28 1   
    26   12   29 1   
    27   13   30 1   
    28   13   31 1   
    29   13   32 1   
    30   15   16 2   
    31   15   17 1   
    32   17   18 1   
    33   18   19 1   
    34   18   33 1   
    35   18   34 1   
    36   19   35 1   
    37   19   36 1   
    38   19   37 1   
@<TRIPOS>SUBSTRUCTURE
     1 59A         1 TEMP              0 ****  ****    0 ROOT
