@<TRIPOS>MOLECULE
59A
   37    37     1     0     0
SMALL
bcc


@<TRIPOS>ATOM
      1 C2          1.0040   -0.8780   -1.7400 cx        1 59A      0.006100
      2 O1          1.0250   -1.1820   -0.8750 os        1 59A     -0.367600
      3 C3          0.3040   -0.7010   -1.1760 cx        1 59A      0.019100
      4 C4          0.1740   -0.0430   -0.9410 c         1 59A      0.653100
      5 O4          0.1320    0.8900   -1.7310 o         1 59A     -0.642100
      6 N1         -0.1160    0.1820    0.4580 n         1 59A     -0.502900
      7 C5         -0.6220    1.4480    0.8890 c3        1 59A     -0.041300
      8 C6          0.5160    2.4420    0.9780 c         1 59A      0.913600
      9 O5          1.6630    2.0570    1.3410 o         1 59A     -0.827800
     10 C10        -1.2680    1.2970    2.2480 c3        1 59A     -0.051700
     11 C12        -2.3580    2.3470    2.4120 c3        1 59A     -0.081400
     12 C11        -0.2200    1.4820    3.3310 c3        1 59A     -0.093100
     13 C13        -3.5030    1.7700    3.2560 c3        1 59A     -0.085100
     14 OA          0.3340    3.6430    0.6240 o         1 59A     -0.827800
     15 C7          0.9350   -1.3230   -2.2870 c         1 59A      0.648100
     16 O2          0.1320   -1.0780   -3.1780 o         1 59A     -0.536000
     17 O3          1.7800   -2.4660   -2.3860 os        1 59A     -0.433900
     18 C8          2.0110   -2.9000   -3.7220 c3        1 59A      0.139400
     19 C9          2.9300   -4.1250   -3.7090 c3        1 59A     -0.100100
     20 H2          1.6090   -0.1370   -2.0040 h1        1 59A      0.149700
     21 H3         -0.5600   -1.1680   -1.3190 h1        1 59A      0.122700
     22 HN1        -0.0060   -0.5000    1.0650 hn        1 59A      0.338500
     23 H5         -1.2890    1.7710    0.2430 h1        1 59A      0.066700
     24 H10        -1.6640    0.4000    2.3250 hc        1 59A      0.026700
     25 H121       -2.7010    2.6050    1.5270 hc        1 59A      0.063200
     26 H122       -1.9860    3.1390    2.8620 hc        1 59A      0.063200
     27 H111       -0.5740    1.1540    4.1890 hc        1 59A      0.031367
     28 H112        0.5870    0.9760    3.0950 hc        1 59A      0.031367
     29 H113        0.0030    2.4350    3.4120 hc        1 59A      0.031367
     30 H131       -4.2340    2.4270    3.3110 hc        1 59A      0.016367
     31 H132       -3.8350    0.9460    2.8380 hc        1 59A      0.016367
     32 H133       -3.1750    1.5700    4.1600 hc        1 59A      0.016367
     33 H81         2.4360   -2.1770   -4.2320 h1        1 59A      0.048700
     34 H82         1.1540   -3.1380   -4.1420 h1        1 59A      0.048700
     35 H91         2.5870   -4.7850   -3.0670 hc        1 59A      0.045367
     36 H92         3.8370   -3.8520   -3.4460 hc        1 59A      0.045367
     37 H93         2.9550   -4.5250   -4.6080 hc        1 59A      0.045367
@<TRIPOS>BOND
     1    1    2 1   
     2    1    3 1   
     3    1   15 1   
     4    1   20 1   
     5    2    3 1   
     6    3    4 1   
     7    3   21 1   
     8    4    5 2   
     9    4    6 1   
    10    6    7 1   
    11    6   22 1   
    12    7    8 1   
    13    7   10 1   
    14    7   23 1   
    15    8    9 1   
    16    8   14 1   
    17   10   11 1   
    18   10   12 1   
    19   10   24 1   
    20   11   13 1   
    21   11   25 1   
    22   11   26 1   
    23   12   27 1   
    24   12   28 1   
    25   12   29 1   
    26   13   30 1   
    27   13   31 1   
    28   13   32 1   
    29   15   16 2   
    30   15   17 1   
    31   17   18 1   
    32   18   19 1   
    33   18   33 1   
    34   18   34 1   
    35   19   35 1   
    36   19   36 1   
    37   19   37 1   
@<TRIPOS>SUBSTRUCTURE
     1 59A         1 TEMP              0 ****  ****    0 ROOT
