@<TRIPOS>MOLECULE
59A
   38    38     1     0     0
SMALL
bcc


@<TRIPOS>ATOM
      1 C2         -1.6780   -0.1260    1.0130 cx        1 59A      0.032100
      2 O1         -0.4160   -0.2630    1.6830 os        1 59A     -0.326600
      3 C3         -1.4290    0.4830    2.3600 cx        1 59A     -0.018900
      4 C4         -1.9440   -0.0760    3.6470 c         1 59A      0.558100
      5 O4         -1.9530    0.5560    4.7010 o         1 59A     -0.448100
      6 N1         -2.5320   -1.4310    3.6700 n4        1 59A     -0.671800
      7 C5         -1.5380   -2.5500    3.4550 c3        1 59A     -0.045500
      8 C6         -2.0470   -3.4320    2.2180 c         1 59A      0.932600
      9 O5         -1.4480   -4.4920    1.9930 o         1 59A     -0.758300
     10 C10        -1.3200   -3.3610    4.7370 c3        1 59A     -0.053700
     11 C12        -0.0370   -4.1720    4.5880 c3        1 59A     -0.081400
     12 C11        -2.5080   -4.2530    5.0290 c3        1 59A     -0.104100
     13 C13         0.4090   -4.7780    5.8940 c3        1 59A     -0.092100
     14 OA         -3.0030   -2.9110    1.5660 o         1 59A     -0.758300
     15 C7         -1.6980    0.7690   -0.1820 c         1 59A      0.635100
     16 O2         -2.2380    0.5390   -1.2620 o         1 59A     -0.486000
     17 O3         -1.0610    1.9590    0.0120 os        1 59A     -0.445900
     18 C8         -1.0090    2.8500   -1.1220 c3        1 59A      0.140400
     19 C9         -0.2160    4.0530   -0.6740 c3        1 59A     -0.103100
     20 H2         -2.2350   -1.0890    0.8580 h1        1 59A      0.201700
     21 H3         -1.2120    1.5740    2.4500 h1        1 59A      0.159700
     22 HN1        -3.2250   -1.5280    2.8760 hn        1 59A      0.470800
     23 H5         -0.5640   -2.0910    3.1230 hx        1 59A      0.104700
     24 H10        -1.1770   -2.6520    5.6040 hc        1 59A      0.030700
     25 H121        0.7770   -3.5020    4.2000 hc        1 59A      0.070700
     26 H122       -0.2020   -4.9740    3.8170 hc        1 59A      0.070700
     27 H111       -2.6730   -4.9630    4.1790 hc        1 59A      0.047033
     28 H112       -3.4380   -3.6530    5.1780 hc        1 59A      0.047033
     29 H113       -2.3260   -4.8440    5.9590 hc        1 59A      0.047033
     30 H131        0.5120   -3.9980    6.6860 hc        1 59A      0.034367
     31 H132       -0.3200   -5.5460    6.2500 hc        1 59A      0.034367
     32 H133        1.4000   -5.2760    5.7580 hc        1 59A      0.034367
     33 H81        -2.0590    3.1180   -1.4100 h1        1 59A      0.058700
     34 H82        -0.5170    2.3130   -1.9750 h1        1 59A      0.058700
     35 H91         0.8090    3.7500   -0.3540 hc        1 59A      0.051700
     36 H92        -0.1370    4.7700   -1.5260 hc        1 59A      0.051700
     37 H93        -0.7180    4.5590    0.1840 hc        1 59A      0.051700
     38 H12        -3.0220   -1.5810    4.5580 hn        1 59A      0.470800
@<TRIPOS>BOND
     1    1    2 1   
     2    1    3 1   
     3    1   15 1   
     4    1   20 1   
     5    2    3 1   
     6    3    4 1   
     7    3   21 1   
     8    4    5 2   
     9    4    6 1   
    10    6    7 1   
    11    6   22 1   
    12    6   38 1   
    13    7    8 1   
    14    7   10 1   
    15    7   23 1   
    16    8    9 1   
    17    8   14 1   
    18   10   11 1   
    19   10   12 1   
    20   10   24 1   
    21   11   13 1   
    22   11   25 1   
    23   11   26 1   
    24   12   27 1   
    25   12   28 1   
    26   12   29 1   
    27   13   30 1   
    28   13   31 1   
    29   13   32 1   
    30   15   16 2   
    31   15   17 1   
    32   17   18 1   
    33   18   19 1   
    34   18   33 1   
    35   18   34 1   
    36   19   35 1   
    37   19   36 1   
    38   19   37 1   
@<TRIPOS>SUBSTRUCTURE
     1 59A         1 TEMP              0 ****  ****    0 ROOT
