@<TRIPOS>MOLECULE
59D
   65    69     1     0     0
SMALL
bcc


@<TRIPOS>ATOM
      1 N1          0.6250   -0.4550    0.4370 na        1 59D     -0.150100
      2 C13         0.7190    7.4030   -6.2150 ca        1 59D     -0.170000
      3 C15        -0.3010    6.4010   -8.1950 ca        1 59D     -0.170000
      4 C17         1.2600    1.9640   -4.4330 cc        1 59D     -0.106600
      5 C20         2.5630    0.1290   -3.4550 c3        1 59D      0.077000
      6 C21         0.3380    0.5370   -2.5340 c3        1 59D      0.146300
      7 C22         0.1980    1.5490   -3.6040 cd        1 59D     -0.223600
      8 C24         1.6280    0.4900    0.1900 cc        1 59D     -0.203900
      9 C26         1.0120    0.6470    2.3840 cd        1 59D     -0.216000
     10 C01        -7.6180    6.5700   -3.8280 c3        1 59D     -0.088100
     11 C02        -7.6550    5.2060   -4.5000 c3        1 59D      0.186400
     12 O01        -9.0210    4.8050   -4.5160 oh        1 59D     -0.598800
     13 C03        -6.7840    4.2170   -3.7760 ca        1 59D     -0.102300
     14 C04        -7.3060    3.4360   -2.7410 ca        1 59D     -0.147000
     15 C05        -6.4800    2.5310   -2.0810 ca        1 59D     -0.106000
     16 C06        -5.1400    2.3910   -2.4310 ca        1 59D     -0.153000
     17 C07        -4.5990    3.1730   -3.4730 ca        1 59D      0.071600
     18 N01        -3.2570    3.0970   -3.8840 n         1 59D     -0.457100
     19 O02        -2.5040    1.3530   -2.5530 o         1 59D     -0.604100
     20 C09        -0.9370    2.3300   -4.0260 cd        1 59D      0.256800
     21 N02        -0.5610    3.1700   -5.0430 nc        1 59D     -0.487800
     22 N03         0.7350    2.9580   -5.2770 na        1 59D      0.125400
     23 C11         0.9560    5.0310   -6.6430 ca        1 59D     -0.123300
     24 C12         1.2080    6.1540   -5.8470 ca        1 59D     -0.076000
     25 C14        -0.0390    7.5290   -7.3950 ca        1 59D      0.141900
     26 F          -0.5180    8.7410   -7.7610 f         1 59D     -0.135900
     27 C16         0.1960    5.1600   -7.8090 ca        1 59D     -0.076000
     28 C18         2.6290    1.4090   -4.3300 c3        1 59D     -0.026400
     29 C19         3.2460    1.0490   -5.6630 c3        1 59D     -0.094100
     30 N04         1.7280    0.1870   -2.2710 n         1 59D     -0.453800
     31 C23         2.3370    0.6730   -1.0850 c         1 59D      0.687700
     32 O1          3.4840    1.1580   -1.1100 o         1 59D     -0.581100
     33 C25         1.8880    1.1820    1.3920 cd        1 59D     -0.109000
     34 C27         0.2490   -0.3610    1.7640 cc        1 59D     -0.128300
     35 C1         -5.4460    4.0900   -4.1430 ca        1 59D     -0.174000
     36 H1          0.2530   -1.0740   -0.2360 hn        1 59D      0.306700
     37 H2          1.6170    3.0460   -7.1750 h1        1 59D      0.070200
     38 H3          2.5460    3.8440   -5.8070 h1        1 59D      0.070200
     39 H4          0.9130    8.2900   -5.5940 ha        1 59D      0.154000
     40 H5         -0.8960    6.5100   -9.1120 ha        1 59D      0.154000
     41 H6          2.1570   -0.7090   -4.0910 h1        1 59D      0.069200
     42 H7          3.6150   -0.1260   -3.1430 h1        1 59D      0.069200
     43 H8         -0.1980   -0.4070   -2.8470 h1        1 59D      0.081200
     44 H9         -0.1730    0.9310   -1.6080 h1        1 59D      0.081200
     45 H10         0.9440    0.9560    3.4220 ha        1 59D      0.158000
     46 H12        -7.9740    6.4910   -2.7730 hc        1 59D      0.047700
     47 H13        -8.2840    7.2770   -4.3760 hc        1 59D      0.047700
     48 H14        -7.3000    5.3000   -5.5680 h1        1 59D      0.035700
     49 H15        -9.0430    3.8940   -4.8330 ho        1 59D      0.404000
     50 H16        -8.3630    3.5480   -2.4550 ha        1 59D      0.146000
     51 H17        -6.8870    1.9150   -1.2640 ha        1 59D      0.135000
     52 H18        -4.5140    1.6660   -1.8850 ha        1 59D      0.172000
     53 H19        -2.9950    3.7490   -4.5920 hn        1 59D      0.333500
     54 H20         1.7950    6.0520   -4.9220 ha        1 59D      0.143000
     55 H21        -0.0160    4.2750   -8.4290 ha        1 59D      0.143000
     56 H22         3.2840    2.1640   -3.8050 hc        1 59D      0.083700
     57 H23         2.5460    0.4250   -6.2710 hc        1 59D      0.042700
     58 H24         3.5020    1.9660   -6.2460 hc        1 59D      0.042700
     59 H25         4.1860    0.4680   -5.4980 hc        1 59D      0.042700
     60 H26         2.6270    1.9690    1.5180 ha        1 59D      0.167000
     61 H27        -0.5240   -1.0070    2.1830 h4        1 59D      0.170000
     62 H28        -5.0550    4.7160   -4.9600 ha        1 59D      0.132000
     63 C10         1.5200    3.7000   -6.2580 c3        1 59D      0.105600
     64 C08        -2.2910    2.2160   -3.4280 c         1 59D      0.614600
     65 H11        -6.5730    6.9600   -3.8350 hc        1 59D      0.047700
@<TRIPOS>BOND
     1    1    8 1   
     2    1   34 1   
     3    1   36 1   
     4    2   24 ar  
     5    2   25 ar  
     6    2   39 1   
     7    3   25 ar  
     8    3   27 ar  
     9    3   40 1   
    10    4    7 2   
    11    4   22 1   
    12    4   28 1   
    13    5   28 1   
    14    5   30 1   
    15    5   41 1   
    16    5   42 1   
    17    6    7 1   
    18    6   30 1   
    19    6   43 1   
    20    6   44 1   
    21    7   20 1   
    22    8   31 1   
    23    8   33 2   
    24    9   33 1   
    25    9   34 2   
    26    9   45 1   
    27   10   11 1   
    28   10   46 1   
    29   10   47 1   
    30   10   65 1   
    31   11   12 1   
    32   11   13 1   
    33   11   48 1   
    34   12   49 1   
    35   13   14 ar  
    36   13   35 ar  
    37   14   15 ar  
    38   14   50 1   
    39   15   16 ar  
    40   15   51 1   
    41   16   17 ar  
    42   16   52 1   
    43   17   18 1   
    44   17   35 ar  
    45   18   53 1   
    46   18   64 1   
    47   19   64 2   
    48   20   21 2   
    49   20   64 1   
    50   21   22 1   
    51   22   63 1   
    52   23   24 ar  
    53   23   27 ar  
    54   23   63 1   
    55   24   54 1   
    56   25   26 1   
    57   27   55 1   
    58   28   29 1   
    59   28   56 1   
    60   29   57 1   
    61   29   58 1   
    62   29   59 1   
    63   30   31 1   
    64   31   32 2   
    65   33   60 1   
    66   34   61 1   
    67   35   62 1   
    68   37   63 1   
    69   38   63 1   
@<TRIPOS>SUBSTRUCTURE
     1 59D         1 TEMP              0 ****  ****    0 ROOT
