@<TRIPOS>MOLECULE
59D
   65    63     1     0     0
SMALL
bcc


@<TRIPOS>ATOM
      1 N1          0.4340   -1.4160   -0.0740 n8        1 59D     -0.318000
      2 C13         1.3540    8.6640   -6.3480 c1        1 59D     -0.145000
      3 C15        -0.3160    7.4260   -7.6270 c1        1 59D     -0.048000
      4 C17         1.0910    1.9460   -4.4590 c2        1 59D      0.116000
      5 C20         2.6020   -2.1310   -3.4930 c1        1 59D     -0.109000
      6 C21        -0.0460    0.3870   -2.8530 c1        1 59D     -0.146000
      7 C22        -0.0220    1.5000   -3.6570 c2        1 59D     -0.230000
      8 C24         1.7660   -1.0090   -0.0690 c2        1 59D     -0.032000
      9 C26         1.6730    0.2010    2.0940 c2        1 59D     -0.442000
     10 C01        -9.7980    5.0540   -5.2820 c3        1 59D     -0.278000
     11 C02        -7.7060    2.0990   -2.8370 c1        1 59D      0.073000
     12 O01        -8.8120    2.2690   -3.4760 oh        1 59D     -0.149000
     13 C03        -6.6890    3.1510   -2.7690 c2        1 59D     -0.239000
     14 C04        -7.1350    4.5960   -2.8260 c3        1 59D     -0.143000
     15 C05        -6.1160    5.4570   -2.1390 c2        1 59D     -0.065000
     16 C06        -4.8750    5.0360   -2.3180 c1        1 59D     -0.249000
     17 C07        -4.3700    3.8510   -2.7250 c2        1 59D      0.084000
     18 N01        -3.1170    3.6700   -3.2950 ns        1 59D     -0.283000
     19 O02        -2.9040    1.3930   -2.9400 o         1 59D     -0.326000
     20 C09        -1.0640    2.5030   -3.9470 c2        1 59D     -0.100000
     21 N02        -0.6030    3.4230   -4.8230 n2        1 59D     -0.070000
     22 N03         0.6660    3.0840   -5.1140 na        1 59D     -0.151000
     23 C11         1.4110    5.6740   -7.1440 c1        1 59D     -0.185000
     24 C12         2.1740    8.7310   -5.3510 c2        1 59D     -0.137000
     25 C14         0.4440    8.5970   -7.3200 c2        1 59D      0.072000
     26 F           0.0850    9.7300   -7.9920 f         1 59D     -0.087000
     27 C16         0.0710    6.0430   -7.5050 c3        1 59D     -0.097000
     28 C18         2.4270    1.3280   -4.5730 c3        1 59D     -0.140000
     29 C19         3.3370    1.9730   -5.5860 c3        1 59D     -0.229000
     30 N04         2.1300   -1.3890   -2.5130 ns        1 59D     -0.301000
     31 C23         2.6700   -1.4660   -1.1950 c2        1 59D      0.338000
     32 O1          3.8280   -1.8260   -0.9640 o         1 59D     -0.256000
     33 C25         2.3640   -0.3100    0.9340 c2        1 59D     -0.148000
     34 C27         1.8770    1.3540    2.6950 c1        1 59D      0.196000
     35 C1         -5.3900    2.7770   -2.6140 c2        1 59D     -0.017000
     36 H1          0.0220   -1.5300   -0.9760 hn        1 59D      0.192000
     37 H2          1.1920    3.6490   -5.7560 hn        1 59D      0.299000
     38 H3          3.5240    5.0650   -6.6280 ha        1 59D      0.227000
     39 H4          3.2670    8.6720   -5.4860 ha        1 59D      0.152000
     40 H5         -0.1760    5.5830   -8.5170 hc        1 59D      0.169000
     41 H6          2.2790    0.2390   -4.8310 hc        1 59D      0.142500
     42 H7          2.0660   -1.9580   -4.4590 ha        1 59D      0.010000
     43 H8          1.3330   -0.7200   -2.6170 hn        1 59D      0.257000
     44 H9         -0.9670    0.1590   -2.2990 ha        1 59D      0.101000
     45 H10         0.9110   -0.4740    2.5480 ha        1 59D      0.194000
     46 H12        -8.8330    4.8010   -5.7760 hc        1 59D      0.070500
     47 H13        -9.6100    5.3490   -4.2260 hc        1 59D      0.070500
     48 H14       -10.4730    4.1710   -5.3090 hc        1 59D      0.070500
     49 H15        -8.9430    3.1340   -3.9310 ho        1 59D      0.161000
     50 H16        -7.3100    4.8850   -3.8980 hc        1 59D      0.112500
     51 H17        -8.1100    4.7120   -2.2790 hc        1 59D      0.112500
     52 H18        -6.4390    6.2630   -1.4740 ha        1 59D      0.157000
     53 H19        -2.6640    4.5040   -3.6060 hn        1 59D      0.257000
     54 H20         1.8330    8.8480   -4.3090 ha        1 59D      0.152000
     55 H21        -0.6660    5.5790   -6.7740 hc        1 59D      0.169000
     56 H22         2.9040    1.3540   -3.5520 hc        1 59D      0.142500
     57 H23         3.5330    3.0440   -5.3350 hc        1 59D      0.088667
     58 H24         4.3170    1.4330   -5.5980 hc        1 59D      0.088667
     59 H25         2.9000    1.9210   -6.6130 hc        1 59D      0.088667
     60 H26         3.4530   -0.1390    0.8920 ha        1 59D      0.157000
     61 H27        -0.1490   -0.9040    0.5520 hn        1 59D      0.192000
     62 H28        -5.0770    1.7250   -2.5180 ha        1 59D      0.191000
     63 C10         2.5250    5.3370   -6.8610 c1        1 59D     -0.235000
     64 C08        -2.4320    2.4660   -3.3560 c2        1 59D      0.381000
     65 H11       -10.2760    5.9010   -5.8210 hc        1 59D      0.070500
@<TRIPOS>BOND
     1    1    8 1   
     2    1   36 1   
     3    1   61 1   
     4    2   24 1   
     5    2   25 1   
     6    3   25 1   
     7    3   27 1   
     8    4    7 1   
     9    4   22 1   
    10    4   28 1   
    11    5   30 1   
    12    5   42 1   
    13    6    7 1   
    14    6   44 1   
    15    7   20 1   
    16    8   31 1   
    17    8   33 1   
    18    9   33 1   
    19    9   34 1   
    20    9   45 1   
    21   10   46 1   
    22   10   47 1   
    23   10   48 1   
    24   10   65 1   
    25   11   12 1   
    26   11   13 1   
    27   12   49 1   
    28   13   14 1   
    29   13   35 1   
    30   14   15 1   
    31   14   50 1   
    32   14   51 1   
    33   15   16 1   
    34   15   52 1   
    35   16   17 1   
    36   17   18 1   
    37   17   35 1   
    38   18   53 1   
    39   18   64 1   
    40   19   64 1   
    41   20   21 1   
    42   20   64 1   
    43   21   22 1   
    44   22   37 1   
    45   23   27 1   
    46   23   63 1   
    47   24   39 1   
    48   24   54 1   
    49   25   26 1   
    50   27   40 1   
    51   27   55 1   
    52   28   29 1   
    53   28   41 1   
    54   28   56 1   
    55   29   57 1   
    56   29   58 1   
    57   29   59 1   
    58   30   31 1   
    59   30   43 1   
    60   31   32 1   
    61   33   60 1   
    62   35   62 1   
    63   38   63 1   
@<TRIPOS>SUBSTRUCTURE
     1 59D         1 TEMP              0 ****  ****    0 ROOT
