@<TRIPOS>MOLECULE
59E
   52    56     1     0     0
SMALL
bcc


@<TRIPOS>ATOM
      1 CAW         0.0110    0.2580    0.4020 c3        1 59E      0.124700
      2 OAU         1.4350    0.3470    0.4730 os        1 59E     -0.441900
      3 CAT         2.0560   -0.4620    1.3870 c         1 59E      0.634100
      4 OAV         1.3590   -1.2130    2.0710 o         1 59E     -0.527000
      5 CAS         3.5440   -0.3090    1.3800 c3        1 59E     -0.141400
      6 CAI         4.0570    0.0550    2.7840 c3        1 59E      0.111200
      7 NAH         3.6430    1.3450    3.2830 n2        1 59E     -0.565900
      8 CAJ         5.5510   -0.1230    2.8110 cc        1 59E      0.341800
      9 NAN         6.2630   -1.1140    3.4240 nd        1 59E     -0.324000
     10 NAO         7.5490   -0.8730    3.2950 nd        1 59E     -0.348000
     11 CAP         7.7390    0.2890    2.5940 cc        1 59E      0.375800
     12 CAR         9.0390    0.9190    2.2720 c3        1 59E     -0.124400
     13 NAK         6.4640    0.8050    2.2600 na        1 59E     -0.255800
     14 CAE         6.1500    1.9100    1.4460 ca        1 59E     -0.016200
     15 CAF         6.9630    2.2090    0.3330 ca        1 59E     -0.109000
     16 CAA         6.6800    3.2880   -0.4950 ca        1 59E     -0.181000
     17 CAB         5.5640    4.0870   -0.2250 ca        1 59E      0.126100
     18 OAL         5.1770    5.1770   -0.9760 os        1 59E     -0.317900
     19 CAM         5.9930    5.4870   -2.1010 c3        1 59E      0.110700
     20 CAC         4.7370    3.8030    0.8740 ca        1 59E     -0.112000
     21 CAD         5.0180    2.7230    1.7120 ca        1 59E     -0.145900
     22 CAG         4.0890    2.4730    2.8450 ce        1 59E      0.546500
     23 CAQ         3.6050    3.7180    3.5040 ca        1 59E     -0.093900
     24 CBB         4.4110    4.3930    4.4280 ca        1 59E     -0.069800
     25 CBE         5.7270    4.1730    4.9820 cc        1 59E     -0.183200
     26 CBD         5.9750    5.2090    5.8780 cd        1 59E     -0.102100
     27 NBC         4.8890    6.0880    5.9100 na        1 59E     -0.194400
     28 CBA         3.9060    5.6040    5.0430 ca        1 59E     -0.048200
     29 CAZ         2.6310    6.1020    4.7350 ca        1 59E     -0.133000
     30 CAY         1.8650    5.3930    3.8240 ca        1 59E     -0.117000
     31 CAX         2.3380    4.2150    3.2190 ca        1 59E     -0.132000
     32 H1         -0.4370    0.5270    1.3880 h1        1 59E      0.051700
     33 H2         -0.2610    0.9980   -0.3900 h1        1 59E      0.051700
     34 H3         -0.2910   -0.7780    0.1150 h1        1 59E      0.051700
     35 H4          3.8510    0.4650    0.6280 hc        1 59E      0.091700
     36 H5          3.9860   -1.2970    1.0810 hc        1 59E      0.091700
     37 H6          3.6040   -0.6880    3.5190 h1        1 59E      0.133700
     38 H7          9.4420    0.4890    1.3190 hc        1 59E      0.063700
     39 H8          9.7720    0.7090    3.0920 hc        1 59E      0.063700
     40 H9          8.9340    2.0260    2.1580 hc        1 59E      0.063700
     41 H10         7.8360    1.5760    0.0980 ha        1 59E      0.149000
     42 H11         7.3340    3.4960   -1.3540 ha        1 59E      0.147000
     43 H12         5.9970    4.6410   -2.8300 h1        1 59E      0.048367
     44 H13         7.0330    5.7330   -1.7780 h1        1 59E      0.048367
     45 H14         5.4920    6.3870   -2.5420 h1        1 59E      0.048367
     46 H15         3.8620    4.4450    1.0710 ha        1 59E      0.173000
     47 H16         6.3880    3.3440    4.7470 ha        1 59E      0.162000
     48 H17         6.8540    5.3940    6.4980 h4        1 59E      0.167000
     49 H18         4.7880    6.8620    6.5090 hn        1 59E      0.299700
     50 H19         2.2520    7.0200    5.2040 ha        1 59E      0.134000
     51 H20         0.8570    5.7520    3.5670 ha        1 59E      0.134000
     52 H21         1.6870    3.6770    2.5140 ha        1 59E      0.140000
@<TRIPOS>BOND
     1    1    2 1   
     2    1   32 1   
     3    1   33 1   
     4    1   34 1   
     5    2    3 1   
     6    3    4 2   
     7    3    5 1   
     8    5    6 1   
     9    5   35 1   
    10    5   36 1   
    11    6    7 1   
    12    6    8 1   
    13    6   37 1   
    14    7   22 2   
    15    8    9 2   
    16    8   13 1   
    17    9   10 1   
    18   10   11 2   
    19   11   12 1   
    20   11   13 1   
    21   12   38 1   
    22   12   39 1   
    23   12   40 1   
    24   13   14 1   
    25   14   15 ar  
    26   14   21 ar  
    27   15   16 ar  
    28   15   41 1   
    29   16   17 ar  
    30   16   42 1   
    31   17   18 1   
    32   17   20 ar  
    33   18   19 1   
    34   19   43 1   
    35   19   44 1   
    36   19   45 1   
    37   20   21 ar  
    38   20   46 1   
    39   21   22 1   
    40   22   23 1   
    41   23   24 ar  
    42   23   31 ar  
    43   24   25 1   
    44   24   28 ar  
    45   25   26 2   
    46   25   47 1   
    47   26   27 1   
    48   26   48 1   
    49   27   28 1   
    50   27   49 1   
    51   28   29 ar  
    52   29   30 ar  
    53   29   50 1   
    54   30   31 ar  
    55   30   51 1   
    56   31   52 1   
@<TRIPOS>SUBSTRUCTURE
     1 59E         1 TEMP              0 ****  ****    0 ROOT
