@<TRIPOS>MOLECULE
59E
   52    56     1     0     0
SMALL
bcc


@<TRIPOS>ATOM
      1 CAW         0.0160    0.2530    0.3960 c3        1 59E      0.124700
      2 OAU         1.4400    0.3450    0.4660 os        1 59E     -0.441900
      3 CAT         2.0630   -0.4650    1.3770 c         1 59E      0.634100
      4 OAV         1.3700   -1.2210    2.0570 o         1 59E     -0.527000
      5 CAS         3.5510   -0.3090    1.3690 c3        1 59E     -0.141400
      6 CAI         4.0650    0.0510    2.7740 c3        1 59E      0.111200
      7 NAH         3.6470    1.3370    3.2780 n2        1 59E     -0.565900
      8 CAJ         5.5590   -0.1240    2.7980 cc        1 59E      0.341800
      9 NAN         6.2740   -1.1150    3.4070 nd        1 59E     -0.324000
     10 NAO         7.5600   -0.8700    3.2770 nd        1 59E     -0.348000
     11 CAP         7.7460    0.2960    2.5810 cc        1 59E      0.375800
     12 CAR         9.0440    0.9300    2.2600 c3        1 59E     -0.124400
     13 NAK         6.4690    0.8090    2.2510 na        1 59E     -0.255800
     14 CAE         6.1520    1.9160    1.4420 ca        1 59E     -0.016200
     15 CAF         6.9630    2.2220    0.3290 ca        1 59E     -0.109000
     16 CAA         6.6760    3.3040   -0.4940 ca        1 59E     -0.181000
     17 CAB         5.5570    4.0990   -0.2200 ca        1 59E      0.126100
     18 OAL         5.1670    5.1910   -0.9660 os        1 59E     -0.317900
     19 CAM         5.9800    5.5080   -2.0910 c3        1 59E      0.110700
     20 CAC         4.7320    3.8080    0.8790 ca        1 59E     -0.112000
     21 CAD         5.0180    2.7260    1.7120 ca        1 59E     -0.145900
     22 CAG         4.0900    2.4680    2.8450 ce        1 59E      0.546500
     23 CAQ         3.6040    3.7100    3.5100 ca        1 59E     -0.093900
     24 CBB         4.4080    4.3820    4.4360 ca        1 59E     -0.069800
     25 CBE         5.7250    4.1620    4.9890 cc        1 59E     -0.183200
     26 CBD         5.9710    5.1940    5.8890 cd        1 59E     -0.102100
     27 NBC         4.8830    6.0710    5.9260 na        1 59E     -0.194400
     28 CBA         3.9010    5.5890    5.0570 ca        1 59E     -0.048200
     29 CAZ         2.6250    6.0860    4.7510 ca        1 59E     -0.133000
     30 CAY         1.8600    5.3790    3.8370 ca        1 59E     -0.117000
     31 CAX         2.3350    4.2050    3.2270 ca        1 59E     -0.132000
     32 H1         -0.2840   -0.7820    0.1050 h1        1 59E      0.051700
     33 H2         -0.4310    0.5180    1.3840 h1        1 59E      0.051700
     34 H3         -0.2590    0.9960   -0.3930 h1        1 59E      0.051700
     35 H4          3.9960   -1.2940    1.0650 hc        1 59E      0.091700
     36 H5          3.8560    0.4690    0.6200 hc        1 59E      0.091700
     37 H6          3.6140   -0.6970    3.5060 h1        1 59E      0.133700
     38 H7          9.4470    0.5060    1.3060 hc        1 59E      0.063700
     39 H8          8.9360    2.0370    2.1510 hc        1 59E      0.063700
     40 H9          9.7780    0.7180    3.0790 hc        1 59E      0.063700
     41 H10         7.8370    1.5930    0.0910 ha        1 59E      0.149000
     42 H11         7.3280    3.5180   -1.3530 ha        1 59E      0.147000
     43 H12         7.0210    5.7550   -1.7680 h1        1 59E      0.048367
     44 H13         5.9850    4.6640   -2.8240 h1        1 59E      0.048367
     45 H14         5.4770    6.4080   -2.5270 h1        1 59E      0.048367
     46 H15         3.8560    4.4470    1.0790 ha        1 59E      0.173000
     47 H16         6.3870    3.3350    4.7500 ha        1 59E      0.162000
     48 H17         6.8500    5.3780    6.5110 h4        1 59E      0.167000
     49 H18         4.7800    6.8420    6.5290 hn        1 59E      0.299700
     50 H19         2.2440    7.0000    5.2250 ha        1 59E      0.134000
     51 H20         0.8510    5.7370    3.5830 ha        1 59E      0.134000
     52 H21         1.6850    3.6690    2.5190 ha        1 59E      0.140000
@<TRIPOS>BOND
     1    1    2 1   
     2    1   32 1   
     3    1   33 1   
     4    1   34 1   
     5    2    3 1   
     6    3    4 2   
     7    3    5 1   
     8    5    6 1   
     9    5   35 1   
    10    5   36 1   
    11    6    7 1   
    12    6    8 1   
    13    6   37 1   
    14    7   22 2   
    15    8    9 2   
    16    8   13 1   
    17    9   10 1   
    18   10   11 2   
    19   11   12 1   
    20   11   13 1   
    21   12   38 1   
    22   12   39 1   
    23   12   40 1   
    24   13   14 1   
    25   14   15 ar  
    26   14   21 ar  
    27   15   16 ar  
    28   15   41 1   
    29   16   17 ar  
    30   16   42 1   
    31   17   18 1   
    32   17   20 ar  
    33   18   19 1   
    34   19   43 1   
    35   19   44 1   
    36   19   45 1   
    37   20   21 ar  
    38   20   46 1   
    39   21   22 1   
    40   22   23 1   
    41   23   24 ar  
    42   23   31 ar  
    43   24   25 1   
    44   24   28 ar  
    45   25   26 2   
    46   25   47 1   
    47   26   27 1   
    48   26   48 1   
    49   27   28 1   
    50   27   49 1   
    51   28   29 ar  
    52   29   30 ar  
    53   29   50 1   
    54   30   31 ar  
    55   30   51 1   
    56   31   52 1   
@<TRIPOS>SUBSTRUCTURE
     1 59E         1 TEMP              0 ****  ****    0 ROOT
