@<TRIPOS>MOLECULE
59G
   56    46     1     0     0
SMALL
bcc


@<TRIPOS>ATOM
      1 C13        -1.7180    1.4100   -0.6260 c1        1 59G     -0.107750
      2 C15        -1.8870   -0.9860   -0.5830 c1        1 59G     -0.118000
      3 C17        -3.8800    0.3570   -0.6510 c1        1 59G     -0.100250
      4 C20        -6.6800    0.3550   -0.7120 c1        1 59G     -0.100250
      5 C21        -8.2420    0.3070   -1.0840 c1        1 59G     -0.103000
      6 C22        -8.3660    0.2750   -2.5230 c1        1 59G     -0.352000
      7 C24        -5.9260    0.3490   -1.9290 c1        1 59G     -0.100250
      8 C26        -9.4680    0.5020   -0.2150 c1        1 59G      0.377000
      9 C01         4.6920    3.3350    1.9460 c3        1 59G     -0.207500
     10 C02         4.1040    2.6690    0.7210 c3        1 59G     -0.052000
     11 C03         4.5570    3.4060   -0.5190 c3        1 59G     -0.207500
     12 C04         4.5730    1.2350    0.6530 c2        1 59G      0.012000
     13 O05         5.8610    0.8200    0.6270 os        1 59G     -0.064000
     14 N06         5.8650   -0.5700    0.6200 n2        1 59G      0.000000
     15 C07         4.5830   -0.9920    0.6430 c2        1 59G     -0.076000
     16 C08         3.7680    0.1220    0.6640 c1        1 59G     -0.162000
     17 C09         2.2530    0.1170    0.7860 c2        1 59G      0.050000
     18 O10         1.6770   -0.0310   -0.4950 os        1 59G     -0.236000
     19 C11         0.2700    0.0680   -0.5040 c2        1 59G      0.022000
     20 C12        -0.3370    1.3130   -0.5590 c1        1 59G     -0.138000
     21 C14        -2.4940    0.2600   -0.6380 c1        1 59G     -0.100250
     22 C16        -0.5050   -1.0820   -0.5160 c2        1 59G     -0.154000
     23 C18        -4.6240    0.3630    0.5500 c1        1 59G     -0.107750
     24 C19        -6.0240    0.3610    0.5080 c1        1 59G     -0.107750
     25 S23        -6.9400    0.2990   -3.1230 s         1 59G      0.346000
     26 C25        -4.5400    0.3510   -1.8840 c1        1 59G     -0.107750
     27 O27       -10.0890   -0.4980    0.2290 o         1 59G     -0.559500
     28 O28        -9.8530    1.6660    0.0820 o         1 59G     -0.559500
     29 C29         4.1590   -2.3090    0.6080 c1        1 59G     -0.007000
     30 C30         4.0200   -2.9580   -0.6090 c1        1 59G     -0.034000
     31 CL31        4.3050   -2.0920   -2.0950 cl        1 59G      0.011000
     32 C32         3.7180   -4.3100   -0.6420 c1        1 59G     -0.130000
     33 C33         3.5550   -5.0130    0.5400 c1        1 59G     -0.118000
     34 C34         3.6940   -4.3650    1.7570 c1        1 59G     -0.118000
     35 C35         3.9960   -3.0130    1.7910 c1        1 59G     -0.032000
     36 CL36        4.2330   -2.2120    3.3210 cl        1 59G      0.008000
     37 H13        -2.1460    2.2870   -0.6650 ha        1 59G      0.145250
     38 H15        -2.4310   -1.7950   -0.6190 ha        1 59G      0.141000
     39 H22        -9.2010    0.1850   -3.0270 DU        1 59G      0.180000
     40 H01         4.4160    2.8440    2.7480 hc        1 59G      0.081500
     41 H01A        5.6710    3.3330    1.8810 hc        1 59G      0.081500
     42 H01B        4.3710    4.2570    2.0020 hc        1 59G      0.081500
     43 H02         3.1300    2.6910    0.7740 hc        1 59G      0.140000
     44 H03         4.1150    4.2820   -0.5590 hc        1 59G      0.081500
     45 H03A        4.3210    2.8850   -1.3120 hc        1 59G      0.081500
     46 H03B        5.5290    3.5310   -0.4880 hc        1 59G      0.081500
     47 H09         1.9750   -0.6270    1.3570 h4        1 59G      0.092500
     48 H09A        1.9550    0.9620    1.1820 h4        1 59G      0.092500
     49 H12         0.2090    2.1220   -0.5510 ha        1 59G      0.137000
     50 H16        -0.0780   -1.9590   -0.5060 ha        1 59G      0.134000
     51 H18        -4.1610    0.3590    1.4120 ha        1 59G      0.145250
     52 H19        -6.5370    0.3650    1.3370 ha        1 59G      0.145250
     53 H25        -4.0260    0.3720   -2.7120 ha        1 59G      0.145250
     54 H32         3.6260   -4.7680   -1.4990 ha        1 59G      0.153000
     55 H33         3.3420   -5.9660    0.5160 ha        1 59G      0.148000
     56 H34         3.6090   -4.8670    2.5890 ha        1 59G      0.148000
@<TRIPOS>BOND
     1    1   21 1   
     2    1   37 1   
     3    2   22 1   
     4    2   38 1   
     5    3   23 1   
     6    4   24 1   
     7    5    6 1   
     8    6   25 1   
     9    7   26 1   
    10    8   27 1   
    11    8   28 1   
    12    9   10 1   
    13    9   40 1   
    14    9   41 1   
    15    9   42 1   
    16   10   11 1   
    17   10   12 1   
    18   10   43 1   
    19   11   44 1   
    20   11   45 1   
    21   11   46 1   
    22   12   13 1   
    23   12   16 1   
    24   13   14 1   
    25   14   15 1   
    26   15   16 1   
    27   15   29 1   
    28   17   18 1   
    29   17   47 1   
    30   17   48 1   
    31   18   19 1   
    32   19   20 1   
    33   19   22 1   
    34   20   49 1   
    35   22   50 1   
    36   23   51 1   
    37   24   52 1   
    38   26   53 1   
    39   29   35 1   
    40   30   31 1   
    41   30   32 1   
    42   32   54 1   
    43   33   34 1   
    44   33   55 1   
    45   34   56 1   
    46   35   36 1   
@<TRIPOS>SUBSTRUCTURE
     1 59G         1 TEMP              0 ****  ****    0 ROOT
