@<TRIPOS>MOLECULE
59G
   56    60     1     0     0
SMALL
bcc


@<TRIPOS>ATOM
      1 C13         1.7990   -1.7670   -0.8330 ca        1 59G     -0.099000
      2 C15         1.5710    0.1200    0.6580 ca        1 59G     -0.099000
      3 C17         3.8250   -0.4590   -0.2180 cp        1 59G     -0.067000
      4 C20         6.5800    0.0010   -0.4340 ca        1 59G     -0.039800
      5 C21         7.9970    0.2840   -0.3290 cc        1 59G     -0.109400
      6 C22         8.3360    0.6210    0.9480 cd        1 59G     -0.112400
      7 C24         5.9150    0.1480    0.8170 ca        1 59G     -0.070100
      8 C26         8.9800    0.2170   -1.4820 c         1 59G      0.926800
      9 C01        -4.6940   -4.2560    1.3740 c3        1 59G     -0.090600
     10 C03        -4.3530   -4.2400   -1.0990 c3        1 59G     -0.090600
     11 C04        -4.5550   -2.1230    0.1480 cc        1 59G      0.302000
     12 O05        -5.9380   -1.9240   -0.0980 os        1 59G     -0.119100
     13 N06        -6.2180   -0.6390   -0.1240 nc        1 59G     -0.335300
     14 C07        -5.0860    0.0640    0.0910 cd        1 59G      0.363800
     15 C08        -3.9720   -0.8760    0.2770 cd        1 59G     -0.301900
     16 C09        -2.5820   -0.4800    0.5640 c3        1 59G      0.207700
     17 C11        -0.3670   -1.1690    0.0390 ca        1 59G      0.098100
     18 C12         0.4320   -2.0050   -0.7590 ca        1 59G     -0.175500
     19 C14         2.3870   -0.7030   -0.1290 cp        1 59G     -0.025000
     20 C16         0.1990   -0.1050    0.7500 ca        1 59G     -0.175500
     21 C18         4.4890   -0.6060   -1.4560 ca        1 59G     -0.153000
     22 C19         5.8510   -0.3780   -1.5690 ca        1 59G     -0.067000
     23 S23         7.0140    0.6090    2.0240 ss        1 59G     -0.124500
     24 C25         4.5430   -0.0800    0.9170 ca        1 59G     -0.099000
     25 O27        10.1840    0.5010   -1.2330 o         1 59G     -0.825300
     26 O28         8.5510   -0.1170   -2.6230 o         1 59G     -0.825300
     27 C29        -4.9860    1.5180    0.1320 ca        1 59G     -0.116500
     28 C30        -4.6280    2.2440   -1.0160 ca        1 59G      0.045900
     29 CL31       -4.3330    1.4460   -2.4840 cl        1 59G     -0.066900
     30 C32        -4.5090    3.6370   -0.9700 ca        1 59G     -0.130500
     31 C33        -4.7550    4.3140    0.2220 ca        1 59G     -0.105000
     32 C34        -5.1210    3.6130    1.3690 ca        1 59G     -0.130500
     33 C35        -5.2390    2.2200    1.3220 ca        1 59G      0.045900
     34 CL36       -5.6910    1.3890    2.7330 cl        1 59G     -0.066900
     35 H13         2.4340   -2.4220   -1.4500 ha        1 59G      0.141500
     36 H15         2.0200    0.9600    1.2090 ha        1 59G      0.141500
     37 H22         9.3450    0.8770    1.2740 h4        1 59G      0.180000
     38 H01        -4.4420   -3.7500    2.3360 hc        1 59G      0.042867
     39 H01A       -5.8050   -4.2870    1.2670 hc        1 59G      0.042867
     40 H01B       -4.3060   -5.3020    1.4080 hc        1 59G      0.042867
     41 H02        -2.9490   -3.4660    0.3560 hc        1 59G      0.097700
     42 H03        -5.4520   -4.2700   -1.2970 hc        1 59G      0.042867
     43 H03A       -3.8500   -3.7200   -1.9490 hc        1 59G      0.042867
     44 H03B       -3.9680   -5.2860   -1.0400 hc        1 59G      0.042867
     45 H09        -2.3410    0.4920    0.0550 h1        1 59G      0.054700
     46 H09A       -2.4330   -0.3710    1.6750 h1        1 59G      0.054700
     47 H12        -0.0310   -2.8360   -1.3080 ha        1 59G      0.133500
     48 H16        -0.4190    0.5520    1.3760 ha        1 59G      0.133500
     49 H18         3.9090   -0.8960   -2.3430 ha        1 59G      0.119000
     50 H19         6.3980   -0.4820   -2.5260 ha        1 59G      0.197000
     51 H25         4.0340    0.0270    1.8850 ha        1 59G      0.119000
     52 H32        -4.2210    4.1960   -1.8740 ha        1 59G      0.152500
     53 H33        -4.6580    5.4100    0.2590 ha        1 59G      0.143000
     54 H34        -5.3180    4.1520    2.3080 ha        1 59G      0.152500
     55 O10        -1.7110   -1.5140    0.0860 os        1 59G     -0.340900
     56 C02        -4.0690   -3.5170    0.2050 c3        1 59G     -0.107000
@<TRIPOS>BOND
     1    1   18 ar  
     2    1   19 ar  
     3    1   35 1   
     4    2   19 ar  
     5    2   20 ar  
     6    2   36 1   
     7    3   19 1   
     8    3   21 ar  
     9    3   24 ar  
    10    4    5 1   
    11    4    7 ar  
    12    4   22 ar  
    13    5    6 2   
    14    5    8 1   
    15    6   23 1   
    16    6   37 1   
    17    7   23 1   
    18    7   24 ar  
    19    8   25 1   
    20    8   26 1   
    21    9   38 1   
    22    9   39 1   
    23    9   40 1   
    24    9   56 1   
    25   10   42 1   
    26   10   43 1   
    27   10   44 1   
    28   10   56 1   
    29   11   12 1   
    30   11   15 2   
    31   11   56 1   
    32   12   13 1   
    33   13   14 2   
    34   14   15 1   
    35   14   27 1   
    36   15   16 1   
    37   16   45 1   
    38   16   46 1   
    39   16   55 1   
    40   17   18 ar  
    41   17   20 ar  
    42   17   55 1   
    43   18   47 1   
    44   20   48 1   
    45   21   22 ar  
    46   21   49 1   
    47   22   50 1   
    48   24   51 1   
    49   27   28 ar  
    50   27   33 ar  
    51   28   29 1   
    52   28   30 ar  
    53   30   31 ar  
    54   30   52 1   
    55   31   32 ar  
    56   31   53 1   
    57   32   33 ar  
    58   32   54 1   
    59   33   34 1   
    60   41   56 1   
@<TRIPOS>SUBSTRUCTURE
     1 59G         1 TEMP              0 ****  ****    0 ROOT
