@<TRIPOS>MOLECULE
59K
   41    44     1     0     0
SMALL
bcc


@<TRIPOS>ATOM
      1 C4         -0.1070    0.6880   -0.4310 ca        1 59K      0.424600
      2 C5          1.2280    0.1810   -0.2860 ca        1 59K     -0.326400
      3 C6          1.6680   -0.1560    1.0410 ca        1 59K      0.690200
      4 N1          0.8250    0.0270    2.0910 nb        1 59K     -0.758000
      5 N3         -0.9450    0.8640    0.6270 nb        1 59K     -0.674000
      6 FAB         0.8790   -1.6090   -4.6530 f         1 59K     -0.237300
      7 CAZ         1.8780   -0.6720   -4.6350 c3        1 59K      0.628900
      8 FAC         2.9480   -1.3050   -4.0550 f         1 59K     -0.237300
      9 FAD         2.2400   -0.5310   -5.9530 f         1 59K     -0.237300
     10 CAS         1.1030    0.5680   -2.5720 cc        1 59K     -0.157600
     11 SAQ        -0.4390    1.0310   -2.0480 ss        1 59K      0.033100
     12 CAF         1.9070    0.1380   -1.5430 cd        1 59K     -0.065200
     13 C2         -0.4190    0.5300    1.8200 ca        1 59K      0.666900
     14 NAY         3.0100   -0.6020    1.2160 nh        1 59K     -0.722300
     15 CAJ         3.5820   -0.5130    2.5500 c3        1 59K      0.173800
     16 CAH         3.3110   -1.7260    3.4630 c3        1 59K      0.152800
     17 CAI         3.3190   -1.8810    0.5870 c3        1 59K      0.173800
     18 CAG         3.0580   -3.1230    1.4660 c3        1 59K      0.152800
     19 NAX         3.6250   -2.9880    2.8000 nh        1 59K     -0.708300
     20 CAT         3.5710   -4.1150    3.6200 cc        1 59K      0.595300
     21 SAP         4.2310   -4.1020    5.2410 ss        1 59K     -0.235800
     22 NAO         3.1400   -5.3670    3.2630 nd        1 59K     -0.378000
     23 NAN         3.3250   -6.2620    4.1860 nd        1 59K     -0.296000
     24 CAR         3.8850   -5.7900    5.3200 cc        1 59K      0.344700
     25 CAA         4.1840   -6.5970    6.5160 c3        1 59K     -0.124400
     26 H1          0.6590    1.1190   -4.5960 hc        1 59K      0.092700
     27 H2          2.3900    1.3580   -4.0810 hc        1 59K      0.092700
     28 H3          2.9450   -0.1950   -1.6560 ha        1 59K      0.174000
     29 H4         -1.0760    0.6650    2.7060 h5        1 59K      0.059100
     30 H5          4.6950   -0.4100    2.3960 h1        1 59K      0.075450
     31 H6          3.2130    0.4080    3.0780 h1        1 59K      0.075450
     32 H7          2.2360   -1.7010    3.8040 h1        1 59K      0.065450
     33 H8          3.9720   -1.6330    4.3710 h1        1 59K      0.065450
     34 H9          4.4130   -1.8400    0.3170 h1        1 59K      0.075450
     35 H10         2.7220   -2.0040   -0.3580 h1        1 59K      0.075450
     36 H11         3.5430   -4.0070    0.9630 h1        1 59K      0.065450
     37 H12         1.9470   -3.3160    1.5160 h1        1 59K      0.065450
     38 H13         3.2600   -7.1110    6.8860 hc        1 59K      0.059033
     39 H14         4.9470   -7.3820    6.2760 hc        1 59K      0.059033
     40 H15         4.5840   -5.9490    7.3340 hc        1 59K      0.059033
     41 CAK         1.4930    0.6880   -3.9800 c3        1 59K     -0.040200
@<TRIPOS>BOND
     1    1    2 ar  
     2    1    5 ar  
     3    1   11 1   
     4    2    3 ar  
     5    2   12 1   
     6    3    4 ar  
     7    3   14 1   
     8    4   13 ar  
     9    5   13 ar  
    10    6    7 1   
    11    7    8 1   
    12    7    9 1   
    13    7   41 1   
    14   10   11 1   
    15   10   12 2   
    16   10   41 1   
    17   12   28 1   
    18   13   29 1   
    19   14   15 1   
    20   14   17 1   
    21   15   16 1   
    22   15   30 1   
    23   15   31 1   
    24   16   19 1   
    25   16   32 1   
    26   16   33 1   
    27   17   18 1   
    28   17   34 1   
    29   17   35 1   
    30   18   19 1   
    31   18   36 1   
    32   18   37 1   
    33   19   20 1   
    34   20   21 1   
    35   20   22 2   
    36   21   24 1   
    37   22   23 1   
    38   23   24 2   
    39   24   25 1   
    40   25   38 1   
    41   25   39 1   
    42   25   40 1   
    43   26   41 1   
    44   27   41 1   
@<TRIPOS>SUBSTRUCTURE
     1 59K         1 TEMP              0 ****  ****    0 ROOT
