@<TRIPOS>MOLECULE
59K
   41    50     1     0     0
SMALL
bcc


@<TRIPOS>ATOM
      1 C4          0.0000    0.0000    0.0000 c2        1 59K     -0.135000
      2 C5          1.3970    0.0000    0.0000 c2        1 59K     -0.259000
      3 C6          2.0530    0.0000    1.2580 c2        1 59K     -0.054000
      4 N1          1.3200   -0.0020    2.3630 na        1 59K     -0.096000
      5 N3         -0.6520   -0.0010    1.1700 n2        1 59K     -0.092000
      6 FAB         0.2620   -2.1010   -4.0700 f         1 59K     -0.101667
      7 CAZ         1.4780   -1.4400   -4.2760 DU        1 59K      0.343000
      8 FAC         2.4930   -2.0990   -3.5740 f         1 59K     -0.101667
      9 FAD         1.7820   -1.4390   -5.6420 f         1 59K     -0.101667
     10 CAS         1.0390    0.0020   -2.3070 c2        1 59K     -0.386000
     11 SAQ        -0.5890   -0.0060   -1.6560 ss        1 59K      0.357000
     12 CAF         1.9410    0.0020   -1.3440 c2        1 59K     -0.151000
     13 C2          0.0010   -0.0020    2.3080 c2        1 59K     -0.047000
     14 NAY         3.4340    0.0000    1.3310 nx        1 59K      0.178000
     15 CAJ         3.8880   -0.0020    2.7290 DU        1 59K     -0.439000
     16 CAH         3.4540   -1.3050    3.4030 c3        1 59K     -0.661000
     17 CAI         4.0000   -1.1410    0.5960 DU        1 59K     -0.315000
     18 CAG         3.5660   -2.4450    1.2700 DU        1 59K     -0.480000
     19 NAX         4.0200   -2.4450    2.6670 nh        1 59K      0.137000
     20 CAT         3.7060   -3.6440    3.2920 c2        1 59K     -0.193000
     21 SAP         4.0590   -4.0690    4.9680 ss        1 59K      0.227000
     22 NAO         3.0930   -4.6560    2.7480 n2        1 59K     -0.040000
     23 NAN         2.8890   -5.6710    3.4670 n2        1 59K     -0.105000
     24 CAR         3.3000   -5.6380    4.6940 c2        1 59K     -0.027000
     25 CAA         3.1520   -6.7430    5.7080 c3        1 59K     -0.216000
     26 H1          1.5170   -0.8270   -4.4580 DU        1 59K      0.219000
     27 H2          2.3450    0.3190   -4.1180 hc        1 59K      0.113000
     28 H3          1.5230    0.1020   -2.3390 ha        1 59K      0.342000
     29 H4          0.6680   -0.0000    1.4550 DU        1 59K      0.326000
     30 H5          2.8120   -0.0020    2.8520 hx        1 59K      0.269500
     31 H6          4.9680    0.0760    2.7560 hx        1 59K      0.269500
     32 H7          3.4490   -0.2240    3.3280 DU        1 59K      0.382000
     33 H8          3.8150   -1.3200    4.4240 h1        1 59K      0.122000
     34 H9          3.4560   -1.2180    1.5300 DU        1 59K      0.242000
     35 H10         3.6400   -1.1260   -0.4250 hx        1 59K      0.184000
     36 H11         4.3310   -1.7550    0.9360 DU        1 59K      0.180000
     37 H12         4.0070   -3.2850    0.7480 ha        1 59K      0.177000
     38 H13         3.0340   -6.0030    4.9250 hc        1 59K      0.066333
     39 H14         3.3570   -7.7340    5.3230 hc        1 59K      0.066333
     40 H15         2.2170   -6.7230    6.2560 hc        1 59K      0.066333
     41 CAK         1.3660    0.0020   -3.7780 c3        1 59K     -0.266000
@<TRIPOS>BOND
     1    1    2 1   
     2    1    5 1   
     3    1   11 1   
     4    2    3 1   
     5    2   12 1   
     6    3    4 1   
     7    3   14 1   
     8    4   13 1   
     9    4   29 1   
    10    5   13 1   
    11    6    7 1   
    12    7    8 1   
    13    7    9 1   
    14    7   26 1   
    15    7   41 1   
    16   10   11 1   
    17   10   12 1   
    18   10   41 1   
    19   12   28 1   
    20   13   29 1   
    21   14   15 1   
    22   14   17 1   
    23   14   34 1   
    24   15   16 1   
    25   15   30 1   
    26   15   31 1   
    27   15   32 1   
    28   16   19 1   
    29   16   32 1   
    30   16   33 1   
    31   17   18 1   
    32   17   34 1   
    33   17   35 1   
    34   17   36 1   
    35   18   19 1   
    36   18   34 1   
    37   18   36 1   
    38   18   37 1   
    39   19   20 1   
    40   20   21 1   
    41   20   22 1   
    42   21   24 1   
    43   22   23 1   
    44   23   24 1   
    45   24   25 1   
    46   25   38 1   
    47   25   39 1   
    48   25   40 1   
    49   26   41 1   
    50   27   41 1   
@<TRIPOS>SUBSTRUCTURE
     1 59K         1 TEMP              0 ****  ****    0 ROOT
