@<TRIPOS>MOLECULE
59M
   41    44     1     0     0
SMALL
bcc


@<TRIPOS>ATOM
      1 C4         -0.0860    0.7160   -0.4290 ca        1 59M      0.423600
      2 C5          1.2480    0.2060   -0.2910 ca        1 59M     -0.326400
      3 C6          1.7110   -0.0850    1.0400 ca        1 59M      0.686200
      4 N1          0.8890    0.1410    2.0970 nb        1 59M     -0.751000
      5 N3         -0.9020    0.9370    0.6370 nb        1 59M     -0.673000
      6 FAB         0.8060   -1.7550   -4.5690 f         1 59M     -0.237633
      7 CBA         1.8110   -0.8240   -4.6090 c3        1 59M      0.627900
      8 FAC         2.8870   -1.4390   -4.0220 f         1 59M     -0.237633
      9 FAD         2.1490   -0.7420   -5.9380 f         1 59M     -0.237633
     10 CAS         1.0810    0.5060   -2.5870 cc        1 59M     -0.157600
     11 SAR        -0.4470    1.0000   -2.0520 ss        1 59M      0.035100
     12 CAF         1.9030    0.1110   -1.5570 cd        1 59M     -0.067200
     13 C2         -0.3570    0.6430    1.8320 ca        1 59M      0.666900
     14 NAZ         3.0530   -0.5360    1.2060 nh        1 59M     -0.721300
     15 CAK         3.6550   -0.3990    2.5230 c3        1 59M      0.173300
     16 CAI         3.4010   -1.5680    3.4970 c3        1 59M      0.155800
     17 CAJ         3.3330   -1.8420    0.6250 c3        1 59M      0.173300
     18 CAH         3.0600   -3.0390    1.5610 c3        1 59M      0.155800
     19 NAY         3.6590   -2.8620    2.8760 nh        1 59M     -0.711300
     20 CAU         3.6370   -3.9800    3.7010 cc        1 59M      0.609300
     21 SAQ         3.8760   -5.5970    3.0780 ss        1 59M     -0.206800
     22 NAP         3.5600   -3.9780    5.0760 nd        1 59M     -0.381000
     23 NAO         3.6980   -5.1550    5.6010 nd        1 59M     -0.262000
     24 CAT         3.8700   -6.1500    4.7040 cc        1 59M      0.264700
     25 CAG         4.0360   -7.5900    5.0750 c3        1 59M      0.151600
     26 FAA         2.8690   -8.1520    5.5500 f         1 59M     -0.227300
     27 H1          2.3440    1.2250   -4.1510 hc        1 59M      0.093200
     28 H2          0.6030    0.9750   -4.6240 hc        1 59M      0.093200
     29 H3          2.9370   -0.2310   -1.6780 ha        1 59M      0.173000
     30 H4         -0.9950    0.8160    2.7250 h5        1 59M      0.061100
     31 H5          3.3030    0.5460    3.0200 h1        1 59M      0.076450
     32 H6          4.7640   -0.3060    2.3390 h1        1 59M      0.076450
     33 H7          4.1040   -1.4480    4.3700 h1        1 59M      0.066950
     34 H8          2.3450   -1.5130    3.8860 h1        1 59M      0.066950
     35 H9          4.4250   -1.8340    0.3420 h1        1 59M      0.076450
     36 H10         2.7230   -1.9950   -0.3080 h1        1 59M      0.076450
     37 H11         3.5090   -3.9580    1.0860 h1        1 59M      0.066950
     38 H12         1.9450   -3.1940    1.6430 h1        1 59M      0.066950
     39 H17         4.8290   -7.6830    5.8730 h1        1 59M      0.059700
     40 H18         4.3660   -8.1670    4.1650 h1        1 59M      0.059700
     41 CAL         1.4460    0.5650   -4.0060 c3        1 59M     -0.040200
@<TRIPOS>BOND
     1    1    2 ar  
     2    1    5 ar  
     3    1   11 1   
     4    2    3 ar  
     5    2   12 1   
     6    3    4 ar  
     7    3   14 1   
     8    4   13 ar  
     9    5   13 ar  
    10    6    7 1   
    11    7    8 1   
    12    7    9 1   
    13    7   41 1   
    14   10   11 1   
    15   10   12 2   
    16   10   41 1   
    17   12   29 1   
    18   13   30 1   
    19   14   15 1   
    20   14   17 1   
    21   15   16 1   
    22   15   31 1   
    23   15   32 1   
    24   16   19 1   
    25   16   33 1   
    26   16   34 1   
    27   17   18 1   
    28   17   35 1   
    29   17   36 1   
    30   18   19 1   
    31   18   37 1   
    32   18   38 1   
    33   19   20 1   
    34   20   21 1   
    35   20   22 2   
    36   21   24 1   
    37   22   23 1   
    38   23   24 2   
    39   24   25 1   
    40   25   26 1   
    41   25   39 1   
    42   25   40 1   
    43   27   41 1   
    44   28   41 1   
@<TRIPOS>SUBSTRUCTURE
     1 59M         1 TEMP              0 ****  ****    0 ROOT
