@<TRIPOS>MOLECULE
59M
   41    42     1     0     0
SMALL
bcc


@<TRIPOS>ATOM
      1 C4          0.2890   -0.7930   -0.5960 c2        1 59M      0.050000
      2 C5          1.3240    0.0870   -0.1720 c2        1 59M     -0.278000
      3 C6          1.8650    0.0730    1.2190 c2        1 59M      0.161000
      4 N1          1.1850    0.4880    2.2430 n2        1 59M     -0.298000
      5 N3         -0.3020   -1.7120    0.2060 n2        1 59M     -0.327000
      6 FAB        -0.1090   -0.9230   -6.6350 f         1 59M     -0.185333
      7 CBA         1.1680   -1.1170   -6.1780 c3        1 59M      0.319000
      8 FAC         1.3100   -2.4740   -6.0720 f         1 59M     -0.185333
      9 FAD         1.9800   -0.7500   -7.2180 f         1 59M     -0.185333
     10 CAS         1.0800    0.8220   -2.4190 c3        1 59M     -0.290000
     11 SAR        -0.1460   -0.5870   -2.2010 ss        1 59M      0.276000
     12 CAF         1.7720    0.9690   -1.1440 c1        1 59M     -0.055000
     13 C2         -0.7980   -2.5230    0.9260 c1        1 59M      0.267000
     14 NAZ         3.2220   -0.3810    1.2980 n3        1 59M     -0.227000
     15 CAK         3.9370   -0.0750    2.5250 c3        1 59M     -0.062000
     16 CAI         3.8130   -1.1110    3.6740 c3        1 59M     -0.177000
     17 CAJ         3.4210   -1.7790    0.8630 c3        1 59M     -0.004000
     18 CAH         3.2400   -2.7750    1.9640 c2        1 59M     -0.630000
     19 NAY         4.1050   -2.4640    3.1190 nx        1 59M      0.166000
     20 CAU         3.9420   -3.6080    3.9790 c2        1 59M     -0.414000
     21 SAQ         3.2600   -4.9720    3.2080 ss        1 59M      0.813000
     22 NAP         4.2660   -3.7900    5.2960 n2        1 59M     -0.025000
     23 NAO         3.9850   -4.9910    5.6790 n2        1 59M     -0.035000
     24 CAT         3.4430   -5.7690    4.6830 c2        1 59M     -0.497000
     25 CAG         3.0650   -7.1990    4.9260 c3        1 59M      0.095000
     26 FAA         2.1050   -7.3430    5.9060 f         1 59M     -0.151000
     27 H1          1.3920   -0.5540   -5.2030 h3        1 59M      0.207000
     28 H2          2.7940    1.1400   -3.7220 ha        1 59M      0.107000
     29 H3          0.4330    1.7430   -2.5810 h1        1 59M      0.235000
     30 H4          0.2920    0.8730    2.0280 hn        1 59M      0.150000
     31 H5          3.6190    0.9200    2.9410 h1        1 59M      0.112000
     32 H6          5.0240    0.0050    2.2320 h1        1 59M      0.112000
     33 H7          4.5360   -0.8610    4.4950 hx        1 59M      0.134500
     34 H8          2.7700   -1.1120    4.0900 hx        1 59M      0.134500
     35 H9          5.0800   -2.4600    2.7880 hn        1 59M      0.230000
     36 H10         2.7060   -2.0280    0.0330 h1        1 59M      0.094500
     37 H11         4.4650   -1.8150    0.4390 h1        1 59M      0.094500
     38 H12         2.1810   -2.8920    2.2680 hx        1 59M      0.098000
     39 H17         2.6630   -7.6380    3.9670 h1        1 59M      0.096000
     40 H18         3.9830   -7.7780    5.2350 h1        1 59M      0.096000
     41 CAL         1.8410    0.6010   -3.6140 c1        1 59M     -0.020000
@<TRIPOS>BOND
     1    1    2 1   
     2    1    5 1   
     3    1   11 1   
     4    2    3 1   
     5    2   12 1   
     6    3    4 1   
     7    3   14 1   
     8    4   30 1   
     9    5   13 1   
    10    6    7 1   
    11    7    8 1   
    12    7    9 1   
    13    7   27 1   
    14   10   11 1   
    15   10   12 1   
    16   10   29 1   
    17   10   41 1   
    18   14   15 1   
    19   14   17 1   
    20   15   16 1   
    21   15   31 1   
    22   15   32 1   
    23   16   19 1   
    24   16   33 1   
    25   16   34 1   
    26   17   18 1   
    27   17   36 1   
    28   17   37 1   
    29   18   19 1   
    30   18   38 1   
    31   19   20 1   
    32   19   35 1   
    33   20   21 1   
    34   20   22 1   
    35   21   24 1   
    36   22   23 1   
    37   23   24 1   
    38   24   25 1   
    39   25   26 1   
    40   25   39 1   
    41   25   40 1   
    42   28   41 1   
@<TRIPOS>SUBSTRUCTURE
     1 59M         1 TEMP              0 ****  ****    0 ROOT
