@<TRIPOS>MOLECULE
59Q
   41    41     1     0     0
SMALL
bcc


@<TRIPOS>ATOM
      1 C4          0.0900    0.2020   -0.1980 c2        1 59Q     -0.167000
      2 C5          1.4280    0.3760    0.1770 c2        1 59Q     -0.142000
      3 C6          1.9070    0.4670    1.5830 c2        1 59Q      0.144000
      4 N1          1.3810    1.2380    2.4860 n2        1 59Q     -0.288000
      5 N3         -0.9750    0.0600    0.6330 n2        1 59Q     -0.287000
      6 FAC         2.3640   -1.9390   -3.9130 f         1 59Q     -0.165333
      7 CBB         3.0340   -0.7450   -3.8860 c3        1 59Q      0.415000
      8 FAD         4.1200   -0.9650   -3.0780 f         1 59Q     -0.165333
      9 FAE         3.5650   -0.6200   -5.1470 f         1 59Q     -0.165333
     10 CAS         1.5830    0.3790   -2.1470 c2        1 59Q     -0.409000
     11 SAR        -0.0570    0.1720   -1.8920 ss        1 59Q      0.624000
     12 CAG         2.2820    0.4750   -0.9570 c2        1 59Q     -0.105000
     13 C2         -1.8910   -0.0790    1.3750 c1        1 59Q      0.190000
     14 NBA         2.9660   -0.4280    1.8720 n7        1 59Q     -0.287000
     15 CAK         5.8280   -0.4310   -0.2070 c2        1 59Q     -0.238000
     16 CAI         5.8560   -1.1770    0.9040 c2        1 59Q     -0.062000
     17 CAJ         3.7110   -0.2370    3.0950 c3        1 59Q     -0.074000
     18 CAH         4.9850   -1.1050    3.1710 c3        1 59Q     -0.051000
     19 NAZ         6.0490   -0.7610    2.2430 nh        1 59Q     -0.193000
     20 CAU         6.8440    0.3310    2.5550 c2        1 59Q     -0.140000
     21 SAQ         7.1130    0.8290    4.2280 ss        1 59Q      0.397000
     22 NAP         7.6090    1.0720    1.6920 n2        1 59Q     -0.132000
     23 NAO         8.3570    1.9540    2.2930 n2        1 59Q     -0.050000
     24 CAT         8.2260    1.9760    3.6260 c2        1 59Q     -0.391000
     25 CAY         9.4450    3.0380   -0.1320 c1        1 59Q      0.263000
     26 FAA         9.9050    1.8220   -0.2900 f         1 59Q     -0.132000
     27 FAB         8.2060    3.0220   -0.5640 f         1 59Q     -0.132000
     28 H1          1.3690    0.5870   -4.2720 hc        1 59Q      0.133500
     29 H2          2.8370    1.3870   -3.5510 hc        1 59Q      0.133500
     30 H3          3.3690    0.6040   -0.8880 ha        1 59Q      0.173000
     31 H4          0.5920    1.7640    2.1790 hn        1 59Q      0.155000
     32 H5          3.5310   -0.6230    1.0690 hn        1 59Q      0.204000
     33 H6          5.9560    0.6580   -0.2390 ha        1 59Q      0.140500
     34 H7          5.7020   -0.9130   -1.1880 ha        1 59Q      0.140500
     35 H8          5.7190   -2.2780    0.8580 h4        1 59Q      0.146000
     36 H9          4.7210   -2.1860    2.9900 h1        1 59Q      0.115000
     37 H10         3.9920    0.8450    3.2510 h1        1 59Q      0.103500
     38 H11         3.0420   -0.5390    3.9520 h1        1 59Q      0.103500
     39 H12         5.3870   -1.0150    4.2220 h1        1 59Q      0.115000
     40 H13         8.7880    2.6760    4.2480 h5        1 59Q      0.204000
     41 CAL         2.1660    0.4870   -3.4880 c3        1 59Q     -0.123000
@<TRIPOS>BOND
     1    1    2 1   
     2    1    5 1   
     3    1   11 1   
     4    2    3 1   
     5    2   12 1   
     6    3    4 1   
     7    3   14 1   
     8    4   31 1   
     9    5   13 1   
    10    6    7 1   
    11    7    8 1   
    12    7    9 1   
    13    7   41 1   
    14   10   11 1   
    15   10   12 1   
    16   10   41 1   
    17   12   30 1   
    18   14   17 1   
    19   14   32 1   
    20   15   16 1   
    21   15   33 1   
    22   15   34 1   
    23   16   19 1   
    24   16   35 1   
    25   17   18 1   
    26   17   37 1   
    27   17   38 1   
    28   18   19 1   
    29   18   36 1   
    30   18   39 1   
    31   19   20 1   
    32   20   21 1   
    33   20   22 1   
    34   21   24 1   
    35   22   23 1   
    36   23   24 1   
    37   24   40 1   
    38   25   26 1   
    39   25   27 1   
    40   28   41 1   
    41   29   41 1   
@<TRIPOS>SUBSTRUCTURE
     1 59Q         1 TEMP              0 ****  ****    0 ROOT
