@<TRIPOS>MOLECULE
59Q
   41    44     1     0     0
SMALL
bcc


@<TRIPOS>ATOM
      1 C4         -0.1400    0.0800   -0.0280 ca        1 59Q      0.422600
      2 C5          1.2940    0.1360   -0.0010 ca        1 59Q     -0.322400
      3 C6          1.9220    0.2910    1.2840 ca        1 59Q      0.695200
      4 N1          1.1550    0.3610    2.4030 nb        1 59Q     -0.752000
      5 N3         -0.9020    0.1620    1.0970 nb        1 59Q     -0.672000
      6 FAC         1.3190   -2.7500   -3.7320 f         1 59Q     -0.236300
      7 CBB         1.8860   -1.5600   -4.1030 c3        1 59Q      0.629900
      8 FAD         3.1620   -1.6000   -3.6010 f         1 59Q     -0.236300
      9 FAE         2.0510   -1.6670   -5.4630 f         1 59Q     -0.236300
     10 CAS         0.8630   -0.1560   -2.2630 cc        1 59Q     -0.155600
     11 SAR        -0.6970   -0.1200   -1.6070 ss        1 59Q      0.036100
     12 CAG         1.8450   -0.0140   -1.3110 cd        1 59Q     -0.068200
     13 C2         -0.2030    0.2860    2.2400 ca        1 59Q      0.665900
     14 NBA         3.3440    0.2980    1.3530 nh        1 59Q     -0.734300
     15 CAK         3.9720    1.4670    0.7450 c3        1 59Q      0.176300
     16 CAI         5.5010    1.3000    0.6150 c3        1 59Q      0.187300
     17 CAJ         3.9310   -0.0190    2.6490 c3        1 59Q      0.176300
     18 CAH         5.4580   -0.2160    2.5440 c3        1 59Q      0.187300
     19 NAZ         6.1200    0.8900    1.8670 nh        1 59Q     -0.714300
     20 CAU         7.5030    0.9150    1.9430 cc        1 59Q      0.600300
     21 SAQ         8.3710    0.3590    3.3450 ss        1 59Q     -0.123800
     22 NAP         8.3560    1.4750    1.0070 nd        1 59Q     -0.385000
     23 NAO         9.5900    1.4760    1.3830 nd        1 59Q     -0.258000
     24 CAT         9.8080    0.9180    2.5980 cc        1 59Q      0.203700
     25 CAY        11.2080    0.8250    3.1710 c3        1 59Q      0.395600
     26 FAA        11.3040    1.4010    4.4200 f         1 59Q     -0.238800
     27 FAB        11.5890   -0.4760    3.4180 f         1 59Q     -0.238800
     28 H1          0.0940   -0.3520   -4.2550 hc        1 59Q      0.092200
     29 H2          1.6440    0.5920   -4.1040 hc        1 59Q      0.092200
     30 H3          2.9210   -0.0500   -1.5150 ha        1 59Q      0.175000
     31 H4         -0.7930    0.3460    3.1800 h5        1 59Q      0.060100
     32 H5          3.7560    2.3990    1.3440 h1        1 59Q      0.063450
     33 H6          3.5550    1.6110   -0.2910 h1        1 59Q      0.063450
     34 H7          5.7270    0.5560   -0.2020 h1        1 59Q      0.064950
     35 H8          5.9240    2.3000    0.3130 h1        1 59Q      0.064950
     36 H9          3.7170    0.7830    3.4130 h1        1 59Q      0.063450
     37 H10         3.4890   -0.9860    3.0170 h1        1 59Q      0.063450
     38 H11         5.6680   -1.1900    2.0140 h1        1 59Q      0.064950
     39 H12         5.8640   -0.2870    3.5940 h1        1 59Q      0.064950
     40 H13        11.9500    1.3150    2.4660 h2        1 59Q      0.103700
     41 CAL         1.0730   -0.2910   -3.7080 c3        1 59Q     -0.042200
@<TRIPOS>BOND
     1    1    2 ar  
     2    1    5 ar  
     3    1   11 1   
     4    2    3 ar  
     5    2   12 1   
     6    3    4 ar  
     7    3   14 1   
     8    4   13 ar  
     9    5   13 ar  
    10    6    7 1   
    11    7    8 1   
    12    7    9 1   
    13    7   41 1   
    14   10   11 1   
    15   10   12 2   
    16   10   41 1   
    17   12   30 1   
    18   13   31 1   
    19   14   15 1   
    20   14   17 1   
    21   15   16 1   
    22   15   32 1   
    23   15   33 1   
    24   16   19 1   
    25   16   34 1   
    26   16   35 1   
    27   17   18 1   
    28   17   36 1   
    29   17   37 1   
    30   18   19 1   
    31   18   38 1   
    32   18   39 1   
    33   19   20 1   
    34   20   21 1   
    35   20   22 2   
    36   21   24 1   
    37   22   23 1   
    38   23   24 2   
    39   24   25 1   
    40   25   26 1   
    41   25   27 1   
    42   25   40 1   
    43   28   41 1   
    44   29   41 1   
@<TRIPOS>SUBSTRUCTURE
     1 59Q         1 TEMP              0 ****  ****    0 ROOT
