@<TRIPOS>MOLECULE
59R
   53    50     1     0     0
SMALL
bcc


@<TRIPOS>ATOM
      1 C1         -0.8130   -0.4550    1.2600 c3        1 59R     -0.024000
      2 O1          0.3800   -1.2450    1.0930 os        1 59R     -0.278000
      3 C2         -1.9430   -1.0260    0.3590 c3        1 59R     -0.081000
      4 N2         -2.9800   -0.0500    0.2210 n3        1 59R     -0.303000
      5 C3         -3.7430   -0.3040   -1.0350 c3        1 59R     -0.071000
      6 C4         -4.0240    1.0070   -1.7220 c3        1 59R     -0.130000
      7 N1'         2.8460   -2.7450    3.0990 n3        1 59R     -0.269000
      8 C11        -5.0430    0.7900   -2.8490 c2        1 59R     -0.047000
      9 C12        -6.1990    0.0190   -2.6150 c2        1 59R     -0.164000
     10 C13        -7.1530   -0.1230   -3.6180 c1        1 59R      0.091000
     11 F13        -8.2950   -0.7760   -3.3650 f         1 59R     -0.107000
     12 C14        -6.9670    0.4940   -4.8470 c2        1 59R     -0.167000
     13 C15        -5.8160    1.2620   -5.0790 c1        1 59R     -0.103000
     14 C16        -4.8580    1.4050   -4.0750 c1        1 59R     -0.142000
     15 N1A         5.2860    0.2540    0.7910 n1        1 59R     -0.201000
     16 C2'         1.5100   -2.7830    2.3230 c3        1 59R     -0.097000
     17 C2A         4.0430    0.8130    1.0440 c1        1 59R      0.028000
     18 C3'         1.0760   -1.5320    2.3260 c3        1 59R      0.005000
     19 C3A         3.9080    2.1950    1.1430 c1        1 59R     -0.230000
     20 C4'         2.4170   -0.5830    2.4500 c3        1 59R     -0.149000
     21 C4A         5.0110    3.0080    0.9900 c1        1 59R     -0.147500
     22 C5'         3.2140   -1.1920    3.2420 c3        1 59R     -0.095000
     23 C5A         6.2450    2.4520    0.7390 c1        1 59R     -0.147500
     24 C6A         6.3780    1.0570    0.6390 c1        1 59R      0.110000
     25 N6A         7.6900    0.4650    0.4290 n3        1 59R     -0.322000
     26 C7A         3.0980   -0.4070    1.0170 c3        1 59R     -0.108000
     27 H1         -1.0990   -0.4850    2.2050 h1        1 59R      0.074000
     28 H1A        -0.6240    0.4950    0.9980 h1        1 59R      0.074000
     29 H2         -1.5820   -1.2390   -0.5150 h1        1 59R      0.084500
     30 H2A        -2.3060   -1.8290    0.7630 h1        1 59R      0.084500
     31 HN2        -3.5370   -0.1020    0.9260 hn        1 59R      0.150000
     32 H3         -4.5950   -0.7490   -0.8180 h1        1 59R      0.076500
     33 H3A        -3.2060   -0.8880   -1.6380 h1        1 59R      0.076500
     34 H4         -3.2070    1.3570   -2.0910 hc        1 59R      0.096500
     35 H4A        -4.3950    1.6560   -1.0580 hc        1 59R      0.096500
     36 HN1'        3.4770   -3.1560    2.6240 hn        1 59R      0.147000
     37 H12        -6.3900   -0.3110   -1.7100 ha        1 59R      0.148000
     38 H14        -7.6410    0.3940   -5.5540 ha        1 59R      0.149000
     39 H15        -5.6870    1.6910   -5.9350 ha        1 59R      0.138000
     40 H16        -4.0340    1.9550   -4.2410 ha        1 59R      0.139000
     41 H2'         1.6600   -3.0950    1.3890 h1        1 59R      0.099500
     42 H2'A        0.8400   -3.3930    2.7990 h1        1 59R      0.099500
     43 H3'         0.4760   -1.3790    3.1020 h1        1 59R      0.089000
     44 H3AA        3.0060    2.6000    1.3260 ha        1 59R      0.141000
     45 H4'         2.1790    0.2860    2.8180 hc        1 59R      0.099000
     46 H4AA        4.9150    3.9990    1.0600 ha        1 59R      0.138000
     47 H5'         3.0720   -0.8950    4.1580 h1        1 59R      0.101000
     48 H5'A        4.1620   -1.0330    2.9680 h1        1 59R      0.101000
     49 H5A         7.0370    3.0330    0.6290 ha        1 59R      0.138000
     50 HN6A        8.3930    0.9900    0.1880 hn        1 59R      0.197500
     51 HN6B        7.7970   -0.4250    0.4990 hn        1 59R      0.197500
     52 H7A         3.6090   -1.2090    0.7990 hc        1 59R      0.106500
     53 H7AA        2.4110   -0.2690    0.3460 hc        1 59R      0.106500
@<TRIPOS>BOND
     1    1    2 1   
     2    1    3 1   
     3    1   27 1   
     4    1   28 1   
     5    2   18 1   
     6    3    4 1   
     7    3   29 1   
     8    3   30 1   
     9    4    5 1   
    10    4   31 1   
    11    5    6 1   
    12    5   32 1   
    13    5   33 1   
    14    6    8 1   
    15    6   34 1   
    16    6   35 1   
    17    7   16 1   
    18    7   22 1   
    19    7   36 1   
    20    8    9 1   
    21    8   14 1   
    22    9   10 1   
    23    9   37 1   
    24   10   12 1   
    25   12   13 1   
    26   12   38 1   
    27   13   39 1   
    28   14   40 1   
    29   15   24 1   
    30   16   18 1   
    31   16   41 1   
    32   16   42 1   
    33   17   19 1   
    34   17   26 1   
    35   18   20 1   
    36   18   43 1   
    37   19   44 1   
    38   20   22 1   
    39   20   26 1   
    40   20   45 1   
    41   21   23 1   
    42   21   46 1   
    43   22   47 1   
    44   22   48 1   
    45   23   49 1   
    46   24   25 1   
    47   25   50 1   
    48   25   51 1   
    49   26   52 1   
    50   26   53 1   
@<TRIPOS>SUBSTRUCTURE
     1 59R         1 TEMP              0 ****  ****    0 ROOT
