@<TRIPOS>MOLECULE
59R
   55    57     1     0     0
SMALL
bcc


@<TRIPOS>ATOM
      1 C1          0.1600    0.2490   -0.2520 c3        1 59R      0.102400
      2 O1          1.5730    0.0680   -0.2460 os        1 59R     -0.459600
      3 C2         -0.3080    0.0850   -1.6990 c3        1 59R      0.099800
      4 N2         -0.0650   -1.2880   -2.2270 n4        1 59R     -0.761000
      5 C3         -0.5270   -1.4360   -3.6420 c3        1 59R      0.100800
      6 C4         -0.3370   -2.8570   -4.1730 c3        1 59R     -0.048100
      7 N1'         3.7330   -1.8650    1.2860 n3        1 59R     -0.783200
      8 C11        -0.8990   -2.9340   -5.5510 ca        1 59R     -0.105300
      9 C12        -2.2860   -2.9700   -5.7250 ca        1 59R     -0.171000
     10 C13        -2.8180   -3.0690   -7.0230 ca        1 59R      0.150900
     11 F13        -4.1570   -3.0990   -7.1940 f         1 59R     -0.115900
     12 C14        -1.9600   -3.1370   -8.1400 ca        1 59R     -0.132000
     13 C15        -0.5840   -3.1050   -7.9440 ca        1 59R     -0.089000
     14 C16        -0.0490   -3.0020   -6.6580 ca        1 59R     -0.129000
     15 N1A         5.2340    3.1930    1.1280 nb        1 59R     -0.660000
     16 C2'         2.3230   -1.5380    1.4250 c3        1 59R      0.131800
     17 C2A         5.1460    2.2320    0.1860 ca        1 59R      0.451600
     18 C3'         2.1110   -0.0400    1.0820 c3        1 59R      0.112100
     19 C3A         6.2500    1.8810   -0.6380 ca        1 59R     -0.189300
     20 C4'         3.5220    0.5840    1.1450 c3        1 59R     -0.091700
     21 C4A         7.4610    2.5440   -0.4800 ca        1 59R     -0.059000
     22 C5'         4.4910   -0.6210    1.2310 c3        1 59R      0.147800
     23 C5A         7.5790    3.5470    0.4920 ca        1 59R     -0.191300
     24 C6A         6.4350    3.8250    1.2640 ca        1 59R      0.447200
     25 N6A         6.5060    4.8730    2.3090 n4        1 59R     -0.818300
     26 C7A         3.8350    1.5140   -0.0070 c3        1 59R     -0.119700
     27 H1         -0.3360   -0.4930    0.4310 h1        1 59R      0.077700
     28 H1A        -0.0920    1.2920    0.0840 h1        1 59R      0.077700
     29 H2          0.2450    0.8110   -2.3620 hx        1 59R      0.119200
     30 H2A        -1.4140    0.3020   -1.7550 hx        1 59R      0.119200
     31 HN2         0.9410   -1.4890   -2.1660 hn        1 59R      0.453800
     32 H3         -1.6210   -1.1590   -3.6830 hx        1 59R      0.112700
     33 H3A         0.0540   -0.7060   -4.2750 hx        1 59R      0.112700
     34 H4         -0.8680   -3.5970   -3.5140 hc        1 59R      0.072700
     35 H4A         0.7530   -3.1260   -4.1850 hc        1 59R      0.072700
     36 HN1'        3.8990   -2.4250    0.4720 hn        1 59R      0.363800
     37 H12        -2.9690   -2.9420   -4.8640 ha        1 59R      0.144000
     38 H14        -2.3890   -3.2210   -9.1510 ha        1 59R      0.175000
     39 H15         0.0920   -3.1670   -8.8130 ha        1 59R      0.161000
     40 H16         1.0430   -2.9900   -6.5230 ha        1 59R      0.138000
     41 H2'         1.6750   -2.1860    0.7770 h1        1 59R      0.063200
     42 H2'A        2.0380   -1.7130    2.5000 h1        1 59R      0.063200
     43 H3'         1.4270    0.4570    1.8180 h1        1 59R      0.076700
     44 H3AA        6.1380    1.0880   -1.3950 ha        1 59R      0.179000
     45 H4'         3.5800    1.1610    2.1080 hc        1 59R      0.083700
     46 H4AA        8.3320    2.2900   -1.1090 ha        1 59R      0.190000
     47 H5'         5.0890   -0.5560    2.1830 h1        1 59R      0.057700
     48 H5'A        5.2120   -0.6120    0.3690 h1        1 59R      0.057700
     49 H5A         8.5350    4.0780    0.6260 ha        1 59R      0.179000
     50 HN6A        5.7560    5.5640    2.1710 hn        1 59R      0.475467
     51 HN6B        7.4170    5.3430    2.2540 hn        1 59R      0.475467
     52 H7A         3.0040    2.2650   -0.1080 hc        1 59R      0.075700
     53 H7AA        3.8780    0.9350   -0.9670 hc        1 59R      0.075700
     54 H22        -0.5560   -1.9730   -1.6390 hn        1 59R      0.453800
     55 H6A3        6.3960    4.4460    3.2380 hn        1 59R      0.475467
@<TRIPOS>BOND
     1    1    2 1   
     2    1    3 1   
     3    1   27 1   
     4    1   28 1   
     5    2   18 1   
     6    3    4 1   
     7    3   29 1   
     8    3   30 1   
     9    4    5 1   
    10    4   31 1   
    11    4   54 1   
    12    5    6 1   
    13    5   32 1   
    14    5   33 1   
    15    6    8 1   
    16    6   34 1   
    17    6   35 1   
    18    7   16 1   
    19    7   22 1   
    20    7   36 1   
    21    8    9 ar  
    22    8   14 ar  
    23    9   10 ar  
    24    9   37 1   
    25   10   11 1   
    26   10   12 ar  
    27   12   13 ar  
    28   12   38 1   
    29   13   14 ar  
    30   13   39 1   
    31   14   40 1   
    32   15   17 ar  
    33   15   24 ar  
    34   16   18 1   
    35   16   41 1   
    36   16   42 1   
    37   17   19 ar  
    38   17   26 1   
    39   18   20 1   
    40   18   43 1   
    41   19   21 ar  
    42   19   44 1   
    43   20   22 1   
    44   20   26 1   
    45   20   45 1   
    46   21   23 ar  
    47   21   46 1   
    48   22   47 1   
    49   22   48 1   
    50   23   24 ar  
    51   23   49 1   
    52   24   25 1   
    53   25   50 1   
    54   25   51 1   
    55   25   55 1   
    56   26   52 1   
    57   26   53 1   
@<TRIPOS>SUBSTRUCTURE
     1 59R         1 TEMP              0 ****  ****    0 ROOT
