@<TRIPOS>MOLECULE
59R
   54    56     1     0     0
SMALL
bcc


@<TRIPOS>ATOM
      1 C1          0.0600   -1.0820    0.6040 c3        1 59R      0.108400
      2 O1          1.4180   -1.2420    0.9600 os        1 59R     -0.433600
      3 C2         -0.0700   -0.3280   -0.7300 c3        1 59R      0.073800
      4 N2          0.9530   -0.7540   -1.7240 n4        1 59R     -0.785000
      5 C3          0.4770   -0.6160   -3.1270 c3        1 59R      0.111800
      6 C4          1.5120   -1.0890   -4.1470 c3        1 59R     -0.050100
      7 N1'         2.7600   -1.2200    3.8820 n3        1 59R     -0.788200
      8 C11         0.9160   -1.0330   -5.5110 ca        1 59R     -0.090300
      9 C12         0.0120   -2.0210   -5.9100 ca        1 59R     -0.170000
     10 C13        -0.5350   -1.9780   -7.2040 ca        1 59R      0.141900
     11 F13        -1.4130   -2.9310   -7.5910 f         1 59R     -0.124900
     12 C14        -0.1730   -0.9490   -8.0960 ca        1 59R     -0.142000
     13 C15         0.7320    0.0230   -7.6820 ca        1 59R     -0.095000
     14 C16         1.2760   -0.0120   -6.3970 ca        1 59R     -0.130000
     15 N1A         3.3240    0.8070   -1.2610 nb        1 59R     -0.816000
     16 C2'         1.6150   -0.5450    3.2900 c3        1 59R      0.129800
     17 C2A         4.3520    0.3100   -0.5310 ca        1 59R      0.449600
     18 C3'         1.9390   -0.2110    1.8120 c3        1 59R      0.107100
     19 C3A         5.6720    0.7840   -0.6560 ca        1 59R     -0.260300
     20 C4'         3.4800   -0.2430    1.7460 c3        1 59R     -0.079700
     21 C4A         5.9390    1.8060   -1.5700 ca        1 59R     -0.036000
     22 C5'         3.9040   -1.0670    2.9890 c3        1 59R      0.150800
     23 C5A         4.9020    2.3420   -2.3210 ca        1 59R     -0.277300
     24 C6A         3.5850    1.8210   -2.1450 ca        1 59R      0.620200
     25 N6A         2.5310    2.2970   -2.9540 nh        1 59R     -0.929500
     26 C7A         4.0800   -0.7870    0.4660 c3        1 59R     -0.127700
     27 H1         -0.3340   -2.1310    0.5010 h1        1 59R      0.086200
     28 H1A        -0.5300   -0.5320    1.3830 h1        1 59R      0.086200
     29 H2          0.0620    0.7780   -0.5630 hx        1 59R      0.098200
     30 H2A        -1.1010   -0.5100   -1.1460 hx        1 59R      0.098200
     31 HN2         1.8300   -0.1790   -1.5730 hn        1 59R      0.476300
     32 H3          0.2390    0.4720   -3.3040 hx        1 59R      0.097200
     33 H3A        -0.4710   -1.2170   -3.2450 hx        1 59R      0.097200
     34 H4          2.4250   -0.4350   -4.0960 hc        1 59R      0.075700
     35 H4A         1.8300   -2.1430   -3.9220 hc        1 59R      0.075700
     36 HN1'        2.5610   -2.1910    4.0390 hn        1 59R      0.367800
     37 H12        -0.2670   -2.8410   -5.2320 ha        1 59R      0.144000
     38 H14        -0.6050   -0.9290   -9.1090 ha        1 59R      0.167000
     39 H15         1.0240    0.8260   -8.3770 ha        1 59R      0.153000
     40 H16         1.9960    0.7600   -6.0870 ha        1 59R      0.142000
     41 H2'         0.6790   -1.1600    3.3600 h1        1 59R      0.064200
     42 H2'A        1.4550    0.4150    3.8550 h1        1 59R      0.064200
     43 H3'         1.5280    0.7820    1.5020 h1        1 59R      0.054700
     44 H3AA        6.4760    0.3560   -0.0420 ha        1 59R      0.165000
     45 H4'         3.8300    0.8170    1.8950 hc        1 59R      0.077700
     46 H4AA        6.9660    2.1890   -1.6900 ha        1 59R      0.163000
     47 H5'         4.7030   -0.5130    3.5530 h1        1 59R      0.058700
     48 H5'A        4.3250   -2.0610    2.6780 h1        1 59R      0.058700
     49 H5A         5.0930    3.1500   -3.0420 ha        1 59R      0.161000
     50 HN6A        1.6450    2.3530   -2.5000 hn        1 59R      0.399800
     51 HN6B        2.7660    3.1430   -3.4320 hn        1 59R      0.399800
     52 H7A         3.4140   -1.5710    0.0180 hc        1 59R      0.069700
     53 H7AA        5.0590   -1.2880    0.7020 hc        1 59R      0.069700
     54 H22         1.2040   -1.7320   -1.5430 hn        1 59R      0.476300
@<TRIPOS>BOND
     1    1    2 1   
     2    1    3 1   
     3    1   27 1   
     4    1   28 1   
     5    2   18 1   
     6    3    4 1   
     7    3   29 1   
     8    3   30 1   
     9    4    5 1   
    10    4   31 1   
    11    4   54 1   
    12    5    6 1   
    13    5   32 1   
    14    5   33 1   
    15    6    8 1   
    16    6   34 1   
    17    6   35 1   
    18    7   16 1   
    19    7   22 1   
    20    7   36 1   
    21    8    9 ar  
    22    8   14 ar  
    23    9   10 ar  
    24    9   37 1   
    25   10   11 1   
    26   10   12 ar  
    27   12   13 ar  
    28   12   38 1   
    29   13   14 ar  
    30   13   39 1   
    31   14   40 1   
    32   15   17 ar  
    33   15   24 ar  
    34   16   18 1   
    35   16   41 1   
    36   16   42 1   
    37   17   19 ar  
    38   17   26 1   
    39   18   20 1   
    40   18   43 1   
    41   19   21 ar  
    42   19   44 1   
    43   20   22 1   
    44   20   26 1   
    45   20   45 1   
    46   21   23 ar  
    47   21   46 1   
    48   22   47 1   
    49   22   48 1   
    50   23   24 ar  
    51   23   49 1   
    52   24   25 1   
    53   25   50 1   
    54   25   51 1   
    55   26   52 1   
    56   26   53 1   
@<TRIPOS>SUBSTRUCTURE
     1 59R         1 TEMP              0 ****  ****    0 ROOT
