@<TRIPOS>MOLECULE
59R
   54    56     1     0     0
SMALL
bcc


@<TRIPOS>ATOM
      1 C1          0.0710   -1.0200    0.6400 c3        1 59R      0.108400
      2 O1          1.4290   -1.2260    0.9740 os        1 59R     -0.433600
      3 C2         -0.0540   -0.2610   -0.6920 c3        1 59R      0.073800
      4 N2          0.9370   -0.7210   -1.7020 ny        1 59R     -0.785000
      5 C3          0.4430   -0.5630   -3.0970 c3        1 59R      0.111800
      6 C4          1.4460   -1.0710   -4.1350 c3        1 59R     -0.050100
      7 N1'         2.8160   -1.2510    3.8750 n7        1 59R     -0.788200
      8 C11         0.8310   -0.9910   -5.4890 ca        1 59R     -0.090300
      9 C12        -0.1110   -1.9480   -5.8760 ca        1 59R     -0.170000
     10 C13        -0.6770   -1.8830   -7.1610 ca        1 59R      0.141900
     11 F13        -1.5910   -2.8070   -7.5370 f         1 59R     -0.124900
     12 C14        -0.2960   -0.8640   -8.0560 ca        1 59R     -0.142000
     13 C15         0.6460    0.0770   -7.6530 ca        1 59R     -0.095000
     14 C16         1.2090    0.0200   -6.3770 ca        1 59R     -0.130000
     15 N1A         3.3680    0.7570   -1.2760 nb        1 59R     -0.816000
     16 C2'         1.6860   -0.5360    3.3010 c3        1 59R      0.129800
     17 C2A         4.3900    0.2240   -0.5640 ca        1 59R      0.448600
     18 C3'         1.9980   -0.2140    1.8170 c3        1 59R      0.107100
     19 C3A         5.7230    0.6500   -0.7120 ca        1 59R     -0.260300
     20 C4'         3.5360   -0.2990    1.7270 c3        1 59R     -0.079700
     21 C4A         6.0110    1.6620   -1.6310 ca        1 59R     -0.036000
     22 C5'         3.9500   -1.1360    2.9630 c3        1 59R      0.150800
     23 C5A         4.9800    2.2350   -2.3640 ca        1 59R     -0.277300
     24 C6A         3.6490    1.7610   -2.1650 ca        1 59R      0.620200
     25 N6A         2.5990    2.2760   -2.9540 nv        1 59R     -0.929500
     26 C7A         4.0970   -0.8630    0.4380 c3        1 59R     -0.127700
     27 H1         -0.3600   -2.0550    0.5430 h1        1 59R      0.086200
     28 H1A        -0.4870   -0.4510    1.4290 h1        1 59R      0.086200
     29 H2          0.1170    0.8400   -0.5270 hx        1 59R      0.098200
     30 H2A        -1.0980   -0.4080   -1.0910 hx        1 59R      0.098200
     31 HN2         1.1570   -1.7070   -1.5260 hn        1 59R      0.476300
     32 H3          0.2410    0.5320   -3.2690 hx        1 59R      0.097200
     33 H3A        -0.5260   -1.1310   -3.2010 hx        1 59R      0.097200
     34 H4          2.3820   -0.4500   -4.0960 hc        1 59R      0.075700
     35 H4A         1.7300   -2.1360   -3.9160 hc        1 59R      0.075700
     36 HN1'        2.5860   -2.2140    4.0350 hn        1 59R      0.367800
     37 H12        -0.4060   -2.7600   -5.1960 ha        1 59R      0.144000
     38 H14        -0.7420   -0.8260   -9.0610 ha        1 59R      0.167000
     39 H15         0.9530    0.8720   -8.3510 ha        1 59R      0.153000
     40 H16         1.9580    0.7670   -6.0760 ha        1 59R      0.142000
     41 H2'         1.5690    0.4280    3.8670 h1        1 59R      0.064200
     42 H2'A        0.7300   -1.1190    3.3850 h1        1 59R      0.064200
     43 H3'         1.6170    0.7930    1.5140 h1        1 59R      0.054700
     44 H3AA        6.5230    0.1940   -0.1120 ha        1 59R      0.165000
     45 H4'         3.9250    0.7480    1.8700 hc        1 59R      0.077700
     46 H4AA        7.0490    2.0080   -1.7690 ha        1 59R      0.163000
     47 H5'         4.7770   -0.6100    3.5150 h1        1 59R      0.058700
     48 H5'A        4.3320   -2.1450    2.6470 h1        1 59R      0.058700
     49 H5A         5.1870    3.0360   -3.0890 ha        1 59R      0.161000
     50 HN6A        2.8560    3.1130   -3.4360 hn        1 59R      0.399800
     51 HN6B        1.7230    2.3630   -2.4850 hn        1 59R      0.399800
     52 H7A         3.3970   -1.6240    0.0010 hc        1 59R      0.069700
     53 H7AA        5.0620   -1.3980    0.6580 hc        1 59R      0.069700
     54 H22         1.8350   -0.1770   -1.5640 hn        1 59R      0.476300
@<TRIPOS>BOND
     1    1    2 1   
     2    1    3 1   
     3    1   27 1   
     4    1   28 1   
     5    2   18 1   
     6    3    4 1   
     7    3   29 1   
     8    3   30 1   
     9    4    5 1   
    10    4   31 1   
    11    4   54 1   
    12    5    6 1   
    13    5   32 1   
    14    5   33 1   
    15    6    8 1   
    16    6   34 1   
    17    6   35 1   
    18    7   16 1   
    19    7   22 1   
    20    7   36 1   
    21    8    9 ar  
    22    8   14 ar  
    23    9   10 ar  
    24    9   37 1   
    25   10   11 1   
    26   10   12 ar  
    27   12   13 ar  
    28   12   38 1   
    29   13   14 ar  
    30   13   39 1   
    31   14   40 1   
    32   15   17 ar  
    33   15   24 ar  
    34   16   18 1   
    35   16   41 1   
    36   16   42 1   
    37   17   19 ar  
    38   17   26 1   
    39   18   20 1   
    40   18   43 1   
    41   19   21 ar  
    42   19   44 1   
    43   20   22 1   
    44   20   26 1   
    45   20   45 1   
    46   21   23 ar  
    47   21   46 1   
    48   22   47 1   
    49   22   48 1   
    50   23   24 ar  
    51   23   49 1   
    52   24   25 1   
    53   25   50 1   
    54   25   51 1   
    55   26   52 1   
    56   26   53 1   
@<TRIPOS>SUBSTRUCTURE
     1 59R         1 TEMP              0 ****  ****    0 ROOT
