@<TRIPOS>MOLECULE
59R
   53    55     1     0     0
SMALL
bcc


@<TRIPOS>ATOM
      1 C1          0.1580   -2.6690    1.4710 c3        1 59R      0.120400
      2 O1          1.0520   -1.7590    0.8300 os        1 59R     -0.424600
      3 C2         -1.1640   -1.9210    1.6670 c3        1 59R      0.163800
      4 N2         -1.8660   -1.6820    0.4230 n3        1 59R     -0.825200
      5 C3         -2.9560   -0.7370    0.5630 c3        1 59R      0.166800
      6 C4         -3.6090   -0.3850   -0.7770 c3        1 59R     -0.044100
      7 N1'         2.8360   -2.6500   -2.0300 n3        1 59R     -0.788200
      8 C11        -4.7780    0.5120   -0.5660 ca        1 59R     -0.052300
      9 C12        -5.9670   -0.0090   -0.0480 ca        1 59R     -0.165000
     10 C13        -7.0730    0.8380    0.1410 ca        1 59R      0.125900
     11 F13        -8.2270    0.3340    0.6440 f         1 59R     -0.142900
     12 C14        -6.9920    2.2040   -0.1890 ca        1 59R     -0.168000
     13 C15        -5.8010    2.7050   -0.7050 ca        1 59R     -0.104000
     14 C16        -4.7000    1.8710   -0.8930 ca        1 59R     -0.143000
     15 N1A         5.1280    0.9710    0.8880 nb        1 59R     -0.730000
     16 C2'         1.9310   -3.1350   -0.9960 c3        1 59R      0.112800
     17 C2A         3.9740    1.0800    0.1950 ca        1 59R      0.448600
     18 C3'         2.2270   -2.3960    0.3370 c3        1 59R      0.117100
     19 C3A         3.7270    2.1160   -0.7310 ca        1 59R     -0.290300
     20 C4'         3.2830   -1.3230   -0.0090 c3        1 59R     -0.079700
     21 C4A         4.7170    3.0740   -0.9440 ca        1 59R     -0.060000
     22 C5'         3.4560   -1.4210   -1.5420 c3        1 59R      0.141800
     23 C5A         5.9180    2.9870   -0.2530 ca        1 59R     -0.300300
     24 C6A         6.1060    1.9030    0.6590 ca        1 59R      0.628200
     25 N6A         7.3550    1.7450    1.2850 nh        1 59R     -0.923500
     26 C7A         2.8880    0.0670    0.4430 c3        1 59R     -0.113700
     27 H1          0.0230   -3.5900    0.8450 h1        1 59R      0.039700
     28 H1A         0.5800   -2.9540    2.4710 h1        1 59R      0.039700
     29 H2         -1.8280   -2.5570    2.3180 h1        1 59R      0.040700
     30 H2A        -0.9440   -0.9650    2.2280 h1        1 59R      0.040700
     31 HN2        -1.2210   -1.3790   -0.2860 hn        1 59R      0.368800
     32 H3         -3.7310   -1.2100    1.2310 h1        1 59R      0.033700
     33 H3A        -2.6290    0.2240    1.0620 h1        1 59R      0.033700
     34 H4         -2.8580    0.1130   -1.4470 hc        1 59R      0.058700
     35 H4A        -3.9470   -1.3240   -1.2920 hc        1 59R      0.058700
     36 HN1'        3.5410   -3.3390   -2.2220 hn        1 59R      0.346800
     37 H12        -6.0440   -1.0750    0.2120 ha        1 59R      0.151000
     38 H14        -7.8640    2.8550   -0.0380 ha        1 59R      0.148000
     39 H15        -5.7300    3.7720   -0.9670 ha        1 59R      0.137000
     40 H16        -3.7660    2.2820   -1.3030 ha        1 59R      0.136000
     41 H2'         0.8800   -2.8960   -1.3210 h1        1 59R      0.056200
     42 H2'A        2.0130   -4.2440   -0.8590 h1        1 59R      0.056200
     43 H3'         2.6220   -3.1060    1.1110 h1        1 59R      0.043700
     44 H3AA        2.7720    2.1610   -1.2710 ha        1 59R      0.144000
     45 H4'         4.2460   -1.6130    0.4920 hc        1 59R      0.071700
     46 H4AA        4.5500    3.8950   -1.6570 ha        1 59R      0.135000
     47 H5'         4.5420   -1.3720   -1.8200 h1        1 59R      0.054700
     48 H5'A        2.9310   -0.5590   -2.0410 h1        1 59R      0.054700
     49 H5A         6.7130    3.7280   -0.4120 ha        1 59R      0.141000
     50 HN6A        7.3800    1.1020    2.0450 hn        1 59R      0.400800
     51 HN6B        7.8140    2.6080    1.4740 hn        1 59R      0.400800
     52 H7A         2.6450    0.0360    1.5400 hc        1 59R      0.067700
     53 H7AA        1.9550    0.3850   -0.0930 hc        1 59R      0.067700
@<TRIPOS>BOND
     1    1    2 1   
     2    1    3 1   
     3    1   27 1   
     4    1   28 1   
     5    2   18 1   
     6    3    4 1   
     7    3   29 1   
     8    3   30 1   
     9    4    5 1   
    10    4   31 1   
    11    5    6 1   
    12    5   32 1   
    13    5   33 1   
    14    6    8 1   
    15    6   34 1   
    16    6   35 1   
    17    7   16 1   
    18    7   22 1   
    19    7   36 1   
    20    8    9 ar  
    21    8   14 ar  
    22    9   10 ar  
    23    9   37 1   
    24   10   11 1   
    25   10   12 ar  
    26   12   13 ar  
    27   12   38 1   
    28   13   14 ar  
    29   13   39 1   
    30   14   40 1   
    31   15   17 ar  
    32   15   24 ar  
    33   16   18 1   
    34   16   41 1   
    35   16   42 1   
    36   17   19 ar  
    37   17   26 1   
    38   18   20 1   
    39   18   43 1   
    40   19   21 ar  
    41   19   44 1   
    42   20   22 1   
    43   20   26 1   
    44   20   45 1   
    45   21   23 ar  
    46   21   46 1   
    47   22   47 1   
    48   22   48 1   
    49   23   24 ar  
    50   23   49 1   
    51   24   25 1   
    52   25   50 1   
    53   25   51 1   
    54   26   52 1   
    55   26   53 1   
@<TRIPOS>SUBSTRUCTURE
     1 59R         1 TEMP              0 ****  ****    0 ROOT
