@<TRIPOS>MOLECULE
59W
   53    50     1     0     0
SMALL
bcc


@<TRIPOS>ATOM
      1 C1         -1.5080   -0.8100    0.3290 c3        1 59W     -0.062000
      2 O1         -0.1240   -1.1980    0.3750 os        1 59W     -0.273000
      3 C2         -1.7700   -0.0280   -0.9160 c3        1 59W     -0.076000
      4 N2         -3.1300    0.5260   -0.8560 n3        1 59W     -0.299000
      5 C3         -3.1680    1.7830   -1.5240 c3        1 59W     -0.074000
      6 C4         -4.3640    2.6240   -0.9920 c3        1 59W     -0.129000
      7 N1'         1.8900    0.1090    2.6770 n3        1 59W     -0.268000
      8 C11        -3.9940    4.1560   -1.0540 c2        1 59W     -0.047000
      9 C12        -4.3870    4.9080   -2.1310 c2        1 59W     -0.161000
     10 C13        -4.1700    6.3010   -2.1330 c1        1 59W      0.092000
     11 F13        -4.5580    7.0540   -3.2110 f         1 59W     -0.106000
     12 C14        -3.5650    6.9060   -1.0550 c2        1 59W     -0.167000
     13 C15        -3.1670    6.1500    0.0340 c1        1 59W     -0.103000
     14 C16        -3.3780    4.7750    0.0420 c1        1 59W     -0.145000
     15 N1A         4.4380   -3.3330   -0.1090 n1        1 59W     -0.201000
     16 C2'         0.6300    0.1240    2.2000 c3        1 59W     -0.118000
     17 C2A         3.2130   -3.6990    0.3190 c1        1 59W      0.028000
     18 C3'         0.3940   -1.2740    1.6420 c3        1 59W      0.002000
     19 C3A         2.9020   -5.0530    0.4680 c1        1 59W     -0.230000
     20 C4'         1.8070   -1.9630    1.6080 c3        1 59W     -0.120000
     21 C4A         3.8230   -5.9900    0.1830 c1        1 59W     -0.148000
     22 C5'         2.6680   -0.9930    1.8280 c3        1 59W     -0.097000
     23 C5A         5.0390   -5.6260   -0.2430 c1        1 59W     -0.148000
     24 C6A         5.3540   -4.2660   -0.3920 c1        1 59W      0.109000
     25 N6A         6.6510   -3.8760   -0.9640 n3        1 59W     -0.322000
     26 C7A         2.0670   -2.6150    0.1920 c3        1 59W     -0.107000
     27 H1         -1.7140   -0.2760    1.0900 h1        1 59W      0.066000
     28 H1A        -2.0780   -1.6220    0.3330 h1        1 59W      0.066000
     29 H2         -1.1250    0.6990   -0.9870 h1        1 59W      0.107000
     30 H2A        -1.6890   -0.6160   -1.7020 h1        1 59W      0.107000
     31 HN2        -3.3920    0.6460    0.0890 hn        1 59W      0.154000
     32 H3         -3.2740    1.6400   -2.4730 h1        1 59W      0.074500
     33 H3A        -2.3680    2.2430   -1.3630 h1        1 59W      0.074500
     34 H4         -5.1470    2.4580   -1.5450 hc        1 59W      0.097000
     35 H4A        -4.5530    2.3740   -0.0860 hc        1 59W      0.097000
     36 HN1'        2.2710    0.9140    2.5430 hn        1 59W      0.147000
     37 H12        -4.9070    4.4680   -2.9050 ha        1 59W      0.151000
     38 H14        -3.4150    7.8760   -1.0590 ha        1 59W      0.149000
     39 H15        -2.7400    6.5790    0.7910 ha        1 59W      0.137000
     40 H16        -3.0890    4.2260    0.8350 ha        1 59W      0.134000
     41 H2'         0.5430    0.7790    1.5030 h1        1 59W      0.093500
     42 H2'A       -0.0060    0.3120    2.9260 h1        1 59W      0.093500
     43 H3'        -0.2600   -1.8140    2.2750 h1        1 59W      0.086000
     44 H3AA        2.0500   -5.3070    0.7650 ha        1 59W      0.141000
     45 H4'         1.8700   -2.6480    2.3170 hc        1 59W      0.100000
     46 H4AA        3.6200   -6.8710    0.2790 ha        1 59W      0.138000
     47 H5'         2.9690   -0.6160    0.9860 h1        1 59W      0.101500
     48 H5'A        3.4660   -1.3460    2.3580 h1        1 59W      0.101500
     49 H5A         5.7190   -6.3160   -0.4520 ha        1 59W      0.138000
     50 HN6A        6.8510   -2.9550   -1.1070 hn        1 59W      0.197500
     51 HN6B        7.2930   -4.5200   -1.1340 hn        1 59W      0.197500
     52 H7A         1.1710   -3.0780   -0.1550 hc        1 59W      0.110500
     53 H7AA        2.3400   -1.9240   -0.4390 hc        1 59W      0.110500
@<TRIPOS>BOND
     1    1    2 1   
     2    1    3 1   
     3    1   27 1   
     4    1   28 1   
     5    2   18 1   
     6    3    4 1   
     7    3   29 1   
     8    3   30 1   
     9    4    5 1   
    10    4   31 1   
    11    5    6 1   
    12    5   32 1   
    13    5   33 1   
    14    6    8 1   
    15    6   34 1   
    16    6   35 1   
    17    7   16 1   
    18    7   22 1   
    19    7   36 1   
    20    8    9 1   
    21    8   14 1   
    22    9   10 1   
    23    9   37 1   
    24   10   12 1   
    25   12   13 1   
    26   12   38 1   
    27   13   39 1   
    28   14   40 1   
    29   15   24 1   
    30   16   18 1   
    31   16   41 1   
    32   16   42 1   
    33   17   19 1   
    34   17   26 1   
    35   18   20 1   
    36   18   43 1   
    37   19   44 1   
    38   20   22 1   
    39   20   26 1   
    40   20   45 1   
    41   21   23 1   
    42   21   46 1   
    43   22   47 1   
    44   22   48 1   
    45   23   49 1   
    46   24   25 1   
    47   25   50 1   
    48   25   51 1   
    49   26   52 1   
    50   26   53 1   
@<TRIPOS>SUBSTRUCTURE
     1 59W         1 TEMP              0 ****  ****    0 ROOT
