@<TRIPOS>MOLECULE
59W
   54    56     1     0     0
SMALL
bcc


@<TRIPOS>ATOM
      1 C1         -0.2450   -0.2330    0.3230 c3        1 59W      0.107400
      2 O1          1.1720   -0.2580    0.2560 os        1 59W     -0.467600
      3 C2         -0.7380   -0.2820   -1.1300 c3        1 59W      0.102800
      4 N2         -0.0890   -1.3800   -1.9070 ny        1 59W     -0.760000
      5 C3         -0.4510   -1.3380   -3.3530 c3        1 59W      0.101800
      6 C4          0.1930   -2.4730   -4.1510 c3        1 59W     -0.051100
      7 N1'         3.3630    1.8390    1.5110 n7        1 59W     -0.783200
      8 C11        -0.1780   -2.3260   -5.5850 ca        1 59W     -0.098300
      9 C12         0.4770   -1.3730   -6.3700 ca        1 59W     -0.167000
     10 C13         0.1400   -1.2480   -7.7300 ca        1 59W      0.144900
     11 F13         0.7690   -0.3240   -8.4920 f         1 59W     -0.121900
     12 C14        -0.8470   -2.0780   -8.2990 ca        1 59W     -0.138000
     13 C15        -1.4820   -3.0230   -7.5010 ca        1 59W     -0.092000
     14 C16        -1.1560   -3.1510   -6.1500 ca        1 59W     -0.130000
     15 N1A         5.7010   -1.7300   -0.8160 nb        1 59W     -0.742000
     16 C2'         1.9940    1.4480    1.8100 c3        1 59W      0.126800
     17 C2A         4.8190   -2.1220    0.1300 ca        1 59W      0.430600
     18 C3'         1.8260   -0.0650    1.5200 c3        1 59W      0.114100
     19 C3A         5.0860   -3.1310    1.0750 ca        1 59W     -0.298300
     20 C4'         3.2640   -0.6200    1.4020 c3        1 59W     -0.085700
     21 C4A         6.3330   -3.7610    1.0400 ca        1 59W     -0.048000
     22 C5'         4.1770    0.6290    1.4510 c3        1 59W      0.142800
     23 C5A         7.2630   -3.3910    0.0810 ca        1 59W     -0.292300
     24 C6A         6.9160   -2.3670   -0.8590 ca        1 59W      0.650200
     25 N6A         7.8030   -2.0580   -1.8910 nv        1 59W     -0.933500
     26 C7A         3.4700   -1.4550    0.1540 c3        1 59W     -0.108700
     27 H1         -0.6130    0.7180    0.7940 h1        1 59W      0.072700
     28 H1A        -0.6170   -1.1130    0.9130 h1        1 59W      0.072700
     29 H2         -0.4890    0.6910   -1.6420 hx        1 59W      0.112200
     30 H2A        -1.8530   -0.4360   -1.1440 hx        1 59W      0.112200
     31 HN2        -0.3600   -2.2860   -1.5090 hn        1 59W      0.459800
     32 H3         -0.1140   -0.3450   -3.7690 hx        1 59W      0.109200
     33 H3A        -1.5740   -1.4000   -3.4330 hx        1 59W      0.109200
     34 H4         -0.1550   -3.4680   -3.7620 hc        1 59W      0.074700
     35 H4A         1.3120   -2.4370   -4.0470 hc        1 59W      0.074700
     36 HN1'        3.4060    2.3370    0.6410 hn        1 59W      0.357800
     37 H12         1.2630   -0.7310   -5.9470 ha        1 59W      0.147000
     38 H14        -1.0980   -1.9730   -9.3660 ha        1 59W      0.169000
     39 H15        -2.2490   -3.6810   -7.9420 ha        1 59W      0.157000
     40 H16        -1.6620   -3.9110   -5.5370 ha        1 59W      0.139000
     41 H2'         1.2490    2.0510    1.2260 h1        1 59W      0.062200
     42 H2'A        1.8190    1.6290    2.9060 h1        1 59W      0.062200
     43 H3'         1.2450   -0.5820    2.3250 h1        1 59W      0.063700
     44 H3AA        4.3350   -3.4100    1.8220 ha        1 59W      0.139000
     45 H4'         3.4660   -1.2560    2.3050 hc        1 59W      0.078700
     46 H4AA        6.5750   -4.5480    1.7710 ha        1 59W      0.147000
     47 H5'         4.7980    0.5980    2.3890 h1        1 59W      0.072200
     48 H5'A        4.8760    0.6470    0.5720 h1        1 59W      0.072200
     49 H5A         8.2460   -3.8780    0.0350 ha        1 59W      0.153000
     50 HN6A        8.7580   -2.2520   -1.6930 hn        1 59W      0.416800
     51 HN6B        7.6390   -1.2180   -2.3980 hn        1 59W      0.416800
     52 H7A         2.6880   -2.2620    0.1240 hc        1 59W      0.042200
     53 H7AA        3.3210   -0.8080   -0.7520 hc        1 59W      0.042200
     54 H22         0.9350   -1.2890   -1.7980 hn        1 59W      0.459800
@<TRIPOS>BOND
     1    1    2 1   
     2    1    3 1   
     3    1   27 1   
     4    1   28 1   
     5    2   18 1   
     6    3    4 1   
     7    3   29 1   
     8    3   30 1   
     9    4    5 1   
    10    4   31 1   
    11    4   54 1   
    12    5    6 1   
    13    5   32 1   
    14    5   33 1   
    15    6    8 1   
    16    6   34 1   
    17    6   35 1   
    18    7   16 1   
    19    7   22 1   
    20    7   36 1   
    21    8    9 ar  
    22    8   14 ar  
    23    9   10 ar  
    24    9   37 1   
    25   10   11 1   
    26   10   12 ar  
    27   12   13 ar  
    28   12   38 1   
    29   13   14 ar  
    30   13   39 1   
    31   14   40 1   
    32   15   17 ar  
    33   15   24 ar  
    34   16   18 1   
    35   16   41 1   
    36   16   42 1   
    37   17   19 ar  
    38   17   26 1   
    39   18   20 1   
    40   18   43 1   
    41   19   21 ar  
    42   19   44 1   
    43   20   22 1   
    44   20   26 1   
    45   20   45 1   
    46   21   23 ar  
    47   21   46 1   
    48   22   47 1   
    49   22   48 1   
    50   23   24 ar  
    51   23   49 1   
    52   24   25 1   
    53   25   50 1   
    54   25   51 1   
    55   26   52 1   
    56   26   53 1   
@<TRIPOS>SUBSTRUCTURE
     1 59W         1 TEMP              0 ****  ****    0 ROOT
