@<TRIPOS>MOLECULE
59W
   55    57     1     0     0
SMALL
bcc


@<TRIPOS>ATOM
      1 C1          1.1860   -1.5780   -0.3650 c3        1 59W      0.102400
      2 O1          2.4020   -1.6220   -1.0880 os        1 59W     -0.441600
      3 C2          0.0420   -1.1030   -1.2740 c3        1 59W      0.067800
      4 N2         -0.0530   -1.9050   -2.5260 n4        1 59W     -0.758000
      5 C3         -1.0820   -1.3650   -3.4670 c3        1 59W      0.100800
      6 C4         -1.2010   -2.1980   -4.7440 c3        1 59W     -0.048100
      7 N1'         5.1440   -0.4580   -2.5220 n3        1 59W     -0.782200
      8 C11        -2.1830   -1.5430   -5.6520 ca        1 59W     -0.106300
      9 C12        -1.8080   -0.3960   -6.3570 ca        1 59W     -0.172000
     10 C13        -2.7260    0.2090   -7.2340 ca        1 59W      0.147900
     11 F13        -2.3660    1.3210   -7.9120 f         1 59W     -0.117900
     12 C14        -4.0130   -0.3390   -7.4050 ca        1 59W     -0.132000
     13 C15        -4.3650   -1.4840   -6.6980 ca        1 59W     -0.088000
     14 C16        -3.4590   -2.0870   -5.8230 ca        1 59W     -0.127000
     15 N1A         5.8760   -1.3160    2.5360 nb        1 59W     -0.662000
     16 C2'         3.7250   -0.1590   -2.4560 c3        1 59W      0.147800
     17 C2A         5.7020   -2.1170    1.4650 ca        1 59W      0.451600
     18 C3'         3.2080   -0.4380   -1.0170 c3        1 59W      0.103100
     19 C3A         6.6390   -3.1300    1.1210 ca        1 59W     -0.187300
     20 C4'         4.4760   -0.6450   -0.1580 c3        1 59W     -0.105700
     21 C4A         7.7710   -3.3110    1.9050 ca        1 59W     -0.058000
     22 C5'         5.6540   -0.5530   -1.1610 c3        1 59W      0.149800
     23 C5A         7.9770   -2.4910    3.0240 ca        1 59W     -0.190300
     24 C6A         6.9980   -1.5140    3.2870 ca        1 59W      0.445200
     25 N6A         7.1690   -0.6200    4.4550 n4        1 59W     -0.818300
     26 C7A         4.4730   -1.9490    0.6120 c3        1 59W     -0.123700
     27 H1          1.0160   -2.6350   -0.0190 h1        1 59W      0.090700
     28 H1A         1.2330   -0.8960    0.5240 h1        1 59W      0.090700
     29 H2         -0.9360   -1.1830   -0.7190 hx        1 59W      0.114700
     30 H2A         0.2080   -0.0270   -1.5660 hx        1 59W      0.114700
     31 HN2        -0.2820   -2.8780   -2.2930 hn        1 59W      0.454300
     32 H3         -2.0720   -1.3460   -2.9260 hx        1 59W      0.112700
     33 H3A        -0.7940   -0.3050   -3.7290 hx        1 59W      0.112700
     34 H4         -0.2050   -2.2680   -5.2600 hc        1 59W      0.072700
     35 H4A        -1.5370   -3.2410   -4.4980 hc        1 59W      0.072700
     36 HN1'        5.3150   -1.3040   -3.0330 hn        1 59W      0.369800
     37 H12        -0.8010    0.0310   -6.2530 ha        1 59W      0.141000
     38 H14        -4.7220    0.1410   -8.1000 ha        1 59W      0.175000
     39 H15        -5.3670   -1.9220   -6.8350 ha        1 59W      0.162000
     40 H16        -3.7530   -2.9990   -5.2810 ha        1 59W      0.141000
     41 H2'         3.1380   -0.7520   -3.2060 h1        1 59W      0.062700
     42 H2'A        3.5960    0.9360   -2.6810 h1        1 59W      0.062700
     43 H3'         2.6060    0.4250   -0.6330 h1        1 59W      0.066700
     44 H3AA        6.4600   -3.7640    0.2360 ha        1 59W      0.182000
     45 H4'         4.5480    0.2100    0.5660 hc        1 59W      0.080700
     46 H4AA        8.5130   -4.0930    1.6580 ha        1 59W      0.191000
     47 H5'         6.3480   -1.4290   -1.0430 h1        1 59W      0.061200
     48 H5'A        6.2430    0.3850   -0.9600 h1        1 59W      0.061200
     49 H5A         8.8710   -2.6260    3.6520 ha        1 59W      0.179000
     50 HN6A        7.2650    0.3530    4.1390 hn        1 59W      0.474800
     51 HN6B        6.3500   -0.6880    5.0750 hn        1 59W      0.474800
     52 H7A         4.4110   -2.8120   -0.1060 hc        1 59W      0.075200
     53 H7AA        3.5550   -1.9910    1.2610 hc        1 59W      0.075200
     54 H22         0.8710   -1.9060   -2.9820 hn        1 59W      0.454300
     55 H6A3        8.0110   -0.8970    4.9710 hn        1 59W      0.474800
@<TRIPOS>BOND
     1    1    2 1   
     2    1    3 1   
     3    1   27 1   
     4    1   28 1   
     5    2   18 1   
     6    3    4 1   
     7    3   29 1   
     8    3   30 1   
     9    4    5 1   
    10    4   31 1   
    11    4   54 1   
    12    5    6 1   
    13    5   32 1   
    14    5   33 1   
    15    6    8 1   
    16    6   34 1   
    17    6   35 1   
    18    7   16 1   
    19    7   22 1   
    20    7   36 1   
    21    8    9 ar  
    22    8   14 ar  
    23    9   10 ar  
    24    9   37 1   
    25   10   11 1   
    26   10   12 ar  
    27   12   13 ar  
    28   12   38 1   
    29   13   14 ar  
    30   13   39 1   
    31   14   40 1   
    32   15   17 ar  
    33   15   24 ar  
    34   16   18 1   
    35   16   41 1   
    36   16   42 1   
    37   17   19 ar  
    38   17   26 1   
    39   18   20 1   
    40   18   43 1   
    41   19   21 ar  
    42   19   44 1   
    43   20   22 1   
    44   20   26 1   
    45   20   45 1   
    46   21   23 ar  
    47   21   46 1   
    48   22   47 1   
    49   22   48 1   
    50   23   24 ar  
    51   23   49 1   
    52   24   25 1   
    53   25   50 1   
    54   25   51 1   
    55   25   55 1   
    56   26   52 1   
    57   26   53 1   
@<TRIPOS>SUBSTRUCTURE
     1 59W         1 TEMP              0 ****  ****    0 ROOT
