@<TRIPOS>MOLECULE
59W
   53    55     1     0     0
SMALL
bcc


@<TRIPOS>ATOM
      1 C1         -0.3780    3.4450   -0.6240 c3        1 59W      0.123400
      2 O1         -1.2470    2.4240   -0.1370 os        1 59W     -0.430600
      3 C2          1.0400    3.0560   -0.1920 c3        1 59W      0.164800
      4 N2          1.5280    1.8670   -0.8610 n3        1 59W     -0.823200
      5 C3          2.7530    1.3570   -0.2780 c3        1 59W      0.165800
      6 C4          3.1790    0.0130   -0.8770 c3        1 59W     -0.044100
      7 N1'        -4.2100    2.7880    1.3500 n3        1 59W     -0.788200
      8 C11         4.4930   -0.4100   -0.3200 ca        1 59W     -0.053300
      9 C12         4.5580   -1.4330    0.6290 ca        1 59W     -0.164000
     10 C13         5.8070   -1.8310    1.1380 ca        1 59W      0.125900
     11 F13         5.8710   -2.8240    2.0580 f         1 59W     -0.142900
     12 C14         6.9890   -1.2070    0.7000 ca        1 59W     -0.168000
     13 C15         6.9060   -0.1890   -0.2460 ca        1 59W     -0.104000
     14 C16         5.6710    0.2090   -0.7550 ca        1 59W     -0.143000
     15 N1A        -3.5450   -1.9230    0.7470 nb        1 59W     -0.727000
     16 C2'        -3.3120    3.5690    0.5090 c3        1 59W      0.118800
     17 C2A        -3.1550   -1.2050   -0.3280 ca        1 59W      0.449600
     18 C3'        -2.6090    2.6260   -0.5030 c3        1 59W      0.114100
     19 C3A        -3.3530   -1.6360   -1.6580 ca        1 59W     -0.295300
     20 C4'        -3.3660    1.2820   -0.4060 c3        1 59W     -0.081700
     21 C4A        -3.9820   -2.8600   -1.8770 ca        1 59W     -0.058000
     22 C5'        -4.4320    1.5040    0.6930 c3        1 59W      0.139800
     23 C5A        -4.4020   -3.6220   -0.7940 ca        1 59W     -0.301300
     24 C6A        -4.1800   -3.1190    0.5240 ca        1 59W      0.631200
     25 N6A        -4.6920   -3.8290    1.6220 nh        1 59W     -0.924500
     26 C7A        -2.4540    0.1080   -0.1050 c3        1 59W     -0.120700
     27 H1         -0.4640    3.5220   -1.7400 h1        1 59W      0.038200
     28 H1A        -0.6520    4.4280   -0.1590 h1        1 59W      0.038200
     29 H2          1.7270    3.9070   -0.4620 h1        1 59W      0.040700
     30 H2A         1.0460    2.9500    0.9330 h1        1 59W      0.040700
     31 HN2         0.8150    1.1580   -0.8670 hn        1 59W      0.366800
     32 H3          3.5630    2.1160   -0.4760 h1        1 59W      0.034200
     33 H3A         2.6760    1.2360    0.8440 h1        1 59W      0.034200
     34 H4          2.3980   -0.7640   -0.6590 hc        1 59W      0.058700
     35 H4A         3.2600    0.1040   -1.9930 hc        1 59W      0.058700
     36 HN1'       -3.7950    2.6440    2.2530 hn        1 59W      0.351800
     37 H12         3.6440   -1.9330    0.9820 ha        1 59W      0.149000
     38 H14         7.9590   -1.5270    1.1050 ha        1 59W      0.148000
     39 H15         7.8260    0.3040   -0.5950 ha        1 59W      0.137000
     40 H16         5.6170    1.0140   -1.5040 ha        1 59W      0.139000
     41 H2'        -3.9370    4.3150   -0.0530 h1        1 59W      0.054700
     42 H2'A       -2.5530    4.1270    1.1170 h1        1 59W      0.054700
     43 H3'        -2.6710    3.0420   -1.5430 h1        1 59W      0.049700
     44 H3AA       -3.0120   -1.0140   -2.4940 ha        1 59W      0.142000
     45 H4'        -3.8810    1.0980   -1.3870 hc        1 59W      0.060700
     46 H4AA       -4.1460   -3.2240   -2.9020 ha        1 59W      0.135000
     47 H5'        -4.4280    0.6600    1.4330 h1        1 59W      0.061700
     48 H5'A       -5.4510    1.5440    0.2180 h1        1 59W      0.061700
     49 H5A        -4.9040   -4.5860   -0.9470 ha        1 59W      0.141000
     50 HN6A       -4.3590   -3.5470    2.5180 hn        1 59W      0.402300
     51 HN6B       -4.7040   -4.8150    1.4880 hn        1 59W      0.402300
     52 H7A        -2.0650    0.1960    0.9440 hc        1 59W      0.068200
     53 H7AA       -1.5640    0.1470   -0.7920 hc        1 59W      0.068200
@<TRIPOS>BOND
     1    1    2 1   
     2    1    3 1   
     3    1   27 1   
     4    1   28 1   
     5    2   18 1   
     6    3    4 1   
     7    3   29 1   
     8    3   30 1   
     9    4    5 1   
    10    4   31 1   
    11    5    6 1   
    12    5   32 1   
    13    5   33 1   
    14    6    8 1   
    15    6   34 1   
    16    6   35 1   
    17    7   16 1   
    18    7   22 1   
    19    7   36 1   
    20    8    9 ar  
    21    8   14 ar  
    22    9   10 ar  
    23    9   37 1   
    24   10   11 1   
    25   10   12 ar  
    26   12   13 ar  
    27   12   38 1   
    28   13   14 ar  
    29   13   39 1   
    30   14   40 1   
    31   15   17 ar  
    32   15   24 ar  
    33   16   18 1   
    34   16   41 1   
    35   16   42 1   
    36   17   19 ar  
    37   17   26 1   
    38   18   20 1   
    39   18   43 1   
    40   19   21 ar  
    41   19   44 1   
    42   20   22 1   
    43   20   26 1   
    44   20   45 1   
    45   21   23 ar  
    46   21   46 1   
    47   22   47 1   
    48   22   48 1   
    49   23   24 ar  
    50   23   49 1   
    51   24   25 1   
    52   25   50 1   
    53   25   51 1   
    54   26   52 1   
    55   26   53 1   
@<TRIPOS>SUBSTRUCTURE
     1 59W         1 TEMP              0 ****  ****    0 ROOT
