@<TRIPOS>MOLECULE
59W
   54    56     1     0     0
SMALL
bcc


@<TRIPOS>ATOM
      1 C1         -0.2470   -0.2260    0.3200 c3        1 59W      0.107400
      2 O1          1.1710   -0.2570    0.2570 os        1 59W     -0.467600
      3 C2         -0.7350   -0.2680   -1.1340 c3        1 59W      0.102800
      4 N2         -0.0890   -1.3660   -1.9130 n4        1 59W     -0.760000
      5 C3         -0.4470   -1.3180   -3.3610 c3        1 59W      0.101800
      6 C4          0.1950   -2.4530   -4.1600 c3        1 59W     -0.051100
      7 N1'         3.3690    1.8220    1.5310 n3        1 59W     -0.783200
      8 C11        -0.1720   -2.2990   -5.5950 ca        1 59W     -0.098300
      9 C12         0.4880   -1.3460   -6.3750 ca        1 59W     -0.167000
     10 C13         0.1560   -1.2140   -7.7350 ca        1 59W      0.144900
     11 F13         0.7900   -0.2900   -8.4910 f         1 59W     -0.121900
     12 C14        -0.8320   -2.0390   -8.3090 ca        1 59W     -0.138000
     13 C15        -1.4720   -2.9860   -7.5170 ca        1 59W     -0.092000
     14 C16        -1.1500   -3.1190   -6.1650 ca        1 59W     -0.130000
     15 N1A         5.6970   -1.7470   -0.8060 nb        1 59W     -0.742000
     16 C2'         1.9970    1.4360    1.8220 c3        1 59W      0.126800
     17 C2A         4.8080   -2.1400    0.1330 ca        1 59W      0.430600
     18 C3'         1.8220   -0.0740    1.5240 c3        1 59W      0.114100
     19 C3A         5.0660   -3.1560    1.0710 ca        1 59W     -0.298300
     20 C4'         3.2570   -0.6360    1.4070 c3        1 59W     -0.085700
     21 C4A         6.3080   -3.7940    1.0380 ca        1 59W     -0.048000
     22 C5'         4.1770    0.6080    1.4670 c3        1 59W      0.142800
     23 C5A         7.2450   -3.4230    0.0860 ca        1 59W     -0.292300
     24 C6A         6.9080   -2.3900   -0.8490 ca        1 59W      0.650200
     25 N6A         7.8020   -2.0800   -1.8750 nh        1 59W     -0.933500
     26 C7A         3.4630   -1.4650    0.1560 c3        1 59W     -0.108700
     27 H1         -0.6240   -1.1070    0.9060 h1        1 59W      0.072700
     28 H1A        -0.6110    0.7250    0.7930 h1        1 59W      0.072700
     29 H2         -1.8510   -0.4170   -1.1530 hx        1 59W      0.112200
     30 H2A        -0.4800    0.7060   -1.6430 hx        1 59W      0.112200
     31 HN2        -0.3650   -2.2720   -1.5190 hn        1 59W      0.459800
     32 H3         -0.1040   -0.3240   -3.7720 hx        1 59W      0.109200
     33 H3A        -1.5700   -1.3750   -3.4440 hx        1 59W      0.109200
     34 H4         -0.1580   -3.4480   -3.7760 hc        1 59W      0.074700
     35 H4A         1.3140   -2.4220   -4.0530 hc        1 59W      0.074700
     36 HN1'        3.4180    2.3240    0.6640 hn        1 59W      0.357800
     37 H12         1.2750   -0.7070   -5.9470 ha        1 59W      0.147000
     38 H14        -1.0790   -1.9300   -9.3760 ha        1 59W      0.169000
     39 H15        -2.2400   -3.6390   -7.9620 ha        1 59W      0.157000
     40 H16        -1.6600   -3.8810   -5.5570 ha        1 59W      0.139000
     41 H2'         1.8190    1.6130    2.9190 h1        1 59W      0.062200
     42 H2'A        1.2580    2.0460    1.2390 h1        1 59W      0.062200
     43 H3'         1.2360   -0.5930    2.3250 h1        1 59W      0.063700
     44 H3AA        4.3090   -3.4360    1.8140 ha        1 59W      0.139000
     45 H4'         3.4530   -1.2780    2.3080 hc        1 59W      0.078700
     46 H4AA        6.5430   -4.5870    1.7640 ha        1 59W      0.147000
     47 H5'         4.8800    0.6270    0.5920 h1        1 59W      0.072200
     48 H5'A        4.7940    0.5680    2.4070 h1        1 59W      0.072200
     49 H5A         8.2250   -3.9160    0.0410 ha        1 59W      0.153000
     50 HN6A        7.6450   -1.2360   -2.3770 hn        1 59W      0.416800
     51 HN6B        8.7550   -2.2810   -1.6740 hn        1 59W      0.416800
     52 H7A         2.6760   -2.2660    0.1170 hc        1 59W      0.042200
     53 H7AA        3.3220   -0.8110   -0.7470 hc        1 59W      0.042200
     54 H22         0.9350   -1.2800   -1.8010 hn        1 59W      0.459800
@<TRIPOS>BOND
     1    1    2 1   
     2    1    3 1   
     3    1   27 1   
     4    1   28 1   
     5    2   18 1   
     6    3    4 1   
     7    3   29 1   
     8    3   30 1   
     9    4    5 1   
    10    4   31 1   
    11    4   54 1   
    12    5    6 1   
    13    5   32 1   
    14    5   33 1   
    15    6    8 1   
    16    6   34 1   
    17    6   35 1   
    18    7   16 1   
    19    7   22 1   
    20    7   36 1   
    21    8    9 ar  
    22    8   14 ar  
    23    9   10 ar  
    24    9   37 1   
    25   10   11 1   
    26   10   12 ar  
    27   12   13 ar  
    28   12   38 1   
    29   13   14 ar  
    30   13   39 1   
    31   14   40 1   
    32   15   17 ar  
    33   15   24 ar  
    34   16   18 1   
    35   16   41 1   
    36   16   42 1   
    37   17   19 ar  
    38   17   26 1   
    39   18   20 1   
    40   18   43 1   
    41   19   21 ar  
    42   19   44 1   
    43   20   22 1   
    44   20   26 1   
    45   20   45 1   
    46   21   23 ar  
    47   21   46 1   
    48   22   47 1   
    49   22   48 1   
    50   23   24 ar  
    51   23   49 1   
    52   24   25 1   
    53   25   50 1   
    54   25   51 1   
    55   26   52 1   
    56   26   53 1   
@<TRIPOS>SUBSTRUCTURE
     1 59W         1 TEMP              0 ****  ****    0 ROOT
