@<TRIPOS>MOLECULE
59X
   47    50     1     0     0
SMALL
bcc


@<TRIPOS>ATOM
      1 C4          0.1170    0.6070    0.0060 ca        1 59X      0.420600
      2 C5          1.5330    0.3840   -0.0570 ca        1 59X     -0.317400
      3 C6          2.2800    0.5440    1.1610 ca        1 59X      0.692200
      4 N1          1.6290    0.8700    2.3090 nb        1 59X     -0.751000
      5 N3         -0.5250    0.9440    1.1570 nb        1 59X     -0.675000
      6 FAC         1.4640   -2.1690   -5.2080 f         1 59X     -0.245300
      7 CAF         1.3330   -1.8630   -3.8680 c3        1 59X      0.162900
      8 CAS         0.8780   -0.0470   -2.2440 cc        1 59X     -0.125600
      9 SAQ        -0.5900    0.3660   -1.5090 ss        1 59X      0.006100
     10 CAE         1.9390   -0.0050   -1.3730 cd        1 59X     -0.093200
     11 C2          0.2740    1.0430    2.2360 ca        1 59X      0.659900
     12 NAX         3.6810    0.2850    1.1420 nh        1 59X     -0.733300
     13 CAK         4.4570    1.2490    0.3650 c3        1 59X      0.148300
     14 CAI         5.9260    0.7990    0.2140 c3        1 59X      0.171800
     15 CAJ         4.2960   -0.0190    2.4290 c3        1 59X      0.148300
     16 CAH         5.7720   -0.4470    2.2680 c3        1 59X      0.171800
     17 NAW         6.5840    0.4600    1.4660 nh        1 59X     -0.664600
     18 CAR         7.1990    1.5080    2.1860 c2        1 59X      0.630100
     19 SAP         8.0900    1.0480    3.6550 ss        1 59X     -0.310300
     20 CAY         8.6850    2.7440    3.9030 c3        1 59X      0.015100
     21 CAA         8.1710    3.2580    5.2240 c3        1 59X     -0.083600
     22 CAB        10.1930    2.7430    3.8750 c3        1 59X     -0.083600
     23 CAL         8.1010    3.5590    2.7160 c3        1 59X      0.107800
     24 NAM         7.2630    2.7720    1.8500 n2        1 59X     -0.643900
     25 H1          2.3120   -2.0670   -3.3520 h1        1 59X      0.048700
     26 H2          0.5440   -2.5310   -3.4220 h1        1 59X      0.048700
     27 H3          1.7040    0.2550   -4.1890 hc        1 59X      0.068200
     28 H4         -0.0430   -0.2070   -4.1720 hc        1 59X      0.068200
     29 H5          2.9720   -0.2580   -1.6290 ha        1 59X      0.165000
     30 H6         -0.2190    1.3080    3.1960 h5        1 59X      0.056100
     31 H7          4.0050    1.3370   -0.6610 h1        1 59X      0.060700
     32 H8          4.4360    2.2710    0.8450 h1        1 59X      0.060700
     33 H9          6.4860    1.6110   -0.3240 h1        1 59X      0.075950
     34 H10         5.9650   -0.1340   -0.4180 h1        1 59X      0.075950
     35 H11         4.2460    0.8580    3.1370 h1        1 59X      0.060700
     36 H12         3.7330   -0.8760    2.8930 h1        1 59X      0.060700
     37 H13         5.8170   -1.4470    1.7500 h1        1 59X      0.075950
     38 H14         6.2150   -0.5580    3.2990 h1        1 59X      0.075950
     39 H15         8.5200    4.3070    5.3890 hc        1 59X      0.048200
     40 H16         8.5490    2.6260    6.0640 hc        1 59X      0.048200
     41 H17         7.0540    3.2480    5.2470 hc        1 59X      0.048200
     42 H18        10.5990    2.1170    4.7080 hc        1 59X      0.048200
     43 H19        10.5790    3.7850    3.9970 hc        1 59X      0.048200
     44 H20        10.5720    2.3340    2.9070 hc        1 59X      0.048200
     45 H21         8.9400    3.9900    2.1000 h1        1 59X      0.074700
     46 H22         7.4850    4.4170    3.1050 h1        1 59X      0.074700
     47 CAG         0.9450   -0.3930   -3.6720 c3        1 59X     -0.049200
@<TRIPOS>BOND
     1    1    2 ar  
     2    1    5 ar  
     3    1    9 1   
     4    2    3 ar  
     5    2   10 1   
     6    3    4 ar  
     7    3   12 1   
     8    4   11 ar  
     9    5   11 ar  
    10    6    7 1   
    11    7   25 1   
    12    7   26 1   
    13    7   47 1   
    14    8    9 1   
    15    8   10 2   
    16    8   47 1   
    17   10   29 1   
    18   11   30 1   
    19   12   13 1   
    20   12   15 1   
    21   13   14 1   
    22   13   31 1   
    23   13   32 1   
    24   14   17 1   
    25   14   33 1   
    26   14   34 1   
    27   15   16 1   
    28   15   35 1   
    29   15   36 1   
    30   16   17 1   
    31   16   37 1   
    32   16   38 1   
    33   17   18 1   
    34   18   19 1   
    35   18   24 2   
    36   19   20 1   
    37   20   21 1   
    38   20   22 1   
    39   20   23 1   
    40   21   39 1   
    41   21   40 1   
    42   21   41 1   
    43   22   42 1   
    44   22   43 1   
    45   22   44 1   
    46   23   24 1   
    47   23   45 1   
    48   23   46 1   
    49   27   47 1   
    50   28   47 1   
@<TRIPOS>SUBSTRUCTURE
     1 59X         1 TEMP              0 ****  ****    0 ROOT
