@<TRIPOS>MOLECULE
59X
   47    48     1     0     0
SMALL
bcc


@<TRIPOS>ATOM
      1 C4          0.8840   -1.6620    0.2410 c2        1 59X     -0.045000
      2 C5          1.8330   -0.5650   -0.0170 c2        1 59X     -0.342000
      3 C6          2.3240    0.1810    1.1200 c2        1 59X      0.295000
      4 N1          1.8460   -0.2380    2.3640 n7        1 59X     -0.259000
      5 N3          0.4700   -1.9910    1.4680 n2        1 59X     -0.245000
      6 FAC         0.8370    0.8020   -5.2140 f         1 59X     -0.178000
      7 CAF         1.5720    0.1470   -4.2450 c3        1 59X      0.010000
      8 CAS         1.4960   -1.3220   -2.2370 c3        1 59X     -0.226000
      9 SAQ         0.4220   -2.4040   -1.1970 ss        1 59X      0.242000
     10 CAE         2.1530   -0.3640   -1.3470 c1        1 59X     -0.124000
     11 C2          0.9480   -1.2890    2.5190 c1        1 59X      0.034000
     12 NAX         3.1680    1.2520    0.9720 n3        1 59X     -0.230000
     13 CAK         3.7040    1.5770   -0.3290 c3        1 59X     -0.069000
     14 CAI         6.4090    0.0550    1.8870 c1        1 59X     -0.164000
     15 CAJ         3.6250    2.0260    2.1060 c3        1 59X     -0.062000
     16 CAH         4.7350    1.3830    2.9620 c3        1 59X     -0.056000
     17 NAW         6.0170    1.2330    2.2870 n3        1 59X     -0.058000
     18 CAR         6.7950    2.4450    2.2070 c2        1 59X     -0.488000
     19 SAP         7.3940    3.1940    3.5910 ss        1 59X      0.254000
     20 CAY         9.0310    2.5170    3.8400 c3        1 59X     -0.244000
     21 CAA         9.6460    3.4150    4.8830 c3        1 59X     -0.205000
     22 CAB         9.0150    1.0790    4.2850 c3        1 59X     -0.205000
     23 CAL         7.2040    3.4790   -0.0340 c1        1 59X     -0.169000
     24 NAM         7.0030    2.9990    1.0120 n2        1 59X      0.145000
     25 H1          0.1420   -1.4650   -3.9190 hc        1 59X      0.106000
     26 H2          2.3150   -0.5270   -4.7540 h1        1 59X      0.091500
     27 H3          2.1340    0.9080   -3.6330 h1        1 59X      0.091500
     28 H4         -0.1100   -0.0080   -2.8760 hc        1 59X      0.106000
     29 H5          2.2760   -1.9970   -2.6820 h1        1 59X      0.157000
     30 H6          2.1650    0.2000    3.2000 hn        1 59X      0.250000
     31 H7          2.8680    1.8790   -1.0200 h1        1 59X      0.103333
     32 H8          4.4380    2.4200   -0.2360 h1        1 59X      0.103333
     33 H9          4.2180    0.6800   -0.7750 h1        1 59X      0.103333
     34 H10         7.4060   -0.0120    1.4070 ha        1 59X      0.052000
     35 H11         4.4180    0.3610    3.3150 h1        1 59X      0.125000
     36 H12         3.9890    3.0240    1.7240 h1        1 59X      0.110000
     37 H13         2.7550    2.2430    2.7920 h1        1 59X      0.110000
     38 H14         4.8840    2.0520    3.8600 h1        1 59X      0.125000
     39 H15         9.0470    3.3940    5.8260 hc        1 59X      0.084333
     40 H16        10.6820    3.0700    5.1210 hc        1 59X      0.084333
     41 H17         9.6990    4.4690    4.5170 hc        1 59X      0.084333
     42 H18         8.4550    0.9670    5.2440 hc        1 59X      0.084333
     43 H19        10.0590    0.7130    4.4430 hc        1 59X      0.084333
     44 H20         8.5290    0.4330    3.5120 hc        1 59X      0.084333
     45 H21         9.6080    2.5970    2.8830 h1        1 59X      0.101000
     46 H22         7.4180    3.9290   -0.9770 ha        1 59X      0.307000
     47 CAG         0.6720   -0.6770   -3.3220 c3        1 59X     -0.158000
@<TRIPOS>BOND
     1    1    2 1   
     2    1    5 1   
     3    1    9 1   
     4    2    3 1   
     5    2   10 1   
     6    3    4 1   
     7    3   12 1   
     8    4   11 1   
     9    4   30 1   
    10    5   11 1   
    11    6    7 1   
    12    7   26 1   
    13    7   27 1   
    14    7   47 1   
    15    8    9 1   
    16    8   10 1   
    17    8   29 1   
    18    8   47 1   
    19   12   13 1   
    20   12   15 1   
    21   13   31 1   
    22   13   32 1   
    23   13   33 1   
    24   14   17 1   
    25   14   34 1   
    26   15   16 1   
    27   15   36 1   
    28   15   37 1   
    29   16   17 1   
    30   16   35 1   
    31   16   38 1   
    32   17   18 1   
    33   18   19 1   
    34   18   24 1   
    35   19   20 1   
    36   20   21 1   
    37   20   22 1   
    38   20   45 1   
    39   21   39 1   
    40   21   40 1   
    41   21   41 1   
    42   22   42 1   
    43   22   43 1   
    44   22   44 1   
    45   23   24 1   
    46   23   46 1   
    47   25   47 1   
    48   28   47 1   
@<TRIPOS>SUBSTRUCTURE
     1 59X         1 TEMP              0 ****  ****    0 ROOT
