@<TRIPOS>MOLECULE
59Y
   35    38     1     0     0
SMALL
bcc


@<TRIPOS>ATOM
      1 C1         -0.3760    0.3590    0.1930 cp        1 59Y     -0.088300
      2 C2          0.9120    0.8510    0.0900 ca        1 59Y     -0.133000
      3 C3          1.7460    0.9730    1.2200 ca        1 59Y     -0.165000
      4 C11        -0.5280   -0.3160    3.8840 ca        1 59Y     -0.127000
      5 C12        -1.7910   -0.8280    3.9730 ca        1 59Y     -0.208300
      6 C13        -2.5890   -0.9550    2.7770 ca        1 59Y      0.403800
      7 C15        -3.9930   -1.5870    2.9720 c         1 59Y      0.826100
      8 C16        -2.2050    1.2060   -3.0380 ca        1 59Y     -0.039000
      9 C17        -1.4620    1.3740   -1.8390 ca        1 59Y     -0.021000
     10 C18        -1.0260    2.6840   -1.4930 ca        1 59Y     -0.106000
     11 C19        -1.2880    3.7560   -2.3090 ca        1 59Y     -0.148000
     12 C20        -2.0060    3.5790   -3.5150 ca        1 59Y     -0.140000
     13 C21        -2.4580    2.3330   -3.8680 ca        1 59Y     -0.123000
     14 C4          1.2840    0.6000    2.4590 ca        1 59Y     -0.104000
     15 C5         -1.2000    0.2340   -1.0150 cp        1 59Y     -0.003000
     16 C6         -2.6990   -0.0810   -3.3820 ca        1 59Y     -0.137000
     17 C7         -1.7100   -0.9990   -1.3750 ca        1 59Y     -0.082000
     18 C8         -2.4640   -1.1540   -2.5600 ca        1 59Y     -0.116000
     19 C9         -0.8830   -0.0560    1.4750 ca        1 59Y      0.417600
     20 C10        -0.0230    0.0850    2.6100 ca        1 59Y     -0.167300
     21 N14        -2.1610   -0.5760    1.5830 nb        1 59Y     -0.665000
     22 O22        -4.1130   -2.7960    2.6550 o         1 59Y     -0.802300
     23 O23        -4.8690   -0.8480    3.4860 o         1 59Y     -0.802300
     24 H1          1.3010    1.1550   -0.8940 ha        1 59Y      0.124000
     25 H2          2.7640    1.3680    1.0930 ha        1 59Y      0.115000
     26 H3          0.1170   -0.2030    4.7660 ha        1 59Y      0.114000
     27 H4         -2.2370   -1.1470    4.9250 ha        1 59Y      0.148000
     28 H7         -2.2030    4.4510   -4.1550 ha        1 59Y      0.117000
     29 H8         -3.0300    2.1820   -4.7950 ha        1 59Y      0.120000
     30 H9          1.9230    0.6940    3.3500 ha        1 59Y      0.117000
     31 H10        -3.2810   -0.1930   -4.3080 ha        1 59Y      0.120000
     32 H11        -1.5510   -1.8770   -0.7280 ha        1 59Y      0.159000
     33 H12        -2.8660   -2.1490   -2.8040 ha        1 59Y      0.130000
     34 H5         -0.4830    2.8240   -0.5440 ha        1 59Y      0.144000
     35 H6         -0.9520    4.7660   -2.0310 ha        1 59Y      0.120000
@<TRIPOS>BOND
     1    1    2 ar  
     2    1   15 1   
     3    1   19 ar  
     4    2    3 ar  
     5    2   24 1   
     6    3   14 ar  
     7    3   25 1   
     8    4    5 ar  
     9    4   20 ar  
    10    4   26 1   
    11    5    6 ar  
    12    5   27 1   
    13    6    7 1   
    14    6   21 ar  
    15    7   22 1   
    16    7   23 1   
    17    8    9 ar  
    18    8   13 ar  
    19    8   16 ar  
    20    9   10 ar  
    21    9   15 ar  
    22   10   11 ar  
    23   10   34 1   
    24   11   12 ar  
    25   11   35 1   
    26   12   13 ar  
    27   12   28 1   
    28   13   29 1   
    29   14   20 ar  
    30   14   30 1   
    31   15   17 ar  
    32   16   18 ar  
    33   16   31 1   
    34   17   18 ar  
    35   17   32 1   
    36   18   33 1   
    37   19   20 ar  
    38   19   21 ar  
@<TRIPOS>SUBSTRUCTURE
     1 59Y         1 TEMP              0 ****  ****    0 ROOT
