@<TRIPOS>MOLECULE
5A0
   47    48     1     0     0
SMALL
bcc


@<TRIPOS>ATOM
      1 C4          0.7810   -1.4460   -0.2530 c2        1 5A0     -0.200000
      2 C5          1.7520   -0.4650   -0.0320 c2        1 5A0     -0.128000
      3 C6          2.4060   -0.2060    1.2780 c2        1 5A0      0.142000
      4 N1          1.7430   -0.0490    2.3840 n2        1 5A0     -0.282000
      5 N3          0.3170   -2.3520    0.6480 n2        1 5A0     -0.276000
      6 FAC        -1.8660   -1.8110   -6.2360 f         1 5A0     -0.124500
      7 CAW        -0.9160   -0.9160   -6.1140 c1        1 5A0      0.252000
      8 FAD        -0.7680   -0.3780   -7.3000 f         1 5A0     -0.124500
      9 CAS         1.2240   -0.1020   -2.2720 c2        1 5A0     -0.362000
     10 SAQ         0.2260   -1.3830   -1.8640 ss        1 5A0      0.579000
     11 CAF         2.0020    0.3050   -1.2060 c2        1 5A0     -0.125000
     12 C2         -0.0740   -3.1450    1.4380 c1        1 5A0      0.163000
     13 NAY         3.8280   -0.0530    1.2040 n3        1 5A0     -0.232000
     14 CAJ         4.5110   -1.1300    0.4980 c3        1 5A0     -0.085000
     15 CAH         6.0130   -0.8320    0.3030 c3        1 5A0     -0.065500
     16 CAI         4.4950    0.3420    2.4380 c3        1 5A0     -0.085000
     17 CAG         6.0020    0.6080    2.2290 c3        1 5A0     -0.065500
     18 NAX         6.7160   -0.4450    1.5170 n3        1 5A0     -0.197000
     19 CAR         7.2370   -1.4740    2.3290 c2        1 5A0     -0.029000
     20 SAP         8.1550   -0.9670    3.7670 ss        1 5A0      0.092000
     21 CAZ         8.6090   -2.6780    4.1610 c3        1 5A0     -0.167000
     22 CAA        10.1130   -2.8010    4.1530 c3        1 5A0     -0.200500
     23 CAB         8.0460   -3.0380    5.5140 c3        1 5A0     -0.200500
     24 CAK         7.9680   -3.5400    3.0380 c3        1 5A0     -0.095000
     25 NAM         7.2030   -2.7630    2.0990 n2        1 5A0     -0.233000
     26 H1          0.9490    1.5690   -3.5680 hc        1 5A0      0.096333
     27 H2          0.5220   -0.0370   -4.3010 hc        1 5A0      0.096333
     28 H3          2.2630    0.4220   -4.0590 hc        1 5A0      0.096333
     29 H4          2.7290    1.1210   -1.2310 ha        1 5A0      0.173000
     30 H5          0.7510   -0.0720    2.2840 hn        1 5A0      0.156000
     31 H6          4.4040   -2.1130    1.0420 h1        1 5A0      0.098500
     32 H7          4.0470   -1.2390   -0.5220 h1        1 5A0      0.098500
     33 H8          6.4910   -1.7360   -0.1630 h1        1 5A0      0.113250
     34 H9          6.1300    0.0340   -0.4090 h1        1 5A0      0.113250
     35 H10         4.3690   -0.4360    3.2450 h1        1 5A0      0.098500
     36 H11         4.0270    1.2990    2.8010 h1        1 5A0      0.098500
     37 H12         6.4670    0.7770    3.2410 h1        1 5A0      0.113250
     38 H13         6.1350    1.5440    1.6150 h1        1 5A0      0.113250
     39 H16        10.5620   -2.1430    4.9370 hc        1 5A0      0.087333
     40 H17        10.5290   -2.5070    3.1590 hc        1 5A0      0.087333
     41 H18        10.4110   -3.8570    4.3660 hc        1 5A0      0.087333
     42 H19         8.4700   -2.3710    6.3040 hc        1 5A0      0.087333
     43 H20         6.9340   -2.9350    5.5200 hc        1 5A0      0.087333
     44 H21         8.3070   -4.0950    5.7680 hc        1 5A0      0.087333
     45 H22         7.2820   -4.3100    3.4890 h1        1 5A0      0.113000
     46 H23         8.7740   -4.0870    2.4710 h1        1 5A0      0.113000
     47 CAL         1.2370    0.4880   -3.6150 c3        1 5A0     -0.163000
@<TRIPOS>BOND
     1    1    2 1   
     2    1    5 1   
     3    1   10 1   
     4    2    3 1   
     5    2   11 1   
     6    3    4 1   
     7    3   13 1   
     8    4   30 1   
     9    5   12 1   
    10    6    7 1   
    11    7    8 1   
    12    9   10 1   
    13    9   11 1   
    14    9   47 1   
    15   11   29 1   
    16   13   14 1   
    17   13   16 1   
    18   14   15 1   
    19   14   31 1   
    20   14   32 1   
    21   15   18 1   
    22   15   33 1   
    23   15   34 1   
    24   16   17 1   
    25   16   35 1   
    26   16   36 1   
    27   17   18 1   
    28   17   37 1   
    29   17   38 1   
    30   18   19 1   
    31   19   20 1   
    32   19   25 1   
    33   20   21 1   
    34   21   22 1   
    35   21   23 1   
    36   21   24 1   
    37   22   39 1   
    38   22   40 1   
    39   22   41 1   
    40   23   42 1   
    41   23   43 1   
    42   23   44 1   
    43   24   25 1   
    44   24   45 1   
    45   24   46 1   
    46   26   47 1   
    47   27   47 1   
    48   28   47 1   
@<TRIPOS>SUBSTRUCTURE
     1 5A0         1 TEMP              0 ****  ****    0 ROOT
