@<TRIPOS>MOLECULE
5A0
   47    50     1     0     0
SMALL
bcc


@<TRIPOS>ATOM
      1 C4          0.0610   -0.5930    0.1810 ca        1 5A0      0.418600
      2 C5          1.4780   -0.4030    0.0660 ca        1 5A0     -0.319400
      3 C6          2.2600   -0.5290    1.2670 ca        1 5A0      0.694200
      4 N1          1.6380   -0.7940    2.4460 nb        1 5A0     -0.751000
      5 N3         -0.5520   -0.8700    1.3640 nb        1 5A0     -0.675000
      6 FAC         0.7260   -1.8130   -4.7930 f         1 5A0     -0.244800
      7 CAW         1.5490   -0.7970   -4.3630 c3        1 5A0      0.402900
      8 FAD         2.0310   -0.2830   -5.5480 f         1 5A0     -0.244800
      9 CAS         0.7620   -0.0460   -2.1140 cc        1 5A0     -0.140600
     10 SAQ        -0.6880   -0.3990   -1.3190 ss        1 5A0      0.030100
     11 CAF         1.8500   -0.0710   -1.2740 cd        1 5A0     -0.089200
     12 C2          0.2780   -0.9410    2.4220 ca        1 5A0      0.661900
     13 NAY         3.6640   -0.3000    1.1960 nh        1 5A0     -0.734300
     14 CAJ         4.3970   -1.3070    0.4330 c3        1 5A0      0.148800
     15 CAH         5.8690   -0.8910    0.2190 c3        1 5A0      0.171300
     16 CAI         4.3240    0.0420    2.4510 c3        1 5A0      0.148800
     17 CAG         5.8030    0.4340    2.2280 c3        1 5A0      0.171300
     18 NAX         6.5730   -0.5190    1.4370 nh        1 5A0     -0.664600
     19 CAR         7.1870   -1.5520    2.1790 c2        1 5A0      0.629100
     20 SAP         8.1380   -1.0560    3.5970 ss        1 5A0     -0.309300
     21 CAZ         8.7020   -2.7550    3.8930 c3        1 5A0      0.015100
     22 CAA        10.2080   -2.7920    3.8160 c3        1 5A0     -0.083600
     23 CAB         8.2200   -3.2030    5.2510 c3        1 5A0     -0.083600
     24 CAK         8.0590   -3.6020    2.7610 c3        1 5A0      0.107800
     25 NAM         7.2110   -2.8290    1.8920 n2        1 5A0     -0.643900
     26 H1          2.4020   -1.2200   -3.7520 h2        1 5A0      0.070700
     27 H2         -0.2510    0.3770   -3.9570 hc        1 5A0      0.083700
     28 H3          1.3130    1.2620   -3.7070 hc        1 5A0      0.083700
     29 H4          2.8770    0.1630   -1.5680 ha        1 5A0      0.165000
     30 H5         -0.1900   -1.1570    3.4060 h5        1 5A0      0.057100
     31 H6          4.3730   -2.3090    0.9510 h1        1 5A0      0.060450
     32 H7          3.9120   -1.4250   -0.5750 h1        1 5A0      0.060450
     33 H8          6.3980   -1.7340   -0.3040 h1        1 5A0      0.076450
     34 H9          5.9050    0.0180   -0.4480 h1        1 5A0      0.076450
     35 H10         4.2800   -0.8060    3.1930 h1        1 5A0      0.060450
     36 H11         3.7930    0.9270    2.8980 h1        1 5A0      0.060450
     37 H12         5.8500    1.4130    1.6720 h1        1 5A0      0.076450
     38 H13         6.2800    0.5750    3.2400 h1        1 5A0      0.076450
     39 H16        10.5730   -3.8380    3.9680 hc        1 5A0      0.048700
     40 H17        10.6550   -2.1440    4.6090 hc        1 5A0      0.048700
     41 H18        10.5620   -2.4320    2.8200 hc        1 5A0      0.048700
     42 H19         8.5510   -4.2530    5.4470 hc        1 5A0      0.048700
     43 H20         7.1060   -3.1650    5.3100 hc        1 5A0      0.048700
     44 H21         8.6420   -2.5470    6.0510 hc        1 5A0      0.048700
     45 H22         7.4360   -4.4290    3.2050 h1        1 5A0      0.075200
     46 H23         8.8670   -4.0770    2.1350 h1        1 5A0      0.075200
     47 CAL         0.7890    0.2810   -3.5460 c3        1 5A0     -0.065200
@<TRIPOS>BOND
     1    1    2 ar  
     2    1    5 ar  
     3    1   10 1   
     4    2    3 ar  
     5    2   11 1   
     6    3    4 ar  
     7    3   13 1   
     8    4   12 ar  
     9    5   12 ar  
    10    6    7 1   
    11    7    8 1   
    12    7   26 1   
    13    7   47 1   
    14    9   10 1   
    15    9   11 2   
    16    9   47 1   
    17   11   29 1   
    18   12   30 1   
    19   13   14 1   
    20   13   16 1   
    21   14   15 1   
    22   14   31 1   
    23   14   32 1   
    24   15   18 1   
    25   15   33 1   
    26   15   34 1   
    27   16   17 1   
    28   16   35 1   
    29   16   36 1   
    30   17   18 1   
    31   17   37 1   
    32   17   38 1   
    33   18   19 1   
    34   19   20 1   
    35   19   25 2   
    36   20   21 1   
    37   21   22 1   
    38   21   23 1   
    39   21   24 1   
    40   22   39 1   
    41   22   40 1   
    42   22   41 1   
    43   23   42 1   
    44   23   43 1   
    45   23   44 1   
    46   24   25 1   
    47   24   45 1   
    48   24   46 1   
    49   27   47 1   
    50   28   47 1   
@<TRIPOS>SUBSTRUCTURE
     1 5A0         1 TEMP              0 ****  ****    0 ROOT
