@<TRIPOS>MOLECULE
5A1
   47    47     1     0     0
SMALL
bcc


@<TRIPOS>ATOM
      1 C4         -0.1890   -0.3700    0.1170 c2        1 5A1     -0.178000
      2 C5          1.0610   -0.9850   -0.0490 c2        1 5A1     -0.138000
      3 C6          1.6860   -1.9180    0.9270 c2        1 5A1      0.135000
      4 N1          1.0550   -2.9260    1.4460 n2        1 5A1     -0.276000
      5 N3         -1.0050   -0.4770    1.1970 n2        1 5A1     -0.290000
      6 FAC         1.8850   -1.5520   -4.2450 f         1 5A1     -0.144333
      7 CBB         1.0650   -0.4890   -4.4880 c3        1 5A1      0.377000
      8 FAD         1.3630   -0.0690   -5.7530 f         1 5A1     -0.144333
      9 FAE        -0.2030   -0.9890   -4.5520 f         1 5A1     -0.144333
     10 FAF         2.5280    1.1590   -3.4460 f         1 5A1     -0.131500
     11 FAG         0.5170    1.7960   -3.8310 f         1 5A1     -0.131500
     12 CAU         0.8320    0.2010   -2.0410 c2        1 5A1     -0.523000
     13 SAS        -0.5820    0.5750   -1.2360 ss        1 5A1      0.688000
     14 CAI         1.6450   -0.6440   -1.2980 c2        1 5A1     -0.046000
     15 C2         -1.6990   -0.5750    2.1550 c1        1 5A1      0.195000
     16 NAZ         3.0720   -1.6580    1.1720 n3        1 5A1     -0.230000
     17 CAM         3.3730   -0.3000    1.5700 c3        1 5A1     -0.114000
     18 CAK         6.7260    0.7810    1.6040 c1        1 5A1     -0.017000
     19 CAL         3.7870   -2.6550    1.9380 c3        1 5A1     -0.114000
     20 CAJ         8.9190    1.6750    1.4770 c1        1 5A1     -0.017000
     21 NAY         8.0760    0.6620    1.7400 n3        1 5A1     -0.109000
     22 CAT         8.4750   -0.6510    2.1880 c2        1 5A1     -0.119000
     23 SAR         7.1910   -1.8100    2.4430 ss        1 5A1      0.234000
     24 CBA         8.3900   -3.0810    2.9450 c3        1 5A1     -0.211000
     25 CAA         8.0910   -3.5100    4.3610 c3        1 5A1     -0.200000
     26 CAB         8.2940   -4.2530    1.9990 c3        1 5A1     -0.200000
     27 CAN         9.7850   -2.4020    2.8510 c3        1 5A1     -0.101000
     28 NAO         9.7050   -1.0280    2.4120 n2        1 5A1     -0.189000
     29 H2          2.6240   -1.0160   -1.6250 ha        1 5A1      0.191000
     30 H3          0.1280   -3.0640    1.1050 hn        1 5A1      0.152000
     31 H4          2.9080    0.4170    0.8440 h1        1 5A1      0.086833
     32 H5          3.0010   -0.0590    2.6030 h1        1 5A1      0.086833
     33 H6          4.4910   -0.1640    1.5500 h1        1 5A1      0.086833
     34 H7          6.3990    1.7870    1.2570 ha        1 5A1      0.079000
     35 H8          3.4350   -2.7260    3.0020 h1        1 5A1      0.086833
     36 H9          3.6630   -3.6560    1.4490 h1        1 5A1      0.086833
     37 H10         4.8800   -2.3800    1.9350 h1        1 5A1      0.086833
     38 H11        10.0060    1.5040    1.6090 ha        1 5A1      0.079000
     39 H12         7.0680   -3.9540    4.4260 hc        1 5A1      0.087833
     40 H13         8.1470   -2.6410    5.0590 hc        1 5A1      0.087833
     41 H14         8.8300   -4.2810    4.6930 hc        1 5A1      0.087833
     42 H15         9.0350   -5.0400    2.2850 hc        1 5A1      0.087833
     43 H16         8.5020   -3.9330    0.9490 hc        1 5A1      0.087833
     44 H17         7.2710   -4.7020    2.0390 hc        1 5A1      0.087833
     45 H18        10.4410   -2.9590    2.1250 h1        1 5A1      0.123000
     46 H19        10.2920   -2.4140    3.8570 h1        1 5A1      0.123000
     47 CBC         1.2310    0.7030   -3.3940 c3        1 5A1      0.346000
@<TRIPOS>BOND
     1    1    2 1   
     2    1    5 1   
     3    1   13 1   
     4    2    3 1   
     5    2   14 1   
     6    3    4 1   
     7    3   16 1   
     8    4   30 1   
     9    5   15 1   
    10    6    7 1   
    11    7    8 1   
    12    7    9 1   
    13    7   47 1   
    14   10   47 1   
    15   11   47 1   
    16   12   13 1   
    17   12   14 1   
    18   12   47 1   
    19   14   29 1   
    20   16   17 1   
    21   16   19 1   
    22   17   31 1   
    23   17   32 1   
    24   17   33 1   
    25   18   21 1   
    26   18   34 1   
    27   19   35 1   
    28   19   36 1   
    29   19   37 1   
    30   20   21 1   
    31   20   38 1   
    32   21   22 1   
    33   22   23 1   
    34   22   28 1   
    35   23   24 1   
    36   24   25 1   
    37   24   26 1   
    38   24   27 1   
    39   25   39 1   
    40   25   40 1   
    41   25   41 1   
    42   26   42 1   
    43   26   43 1   
    44   26   44 1   
    45   27   28 1   
    46   27   45 1   
    47   27   46 1   
@<TRIPOS>SUBSTRUCTURE
     1 5A1         1 TEMP              0 ****  ****    0 ROOT
