@<TRIPOS>MOLECULE
5A1
   47    50     1     0     0
SMALL
bcc


@<TRIPOS>ATOM
      1 C4          0.0670   -0.3790    0.2350 ca        1 5A1      0.419600
      2 C5          1.4920   -0.2600    0.1070 ca        1 5A1     -0.339400
      3 C6          2.2730   -0.2940    1.3180 ca        1 5A1      0.713200
      4 N1          1.6390   -0.4060    2.5150 nb        1 5A1     -0.753000
      5 N3         -0.5550   -0.5070    1.4400 nb        1 5A1     -0.681000
      6 FAC         2.7600   -1.6070   -3.7590 f         1 5A1     -0.217633
      7 CBB         1.5120   -1.3040   -4.2250 c3        1 5A1      0.587900
      8 FAD         1.6340   -1.2210   -5.5830 f         1 5A1     -0.217633
      9 FAE         0.7380   -2.4020   -3.9870 f         1 5A1     -0.217633
     10 FAF         1.7320    1.1070   -3.9410 f         1 5A1     -0.202300
     11 FAG        -0.2620    0.3710   -4.2300 f         1 5A1     -0.202300
     12 CAU         0.7770   -0.1040   -2.0960 cc        1 5A1     -0.265600
     13 SAS        -0.6810   -0.3090   -1.2700 ss        1 5A1      0.110100
     14 CAI         1.8710   -0.0800   -1.2550 cd        1 5A1     -0.022200
     15 C2          0.2730   -0.4990    2.5010 ca        1 5A1      0.677900
     16 NAZ         3.6800   -0.1320    1.2320 nh        1 5A1     -0.736300
     17 CAM         4.3640    0.2980    2.4480 c3        1 5A1      0.149800
     18 CAK         5.8450    0.6360    2.1700 c3        1 5A1      0.171800
     19 CAL         4.3780   -1.2160    0.5470 c3        1 5A1      0.149800
     20 CAJ         5.8620   -0.8710    0.2920 c3        1 5A1      0.171800
     21 NAY         6.5840   -0.4040    1.4680 nh        1 5A1     -0.664600
     22 CAT         7.1870   -1.4190    2.2430 c2        1 5A1      0.628100
     23 SAR         8.1670   -2.6150    1.3640 ss        1 5A1     -0.314300
     24 CBA         8.7030   -3.4050    2.9080 c3        1 5A1      0.016100
     25 CAA         8.2340   -4.8390    2.9150 c3        1 5A1     -0.083600
     26 CAB        10.2060   -3.3280    3.0000 c3        1 5A1     -0.083600
     27 CAN         8.0260   -2.5860    4.0410 c3        1 5A1      0.107800
     28 NAO         7.1810   -1.5310    3.5460 n2        1 5A1     -0.639900
     29 H2          2.9040    0.0760   -1.5870 ha        1 5A1      0.178000
     30 H3         -0.2020   -0.5900    3.5020 h5        1 5A1      0.061100
     31 H4          4.3120   -0.4850    3.2570 h1        1 5A1      0.061950
     32 H5          3.8580    1.2300    2.8250 h1        1 5A1      0.061950
     33 H6          6.3360    0.8790    3.1510 h1        1 5A1      0.078450
     34 H7          5.9020    1.5500    1.5120 h1        1 5A1      0.078450
     35 H8          4.3230   -2.1710    1.1480 h1        1 5A1      0.061950
     36 H9          3.8850   -1.4050   -0.4470 h1        1 5A1      0.061950
     37 H10         5.9260   -0.0410   -0.4670 h1        1 5A1      0.078450
     38 H11         6.3610   -1.7860   -0.1360 h1        1 5A1      0.078450
     39 H12         8.6800   -5.4000    2.0580 hc        1 5A1      0.048533
     40 H13         7.1220   -4.8940    2.8360 hc        1 5A1      0.048533
     41 H14         8.5490   -5.3390    3.8640 hc        1 5A1      0.048533
     42 H15        10.6790   -3.8850    2.1550 hc        1 5A1      0.048533
     43 H16        10.5520   -2.2670    2.9650 hc        1 5A1      0.048533
     44 H17        10.5540   -3.7850    3.9600 hc        1 5A1      0.048533
     45 H18         7.3940   -3.2630    4.6810 h1        1 5A1      0.076200
     46 H19         8.8150   -2.1260    4.7020 h1        1 5A1      0.076200
     47 CBC         0.9100    0.0630   -3.5790 c3        1 5A1      0.491800
@<TRIPOS>BOND
     1    1    2 ar  
     2    1    5 ar  
     3    1   13 1   
     4    2    3 ar  
     5    2   14 1   
     6    3    4 ar  
     7    3   16 1   
     8    4   15 ar  
     9    5   15 ar  
    10    6    7 1   
    11    7    8 1   
    12    7    9 1   
    13    7   47 1   
    14   10   47 1   
    15   11   47 1   
    16   12   13 1   
    17   12   14 2   
    18   12   47 1   
    19   14   29 1   
    20   15   30 1   
    21   16   17 1   
    22   16   19 1   
    23   17   18 1   
    24   17   31 1   
    25   17   32 1   
    26   18   21 1   
    27   18   33 1   
    28   18   34 1   
    29   19   20 1   
    30   19   35 1   
    31   19   36 1   
    32   20   21 1   
    33   20   37 1   
    34   20   38 1   
    35   21   22 1   
    36   22   23 1   
    37   22   28 2   
    38   23   24 1   
    39   24   25 1   
    40   24   26 1   
    41   24   27 1   
    42   25   39 1   
    43   25   40 1   
    44   25   41 1   
    45   26   42 1   
    46   26   43 1   
    47   26   44 1   
    48   27   28 1   
    49   27   45 1   
    50   27   46 1   
@<TRIPOS>SUBSTRUCTURE
     1 5A1         1 TEMP              0 ****  ****    0 ROOT
