@<TRIPOS>MOLECULE
5AA
   42    44     1     0     0
SMALL
bcc


@<TRIPOS>ATOM
      1 P           4.7900   -3.5750   -1.7620 p5        1 5AA      1.321900
      2 OP3         4.9080   -2.9020   -3.1000 o         1 5AA     -0.928167
      3 OP2         3.3690   -3.7690   -1.2840 o         1 5AA     -0.928167
      4 O5'         5.2270   -2.2580   -0.6900 os        1 5AA     -0.551200
      5 C5'         4.5220   -1.1170   -0.9360 c3        1 5AA      0.231400
      6 C4'         3.6040   -0.7760    0.2640 c3        1 5AA      0.055100
      7 O4'         3.4400    0.6670    0.3180 os        1 5AA     -0.427600
      8 C1'         2.0780    1.0350    0.2510 c3        1 5AA      0.216800
      9 N9          1.7930    1.6650   -1.0360 na        1 5AA     -0.262000
     10 C4          0.8570    2.6790   -1.2600 ca        1 5AA      0.421800
     11 N3         -0.0280    3.2870   -0.4120 nb        1 5AA     -0.719000
     12 C2         -0.7730    4.2280   -1.0260 ca        1 5AA      0.641900
     13 N1         -0.7740    4.6360   -2.3250 nb        1 5AA     -0.804000
     14 C6          0.1160    4.0460   -3.1860 ca        1 5AA      0.708200
     15 N6          0.2200    4.4980   -4.5160 nh        1 5AA     -0.754300
     16 C5          0.9790    3.0200   -2.6850 ca        1 5AA     -0.180200
     17 N7          1.9760    2.2240   -3.2650 nc        1 5AA     -0.587100
     18 C8          2.4340    1.4390   -2.2730 cd        1 5AA      0.464700
     19 C9          0.6410    3.5420   -5.5140 c3        1 5AA      0.195100
     20 C10        -0.7090    5.5020   -4.9660 c3        1 5AA      0.195100
     21 C2'         1.2270   -0.2470    0.5290 c3        1 5AA      0.095100
     22 O2'         0.8690   -0.2300    1.8970 oh        1 5AA     -0.571800
     23 C3'         2.1960   -1.4200    0.1830 c3        1 5AA      0.180500
     24 N3'         1.9720   -2.6210    0.9390 n3        1 5AA     -0.915800
     25 OP1         5.7800   -4.6430   -1.4130 o         1 5AA     -0.928167
     26 H5'         5.2260   -0.2370   -1.0510 h1        1 5AA     -0.003300
     27 H5''        3.9040   -1.2100   -1.8760 h1        1 5AA     -0.003300
     28 H4'         4.1290   -1.0380    1.2220 h1        1 5AA      0.062700
     29 H1'         1.9120    1.8210    1.0470 h2        1 5AA      0.074700
     30 H2         -1.5090    4.7490   -0.3810 h5        1 5AA      0.028100
     31 H8          3.2280    0.6690   -2.3610 h5        1 5AA      0.132800
     32 H91         0.2410    2.5120   -5.3130 h1        1 5AA      0.039200
     33 H92         1.7640    3.4990   -5.5220 h1        1 5AA      0.039200
     34 H93         0.2890    3.8650   -6.5290 h1        1 5AA      0.039200
     35 H101       -1.7630    5.1180   -5.0340 h1        1 5AA      0.039200
     36 H102       -0.3910    5.8600   -5.9810 h1        1 5AA      0.039200
     37 H103       -0.6930    6.3760   -4.2630 h1        1 5AA      0.039200
     38 H2'         0.3090   -0.3020   -0.1100 h1        1 5AA      0.044700
     39 H1          0.1210    0.3770    1.9680 ho        1 5AA      0.375000
     40 H3'         2.0010   -1.6820   -0.9050 h1        1 5AA      0.113700
     41 H3'1        2.5110   -2.6040    1.7820 hn        1 5AA      0.385800
     42 H3'2        2.2630   -3.4130    0.3710 hn        1 5AA      0.385800
@<TRIPOS>BOND
     1    1    2 1   
     2    1    3 1   
     3    1    4 1   
     4    1   25 1   
     5    4    5 1   
     6    5    6 1   
     7    5   26 1   
     8    5   27 1   
     9    6    7 1   
    10    6   23 1   
    11    6   28 1   
    12    7    8 1   
    13    8    9 1   
    14    8   21 1   
    15    8   29 1   
    16    9   10 1   
    17    9   18 1   
    18   10   11 ar  
    19   10   16 ar  
    20   11   12 ar  
    21   12   13 ar  
    22   12   30 1   
    23   13   14 ar  
    24   14   15 1   
    25   14   16 ar  
    26   15   19 1   
    27   15   20 1   
    28   16   17 1   
    29   17   18 2   
    30   18   31 1   
    31   19   32 1   
    32   19   33 1   
    33   19   34 1   
    34   20   35 1   
    35   20   36 1   
    36   20   37 1   
    37   21   22 1   
    38   21   23 1   
    39   21   38 1   
    40   22   39 1   
    41   23   24 1   
    42   23   40 1   
    43   24   41 1   
    44   24   42 1   
@<TRIPOS>SUBSTRUCTURE
     1 5AA         1 TEMP              0 ****  ****    0 ROOT
