@<TRIPOS>MOLECULE
5AA
   42    38     1     0     0
SMALL
bcc


@<TRIPOS>ATOM
      1 P          -1.3540    5.2330    0.2390 p3        1 5AA      2.534000
      2 OP3        -1.4750    6.2010    1.3950 os        1 5AA     -1.247000
      3 OP2        -2.7150    5.0170   -0.3850 o         1 5AA     -1.241000
      4 O5'        -0.7930    3.8550    0.7640 os        1 5AA     -0.733000
      5 C5'         0.6110    3.7080    0.9110 c3        1 5AA      0.071000
      6 C4'         0.9160    2.4040    1.6530 c3        1 5AA     -0.029000
      7 O4'         0.2550    1.3990    1.1170 os        1 5AA     -0.292000
      8 C1'         1.1970    0.1290    1.2630 c3        1 5AA      0.129000
      9 N9          0.8640   -0.8560    0.2820 n3        1 5AA     -0.191000
     10 C4          0.0990   -1.0120   -0.8470 c1        1 5AA      0.018000
     11 N3         -0.1220   -0.1950   -1.9230 n1        1 5AA     -0.179000
     12 C2         -0.8960   -0.6270   -2.9660 c1        1 5AA     -0.047000
     13 N1         -1.4510   -1.8750   -2.9350 n1        1 5AA     -0.266000
     14 C6         -1.2380   -2.6810   -1.8820 c1        1 5AA      0.139000
     15 N6         -2.1850   -3.7160   -1.9070 n2        1 5AA     -0.214000
     16 C5         -0.4470   -2.2420   -0.8150 c1        1 5AA     -0.150000
     17 N7         -0.0270   -2.8600    0.3310 n1        1 5AA     -0.175000
     18 C8          0.7830   -1.9950    1.0020 c1        1 5AA      0.020000
     19 C9         -1.8090   -5.0340   -2.3890 c3        1 5AA     -0.097000
     20 C10        -3.5330   -3.4600   -1.5020 c3        1 5AA     -0.097000
     21 C2'         2.4330    0.5600    1.0710 c3        1 5AA      0.008000
     22 O2'         3.3910   -0.2160    1.9270 oh        1 5AA     -0.344000
     23 C3'         2.4150    2.0320    1.4940 c3        1 5AA     -0.120000
     24 N3'         3.0720    2.1920    2.6840 n3        1 5AA     -0.342000
     25 OP1        -0.4080    5.8020   -0.7980 o         1 5AA     -1.241000
     26 H5'         0.9790    4.4900    1.4390 h1        1 5AA      0.042500
     27 H5''        1.0300    3.6860    0.0280 h1        1 5AA      0.042500
     28 H4'         0.6840    2.4940    2.6220 h1        1 5AA      0.068000
     29 H1'         1.1090   -0.2560    2.1730 h2        1 5AA      0.128000
     30 H2         -1.0520   -0.0420   -3.7330 ha        1 5AA      0.159000
     31 H8          1.2400   -2.1720    1.8640 DU        1 5AA      0.351000
     32 H91        -1.5360   -4.9740   -3.3500 h1        1 5AA      0.072333
     33 H92        -1.0420   -5.3830   -1.8460 h1        1 5AA      0.072333
     34 H93        -2.5580   -5.6310   -2.3050 h1        1 5AA      0.072333
     35 H101       -4.1020   -4.2120   -1.7680 h1        1 5AA      0.072333
     36 H102       -3.5670   -3.3530   -0.5230 h1        1 5AA      0.072333
     37 H103       -3.8330   -2.6920   -1.9050 h1        1 5AA      0.072333
     38 H2'         2.6760    0.4830    0.1390 h1        1 5AA      0.117000
     39 H1          2.9920   -0.4390    2.6880 ho        1 5AA      0.213000
     40 H3'         2.8530    2.6170    0.7620 h1        1 5AA      0.191000
     41 H3'1        3.8960    1.9120    2.6020 hn        1 5AA      0.171000
     42 H3'2        2.6490    1.7060    3.3300 hn        1 5AA      0.171000
@<TRIPOS>BOND
     1    1    3 1   
     2    1    4 1   
     3    1   25 1   
     4    4    5 1   
     5    5    6 1   
     6    5   26 1   
     7    5   27 1   
     8    6    7 1   
     9    6   23 1   
    10    6   28 1   
    11    7    8 1   
    12    8    9 1   
    13    8   21 1   
    14    8   29 1   
    15    9   10 1   
    16    9   18 1   
    17   10   16 1   
    18   11   12 1   
    19   12   30 1   
    20   13   14 1   
    21   14   16 1   
    22   15   19 1   
    23   15   20 1   
    24   17   18 1   
    25   19   32 1   
    26   19   33 1   
    27   19   34 1   
    28   20   35 1   
    29   20   36 1   
    30   20   37 1   
    31   21   22 1   
    32   21   23 1   
    33   21   38 1   
    34   22   39 1   
    35   23   24 1   
    36   23   40 1   
    37   24   41 1   
    38   24   42 1   
@<TRIPOS>SUBSTRUCTURE
     1 5AA         1 TEMP              0 ****  ****    0 ROOT
