@<TRIPOS>MOLECULE
5AC
   16    16     1     0     0
SMALL
bcc


@<TRIPOS>ATOM
      1 NAA        -0.0700   -0.1010   -0.0250 nz        1 5AC     -0.736400
      2 CAG         1.4460   -0.0590    0.0350 c         1 5AC      0.501600
      3 OAC         1.9210   -0.0740    1.1720 o         1 5AC     -0.510100
      4 CAI         2.0960   -0.0090   -1.2170 cc        1 5AC      0.060800
      5 CAH         3.5410    0.0360   -1.3980 cd        1 5AC      0.248000
      6 NAB         4.4850    0.0390   -0.4370 nv        1 5AC     -0.818200
      7 NAF         3.7320    0.0760   -2.7850 na        1 5AC     -0.372900
      8 CAD         2.4410    0.0550   -3.3810 cd        1 5AC      0.479400
      9 NAE         1.4630    0.0040   -2.4850 nc        1 5AC     -0.649000
     10 HNAA       -0.4150    0.7330   -0.5090 hn        1 5AC      0.468467
     11 HNAB       -0.4550   -0.1350    0.9250 hn        1 5AC      0.468467
     12 HNAC        4.1910    0.0070    0.5160 hn        1 5AC      0.478800
     13 HNAD        5.4550    0.0720   -0.6470 hn        1 5AC      0.478800
     14 HNAF        4.5970    0.1130   -3.2640 hn        1 5AC      0.336700
     15 HAD         2.3240    0.0790   -4.4760 h5        1 5AC      0.100100
     16 HAA3       -0.3680   -0.9280   -0.5500 hn        1 5AC      0.468467
@<TRIPOS>BOND
     1    1    2 1   
     2    1   10 1   
     3    1   11 1   
     4    1   16 1   
     5    2    3 2   
     6    2    4 1   
     7    4    5 2   
     8    4    9 1   
     9    5    6 1   
    10    5    7 1   
    11    6   12 1   
    12    6   13 1   
    13    7    8 1   
    14    7   14 1   
    15    8    9 2   
    16    8   15 1   
@<TRIPOS>SUBSTRUCTURE
     1 5AC         1 TEMP              0 ****  ****    0 ROOT
