@<TRIPOS>MOLECULE
5AC
   17    17     1     0     0
SMALL
bcc


@<TRIPOS>ATOM
      1 NAA        -0.0800   -0.0010    0.0010 n4        1 5AC     -0.724400
      2 CAG         1.4130    0.0000    0.0290 c         1 5AC      0.494600
      3 OAC         1.9760    0.0010    1.1190 o         1 5AC     -0.428100
      4 CAI         2.0960    0.0010   -1.2580 cc        1 5AC      0.267800
      5 CAH         3.5160    0.0010   -1.4460 cd        1 5AC     -0.105000
      6 NAB         4.5340    0.0020   -0.4200 n4        1 5AC     -0.691000
      7 NAF         3.7200    0.0010   -2.8320 na        1 5AC     -0.259900
      8 CAD         2.4500    0.0010   -3.4220 cd        1 5AC      0.544400
      9 NAE         1.4620    0.0000   -2.4960 nc        1 5AC     -0.623000
     10 HNAA       -0.4530   -0.0010    0.9650 hn        1 5AC      0.501467
     11 HNAB       -0.4240    0.8350   -0.4970 hn        1 5AC      0.501467
     12 HNAC        4.4140    0.8430    0.1730 hn        1 5AC      0.500800
     13 HNAD        4.4150   -0.8390    0.1730 hn        1 5AC      0.500800
     14 HNAF        4.5950    0.0020   -3.3120 hn        1 5AC      0.369700
     15 HAD         2.3010    0.0000   -4.5230 h5        1 5AC      0.149100
     16 HAA3       -0.4230   -0.8370   -0.4970 hn        1 5AC      0.501467
     17 HAB3        5.4870    0.0030   -0.8150 hn        1 5AC      0.500800
@<TRIPOS>BOND
     1    1    2 1   
     2    1   10 1   
     3    1   11 1   
     4    1   16 1   
     5    2    3 2   
     6    2    4 1   
     7    4    5 2   
     8    4    9 1   
     9    5    6 1   
    10    5    7 1   
    11    6   12 1   
    12    6   13 1   
    13    6   17 1   
    14    7    8 1   
    15    7   14 1   
    16    8    9 2   
    17    8   15 1   
@<TRIPOS>SUBSTRUCTURE
     1 5AC         1 TEMP              0 ****  ****    0 ROOT
