@<TRIPOS>MOLECULE
5AC
   15    12     1     0     0
SMALL
bcc


@<TRIPOS>ATOM
      1 NAA        -0.1140    0.6350    2.5630 n         1 5AC     -0.415000
      2 CAG        -0.8260    0.6450    1.3370 c2        1 5AC      0.400000
      3 OAC        -2.0370    0.7460    1.3380 o         1 5AC     -0.431000
      4 CAI        -0.0780    0.5410    0.0260 c2        1 5AC     -0.251000
      5 CAH        -0.0030   -0.5690   -0.7710 c1        1 5AC      0.097000
      6 NAB        -0.5790   -1.8360   -0.4940 n2        1 5AC     -0.306000
      7 NAF         0.7140   -0.2520   -1.8530 n2        1 5AC     -0.237000
      8 CAD         1.0890    1.0450   -1.7410 c1        1 5AC     -0.102000
      9 NAE         0.5940    1.5260   -0.5750 n2        1 5AC     -0.107000
     10 HNAA        0.7960    0.5400    2.5630 hn        1 5AC      0.233000
     11 HNAB       -0.5630    0.7320    3.3540 hn        1 5AC      0.233000
     12 HNAC       -0.3040   -2.5740   -0.9570 hn        1 5AC      0.214000
     13 HNAD       -1.2300   -1.9120    0.1430 hn        1 5AC      0.214000
     14 HNAF        0.9160   -0.8110   -2.5450 DU        1 5AC      0.229500
     15 HAD         1.6230    1.5460   -2.3880 DU        1 5AC      0.229500
@<TRIPOS>BOND
     1    1    2 1   
     2    1   10 1   
     3    1   11 1   
     4    2    3 1   
     5    2    4 1   
     6    4    5 1   
     7    4    9 1   
     8    5    7 1   
     9    6   12 1   
    10    6   13 1   
    11    7    8 1   
    12    8    9 1   
@<TRIPOS>SUBSTRUCTURE
     1 5AC         1 TEMP              0 ****  ****    0 ROOT
