@<TRIPOS>MOLECULE
5AC
   15    15     1     0     0
SMALL
bcc


@<TRIPOS>ATOM
      1 NAA         2.3730    1.0920    0.0050 n         1 5AC     -0.655000
      2 CAG         1.5050    0.0330    0.0250 c         1 5AC      0.616600
      3 OAC         1.9500   -1.1410    0.0750 o         1 5AC     -0.670100
      4 CAI         0.0600    0.2940   -0.0050 cc        1 5AC      0.166800
      5 CAH        -0.9400   -0.7300   -0.0510 cd        1 5AC      0.089000
      6 NAB        -0.7810   -2.0980   -0.2140 nh        1 5AC     -0.797200
      7 NAF        -2.1720   -0.0520   -0.0220 na        1 5AC     -0.350900
      8 CAD        -1.8730    1.3240    0.0160 cd        1 5AC      0.386400
      9 NAE        -0.5520    1.5550    0.0270 nc        1 5AC     -0.633000
     10 HNAA        3.3460    0.9170    0.0290 hn        1 5AC      0.319500
     11 HNAB        2.0490    2.0240   -0.0310 hn        1 5AC      0.319500
     12 HNAC        0.1880   -2.3650   -0.1710 hn        1 5AC      0.418800
     13 HNAD       -1.3740   -2.6600    0.3580 hn        1 5AC      0.418800
     14 HNAF       -3.0650   -0.4600   -0.0930 hn        1 5AC      0.306700
     15 HAD        -2.6590    2.0850    0.0450 h5        1 5AC      0.065100
@<TRIPOS>BOND
     1    1    2 1   
     2    1   10 1   
     3    1   11 1   
     4    2    3 2   
     5    2    4 1   
     6    4    5 2   
     7    4    9 1   
     8    5    6 1   
     9    5    7 1   
    10    6   12 1   
    11    6   13 1   
    12    7    8 1   
    13    7   14 1   
    14    8    9 2   
    15    8   15 1   
@<TRIPOS>SUBSTRUCTURE
     1 5AC         1 TEMP              0 ****  ****    0 ROOT
