@<TRIPOS>MOLECULE
5AC
   16    16     1     0     0
SMALL
bcc


@<TRIPOS>ATOM
      1 NAA        -0.0640   -0.0870   -0.0170 n4        1 5AC     -0.736400
      2 CAG         1.4530   -0.0590    0.0360 c         1 5AC      0.501600
      3 OAC         1.9330   -0.0850    1.1710 o         1 5AC     -0.510100
      4 CAI         2.0990   -0.0070   -1.2180 cc        1 5AC      0.060800
      5 CAH         3.5430    0.0270   -1.4060 cd        1 5AC      0.248000
      6 NAB         4.4910    0.0150   -0.4480 nh        1 5AC     -0.818200
      7 NAF         3.7290    0.0730   -2.7930 na        1 5AC     -0.372900
      8 CAD         2.4350    0.0670   -3.3840 cd        1 5AC      0.479400
      9 NAE         1.4600    0.0200   -2.4840 nc        1 5AC     -0.649000
     10 HNAA       -0.4440   -0.1230    0.9340 hn        1 5AC      0.468467
     11 HNAB       -0.3710   -0.9080   -0.5460 hn        1 5AC      0.468467
     12 HNAC        5.4600    0.0410   -0.6630 hn        1 5AC      0.478800
     13 HNAD        4.2000   -0.0200    0.5050 hn        1 5AC      0.478800
     14 HNAF        4.5920    0.1050   -3.2750 hn        1 5AC      0.336700
     15 HAD         2.3130    0.0980   -4.4780 h5        1 5AC      0.100100
     16 HAA3       -0.4040    0.7530   -0.4950 hn        1 5AC      0.468467
@<TRIPOS>BOND
     1    1    2 1   
     2    1   10 1   
     3    1   11 1   
     4    1   16 1   
     5    2    3 2   
     6    2    4 1   
     7    4    5 2   
     8    4    9 1   
     9    5    6 1   
    10    5    7 1   
    11    6   12 1   
    12    6   13 1   
    13    7    8 1   
    14    7   14 1   
    15    8    9 2   
    16    8   15 1   
@<TRIPOS>SUBSTRUCTURE
     1 5AC         1 TEMP              0 ****  ****    0 ROOT
