@<TRIPOS>MOLECULE
5AD
   31    27     1     0     0
SMALL
bcc


@<TRIPOS>ATOM
      1 N1         -2.2980   -0.5310   -3.9780 n1        1 5AD     -0.270000
      2 C2         -0.9540   -0.7210   -3.9240 c1        1 5AD      0.028000
      3 N3         -0.2740   -0.5680   -2.7170 n1        1 5AD     -0.240000
      4 C4         -0.9520   -0.2290   -1.5960 c1        1 5AD      0.058000
      5 N9         -0.5470   -0.0760   -0.2890 n1        1 5AD     -0.207000
      6 C8         -1.6520    0.2100    0.4650 c1        1 5AD     -0.029000
      7 N7         -2.7380    0.2350   -0.3690 n2        1 5AD     -0.123000
      8 C5         -2.2990   -0.0390   -1.6470 c1        1 5AD     -0.237000
      9 C6         -2.9800   -0.1930   -2.8610 c1        1 5AD      0.244000
     10 N6         -4.3730   -0.0970   -3.0750 n3        1 5AD     -0.355000
     11 C1'         0.7720   -0.2770    0.2600 c2        1 5AD      0.138000
     12 C2'         1.3480    0.8780    0.5030 c3        1 5AD     -0.026000
     13 C3'         2.2240    0.6300    1.7660 c3        1 5AD      0.017000
     14 C4'         1.7680   -0.7630    2.3290 c3        1 5AD      0.020000
     15 C5'         1.4890   -0.6590    3.8520 c3        1 5AD     -0.236000
     16 O4'         0.6730   -1.0470    1.6900 os        1 5AD     -0.268000
     17 O2'         2.2120    1.2840   -0.6610 oh        1 5AD     -0.326000
     18 O3'         3.5300    0.5930    1.4270 oh        1 5AD     -0.317000
     19 H2         -0.4600   -0.9670   -4.7360 ha        1 5AD      0.188000
     20 H8         -1.6570    0.4160    1.4380 DU        1 5AD      0.217000
     21 HN61       -4.9260    0.0490   -2.3810 hn        1 5AD      0.245500
     22 HN62       -4.7120   -0.1960   -3.9130 hn        1 5AD      0.245500
     23 H1'         1.3180   -0.7960   -0.3630 h4        1 5AD      0.142000
     24 H2'         0.6790    1.5600    0.6820 h1        1 5AD      0.115000
     25 H3'         2.0720    1.3130    2.4110 h1        1 5AD      0.099000
     26 H4'         2.4540   -1.4460    2.1520 h1        1 5AD      0.141000
     27 H5'1        0.8400    0.0820    4.0190 hc        1 5AD      0.089333
     28 H5'2        2.3350   -0.4710    4.3310 hc        1 5AD      0.089333
     29 H5'3        1.1080   -1.5080    4.1760 hc        1 5AD      0.089333
     30 HO2'        2.0190    2.1380   -0.8970 ho        1 5AD      0.239000
     31 HO3'        3.9790    1.1940    1.9050 ho        1 5AD      0.230000
@<TRIPOS>BOND
     1    1    9 1   
     2    2    3 1   
     3    2   19 1   
     4    4    8 1   
     5    5    6 1   
     6    6    7 1   
     7    7    8 1   
     8    9   10 1   
     9   10   21 1   
    10   10   22 1   
    11   11   12 1   
    12   11   16 1   
    13   11   23 1   
    14   12   13 1   
    15   12   17 1   
    16   12   24 1   
    17   13   14 1   
    18   13   18 1   
    19   13   25 1   
    20   14   15 1   
    21   14   16 1   
    22   14   26 1   
    23   15   27 1   
    24   15   28 1   
    25   15   29 1   
    26   17   30 1   
    27   18   31 1   
@<TRIPOS>SUBSTRUCTURE
     1 5AD         1 TEMP              0 ****  ****    0 ROOT
