@<TRIPOS>MOLECULE
5AD
   31    33     1     0     0
SMALL
bcc


@<TRIPOS>ATOM
      1 N1         -0.1970    0.6990    0.4310 nb        1 5AD     -0.796000
      2 C2          1.1100    1.0700    0.4670 ca        1 5AD      0.689900
      3 N3          2.0520    0.8640    1.4180 nb        1 5AD     -0.758000
      4 C4          1.5660    0.1650    2.4900 ca        1 5AD      0.449800
      5 N9          2.1950   -0.2580    3.6700 na        1 5AD     -0.292000
      6 C8          1.2080   -0.9450    4.4180 cc        1 5AD      0.423700
      7 N7          0.0120   -0.9850    3.8140 nd        1 5AD     -0.549100
      8 C5          0.1890   -0.3000    2.6020 ca        1 5AD     -0.228200
      9 C6         -0.6930    0.0030    1.5100 ca        1 5AD      0.765200
     10 N6         -2.0060   -0.3800    1.5580 nh        1 5AD     -0.958500
     11 C1'         3.5990   -0.0830    3.9700 c3        1 5AD      0.226800
     12 C2'         4.0440    1.4160    4.0280 c3        1 5AD      0.081100
     13 C3'         4.3940    1.6750    5.5110 c3        1 5AD      0.128100
     14 C4'         4.1620    0.3280    6.2280 c3        1 5AD      0.095100
     15 C5'         3.0000    0.3790    7.1940 c3        1 5AD     -0.116100
     16 O4'         3.9190   -0.6770    5.2270 os        1 5AD     -0.409600
     17 O2'         5.2150    1.5750    3.2570 oh        1 5AD     -0.593800
     18 O3'         5.7000    2.1550    5.7090 oh        1 5AD     -0.575800
     19 H2          1.4550    1.6300   -0.4290 h5        1 5AD      0.051100
     20 H8          1.4600   -1.3860    5.3920 h5        1 5AD      0.085800
     21 HN61       -2.6080   -0.2200    0.7890 hn        1 5AD      0.450300
     22 HN62       -2.3150   -0.9330    2.3190 hn        1 5AD      0.450300
     23 H1'         4.2040   -0.6510    3.1990 h2        1 5AD      0.104700
     24 H2'         3.2400    2.1160    3.6800 h1        1 5AD      0.083700
     25 H3'         3.7310    2.4770    5.9380 h1        1 5AD      0.094700
     26 H4'         5.1000   -0.0110    6.7500 h1        1 5AD      0.088700
     27 H5'1        2.8300   -0.6320    7.6370 hc        1 5AD      0.050367
     28 H5'2        3.2250    1.1020    8.0140 hc        1 5AD      0.050367
     29 H5'3        2.0640    0.6960    6.6740 hc        1 5AD      0.050367
     30 HO2'        4.9340    1.6560    2.3360 ho        1 5AD      0.432000
     31 HO3'        6.3020    1.6320    5.1620 ho        1 5AD      0.424000
@<TRIPOS>BOND
     1    1    2 ar  
     2    1    9 ar  
     3    2    3 ar  
     4    2   19 1   
     5    3    4 ar  
     6    4    5 1   
     7    4    8 ar  
     8    5    6 1   
     9    5   11 1   
    10    6    7 2   
    11    6   20 1   
    12    7    8 1   
    13    8    9 ar  
    14    9   10 1   
    15   10   21 1   
    16   10   22 1   
    17   11   12 1   
    18   11   16 1   
    19   11   23 1   
    20   12   13 1   
    21   12   17 1   
    22   12   24 1   
    23   13   14 1   
    24   13   18 1   
    25   13   25 1   
    26   14   15 1   
    27   14   16 1   
    28   14   26 1   
    29   15   27 1   
    30   15   28 1   
    31   15   29 1   
    32   17   30 1   
    33   18   31 1   
@<TRIPOS>SUBSTRUCTURE
     1 5AD         1 TEMP              0 ****  ****    0 ROOT
