@<TRIPOS>MOLECULE
5AD
   32    34     1     0     0
SMALL
bcc


@<TRIPOS>ATOM
      1 N1         -0.2050    0.5420    0.2550 nb        1 5AD     -0.678000
      2 C2          1.1080    0.9150    0.2490 ca        1 5AD      0.668900
      3 N3          2.0340    0.7830    1.2340 nb        1 5AD     -0.607000
      4 C4          1.5610    0.2000    2.3620 ca        1 5AD      0.452800
      5 N9          2.1620   -0.1180    3.5880 na        1 5AD     -0.265000
      6 C8          1.1660   -0.7320    4.3730 cc        1 5AD      0.514700
      7 N7         -0.0380   -0.8210    3.7690 nd        1 5AD     -0.593100
      8 C5          0.1550   -0.2550    2.5080 ca        1 5AD     -0.135200
      9 C6         -0.6670   -0.0420    1.3880 ca        1 5AD      0.514200
     10 N6         -2.0740   -0.4770    1.4590 n4        1 5AD     -0.814300
     11 C1'         3.5830    0.0230    3.9050 c3        1 5AD      0.212800
     12 C2'         4.0550    1.5060    4.0670 c3        1 5AD      0.088100
     13 C3'         4.4100    1.6420    5.5670 c3        1 5AD      0.083100
     14 C4'         4.1410    0.2620    6.1950 c3        1 5AD      0.127100
     15 C5'         2.9900    0.2820    7.1730 c3        1 5AD     -0.122100
     16 O4'         3.8560   -0.6590    5.1180 os        1 5AD     -0.405600
     17 O2'         5.1530    1.7550    3.2320 oh        1 5AD     -0.565800
     18 O3'         5.7910    1.9040    5.7150 oh        1 5AD     -0.582800
     19 H2          1.4630    1.3910   -0.6960 h5        1 5AD      0.101100
     20 H8          1.3990   -1.0980    5.3910 h5        1 5AD      0.117800
     21 HN61       -2.5220   -0.0050    2.2550 hn        1 5AD      0.477800
     22 HN62       -2.0920   -1.4930    1.6160 hn        1 5AD      0.477800
     23 H1'         4.1680   -0.5060    3.0910 h2        1 5AD      0.126700
     24 H2'         3.2750    2.2480    3.7470 h1        1 5AD      0.105700
     25 H3'         3.7970    2.4440    6.0560 h1        1 5AD      0.075700
     26 H4'         5.0740   -0.1510    6.6750 h1        1 5AD      0.120700
     27 H5'1        2.7480   -0.7600    7.4970 hc        1 5AD      0.055700
     28 H5'2        2.0780    0.7360    6.7170 hc        1 5AD      0.055700
     29 H5'3        3.2780    0.8780    8.0730 hc        1 5AD      0.055700
     30 HO2'        5.9230    1.2840    3.5910 ho        1 5AD      0.432000
     31 HO3'        5.9410    2.8190    5.4410 ho        1 5AD      0.429000
     32 H63        -2.5800   -0.2510    0.5920 hn        1 5AD      0.477800
@<TRIPOS>BOND
     1    1    2 ar  
     2    1    9 ar  
     3    2    3 ar  
     4    2   19 1   
     5    3    4 ar  
     6    4    5 1   
     7    4    8 ar  
     8    5    6 1   
     9    5   11 1   
    10    6    7 2   
    11    6   20 1   
    12    7    8 1   
    13    8    9 ar  
    14    9   10 1   
    15   10   21 1   
    16   10   22 1   
    17   10   32 1   
    18   11   12 1   
    19   11   16 1   
    20   11   23 1   
    21   12   13 1   
    22   12   17 1   
    23   12   24 1   
    24   13   14 1   
    25   13   18 1   
    26   13   25 1   
    27   14   15 1   
    28   14   16 1   
    29   14   26 1   
    30   15   27 1   
    31   15   28 1   
    32   15   29 1   
    33   17   30 1   
    34   18   31 1   
@<TRIPOS>SUBSTRUCTURE
     1 5AD         1 TEMP              0 ****  ****    0 ROOT
