@<TRIPOS>MOLECULE
5AD
   31    33     1     0     0
SMALL
bcc


@<TRIPOS>ATOM
      1 N1         -0.7500    0.5950    3.7930 nb        1 5AD     -0.794000
      2 C2         -1.6980    0.4430    2.8300 ca        1 5AD      0.684900
      3 N3         -1.5780    0.0640    1.5360 nb        1 5AD     -0.734000
      4 C4         -0.2840   -0.2040    1.1850 ca        1 5AD      0.457800
      5 N9          0.2750   -0.6220   -0.0320 na        1 5AD     -0.295000
      6 C8          1.6670   -0.7550    0.2030 cc        1 5AD      0.416700
      7 N7          2.0340   -0.4380    1.4520 nd        1 5AD     -0.549100
      8 C5          0.8430   -0.0850    2.1040 ca        1 5AD     -0.231200
      9 C6          0.5560    0.3420    3.4440 ca        1 5AD      0.757200
     10 N6          1.5750    0.5250    4.3440 nh        1 5AD     -0.955500
     11 C1'        -0.4430   -0.9900   -1.2340 c3        1 5AD      0.259800
     12 C2'        -1.3140    0.1670   -1.8250 c3        1 5AD      0.128100
     13 C3'        -0.4460    0.7340   -2.9720 c3        1 5AD      0.076100
     14 C4'         0.6430   -0.3270   -3.2310 c3        1 5AD      0.100100
     15 C5'         2.0430    0.2400   -3.1430 c3        1 5AD     -0.120100
     16 O4'         0.4850   -1.3710   -2.2540 os        1 5AD     -0.406600
     17 O2'        -2.5000   -0.4530   -2.2730 oh        1 5AD     -0.580800
     18 O3'        -1.2880    0.9290   -4.0910 oh        1 5AD     -0.594800
     19 H2         -2.7360    0.6640    3.1640 h5        1 5AD      0.052100
     20 H8          2.3350   -1.0930   -0.6020 h5        1 5AD      0.083800
     21 HN61        1.3720    0.7170    5.2930 hn        1 5AD      0.445300
     22 HN62        2.4810    0.2100    4.0970 hn        1 5AD      0.445300
     23 H1'        -1.0750   -1.9060   -1.0290 h2        1 5AD      0.124700
     24 H2'        -1.5630    0.9630   -1.0770 h1        1 5AD      0.085700
     25 H3'         0.0140    1.7130   -2.6690 h1        1 5AD      0.060700
     26 H4'         0.4780   -0.8340   -4.2230 h1        1 5AD      0.082700
     27 H5'1        2.7920   -0.5790   -3.2590 hc        1 5AD      0.050700
     28 H5'2        2.1960    0.9900   -3.9550 hc        1 5AD      0.050700
     29 H5'3        2.2110    0.7340   -2.1550 hc        1 5AD      0.050700
     30 HO2'       -2.9280    0.1540   -2.8920 ho        1 5AD      0.431000
     31 HO3'       -0.7290    1.2310   -4.8170 ho        1 5AD      0.416000
@<TRIPOS>BOND
     1    1    2 ar  
     2    1    9 ar  
     3    2    3 ar  
     4    2   19 1   
     5    3    4 ar  
     6    4    5 1   
     7    4    8 ar  
     8    5    6 1   
     9    5   11 1   
    10    6    7 2   
    11    6   20 1   
    12    7    8 1   
    13    8    9 ar  
    14    9   10 1   
    15   10   21 1   
    16   10   22 1   
    17   11   12 1   
    18   11   16 1   
    19   11   23 1   
    20   12   13 1   
    21   12   17 1   
    22   12   24 1   
    23   13   14 1   
    24   13   18 1   
    25   13   25 1   
    26   14   15 1   
    27   14   16 1   
    28   14   26 1   
    29   15   27 1   
    30   15   28 1   
    31   15   29 1   
    32   17   30 1   
    33   18   31 1   
@<TRIPOS>SUBSTRUCTURE
     1 5AD         1 TEMP              0 ****  ****    0 ROOT
