@<TRIPOS>MOLECULE
5AD
   31    33     1     0     0
SMALL
bcc


@<TRIPOS>ATOM
      1 N1         -0.2200    0.6900    0.4500 nb        1 5AD     -0.796000
      2 C2          1.0870    1.0600    0.4750 ca        1 5AD      0.689900
      3 N3          2.0360    0.8570    1.4200 nb        1 5AD     -0.758000
      4 C4          1.5580    0.1630    2.4980 ca        1 5AD      0.449800
      5 N9          2.1950   -0.2550    3.6760 na        1 5AD     -0.292000
      6 C8          1.2130   -0.9390    4.4340 cc        1 5AD      0.423700
      7 N7          0.0120   -0.9800    3.8390 nd        1 5AD     -0.549100
      8 C5          0.1810   -0.3010    2.6230 ca        1 5AD     -0.228200
      9 C6         -0.7090   -0.0010    1.5360 ca        1 5AD      0.765200
     10 N6         -2.0220   -0.3830    1.5960 nv        1 5AD     -0.958500
     11 C1'         3.6010   -0.0800    3.9650 c3        1 5AD      0.226800
     12 C2'         4.0470    1.4190    4.0130 c3        1 5AD      0.081100
     13 C3'         4.4090    1.6840    5.4920 c3        1 5AD      0.128100
     14 C4'         4.1810    0.3400    6.2170 c3        1 5AD      0.095100
     15 C5'         3.0260    0.3960    7.1910 c3        1 5AD     -0.116100
     16 O4'         3.9300   -0.6690    5.2220 os        1 5AD     -0.409600
     17 O2'         5.2130    1.5740    3.2330 oh        1 5AD     -0.593800
     18 O3'         5.7170    2.1630    5.6790 oh        1 5AD     -0.575800
     19 H2          1.4260    1.6160   -0.4260 h5        1 5AD      0.051100
     20 H8          1.4710   -1.3750    5.4080 h5        1 5AD      0.085800
     21 HN61       -2.3250   -0.9320    2.3600 hn        1 5AD      0.450300
     22 HN62       -2.6290   -0.2260    0.8300 hn        1 5AD      0.450300
     23 H1'         4.2000   -0.6520    3.1920 h2        1 5AD      0.104700
     24 H2'         3.2410    2.1180    3.6680 h1        1 5AD      0.083700
     25 H3'         3.7500    2.4890    5.9210 h1        1 5AD      0.094700
     26 H4'         5.1220    0.0030    6.7340 h1        1 5AD      0.088700
     27 H5'1        2.0870    0.7130    6.6760 hc        1 5AD      0.050367
     28 H5'2        3.2580    1.1220    8.0060 hc        1 5AD      0.050367
     29 H5'3        2.8580   -0.6130    7.6390 hc        1 5AD      0.050367
     30 HO2'        4.9250    1.6510    2.3130 ho        1 5AD      0.432000
     31 HO3'        6.3140    1.6370    5.1290 ho        1 5AD      0.424000
@<TRIPOS>BOND
     1    1    2 ar  
     2    1    9 ar  
     3    2    3 ar  
     4    2   19 1   
     5    3    4 ar  
     6    4    5 1   
     7    4    8 ar  
     8    5    6 1   
     9    5   11 1   
    10    6    7 2   
    11    6   20 1   
    12    7    8 1   
    13    8    9 ar  
    14    9   10 1   
    15   10   21 1   
    16   10   22 1   
    17   11   12 1   
    18   11   16 1   
    19   11   23 1   
    20   12   13 1   
    21   12   17 1   
    22   12   24 1   
    23   13   14 1   
    24   13   18 1   
    25   13   25 1   
    26   14   15 1   
    27   14   16 1   
    28   14   26 1   
    29   15   27 1   
    30   15   28 1   
    31   15   29 1   
    32   17   30 1   
    33   18   31 1   
@<TRIPOS>SUBSTRUCTURE
     1 5AD         1 TEMP              0 ****  ****    0 ROOT
