@<TRIPOS>MOLECULE
5AE
   30    31     1     0     0
SMALL
bcc


@<TRIPOS>ATOM
      1 O2          0.8070    1.8720   -0.2950 o         1 5AE     -0.482500
      2 C2          1.6440    0.9670   -0.2800 c         1 5AE      0.813900
      3 N3          2.5280    0.7870    0.8360 nc        1 5AE     -0.631100
      4 C4          3.3840   -0.2240    0.7490 cd        1 5AE      0.731200
      5 N4          4.3050   -0.4340    1.9130 n4        1 5AE     -0.789600
      6 N5          3.5440   -1.1410   -0.3010 nd        1 5AE     -0.769000
      7 N1          1.7670    0.0540   -1.3970 n         1 5AE     -0.400300
      8 C6          2.7030   -0.9470   -1.3270 cc        1 5AE      0.575800
      9 C1'         0.7810    0.1420   -2.4920 c3        1 5AE      0.258500
     10 O4'         0.9900   -0.9140   -3.4190 os        1 5AE     -0.403600
     11 C4'         1.5120   -0.4260   -4.6710 c3        1 5AE      0.082100
     12 C5'         2.9750   -0.8430   -4.8200 c3        1 5AE      0.109400
     13 O5'         3.2220   -2.0830   -4.1900 oh        1 5AE     -0.606800
     14 C3'         1.3310    1.1000   -4.6970 c3        1 5AE      0.088100
     15 O3'         0.3450    1.3810   -5.6690 oh        1 5AE     -0.582800
     16 C2'         0.8190    1.4880   -3.2890 c3        1 5AE      0.093100
     17 O2'        -0.4620    2.0560   -3.3360 oh        1 5AE     -0.555800
     18 H1          5.2760   -0.3730    1.5820 hn        1 5AE      0.485467
     19 H2          4.1370    0.2780    2.6380 hn        1 5AE      0.485467
     20 H3          2.7880   -1.6650   -2.1950 h5        1 5AE      0.148800
     21 H4         -0.2390   -0.0260   -2.0280 h2        1 5AE      0.131700
     22 H5          0.8710   -0.9250   -5.4530 h1        1 5AE      0.121700
     23 H6          3.6670   -0.1240   -4.3030 h1        1 5AE      0.066700
     24 H7          3.2350   -0.8900   -5.9120 h1        1 5AE      0.066700
     25 H8          2.6720   -2.7480   -4.6220 ho        1 5AE      0.425000
     26 H9          2.2890    1.6310   -4.9400 h1        1 5AE      0.075700
     27 H10         0.2730    2.3440   -5.7370 ho        1 5AE      0.435000
     28 H11         1.4580    2.2670   -2.7930 h1        1 5AE      0.113700
     29 H12        -1.0230    1.5010   -3.9020 ho        1 5AE      0.429000
     30 H43         4.1370   -1.3710    2.3010 hn        1 5AE      0.485467
@<TRIPOS>BOND
     1    1    2 2   
     2    2    3 1   
     3    2    7 1   
     4    3    4 2   
     5    4    5 1   
     6    4    6 1   
     7    5   18 1   
     8    5   19 1   
     9    5   30 1   
    10    6    8 2   
    11    7    8 1   
    12    7    9 1   
    13    8   20 1   
    14    9   10 1   
    15    9   16 1   
    16    9   21 1   
    17   10   11 1   
    18   11   12 1   
    19   11   14 1   
    20   11   22 1   
    21   12   13 1   
    22   12   23 1   
    23   12   24 1   
    24   13   25 1   
    25   14   15 1   
    26   14   16 1   
    27   14   26 1   
    28   15   27 1   
    29   16   17 1   
    30   16   28 1   
    31   17   29 1   
@<TRIPOS>SUBSTRUCTURE
     1 5AE         1 TEMP              0 ****  ****    0 ROOT
