@<TRIPOS>MOLECULE
5AE
   30    31     1     0     0
SMALL
bcc


@<TRIPOS>ATOM
      1 O2          0.1730    1.0320    0.0110 o         1 5AE     -0.480500
      2 C2          1.2900    0.5190   -0.0860 c         1 5AE      0.818900
      3 N3          2.1510    0.3780    1.0530 nc        1 5AE     -0.628100
      4 C4          3.3130   -0.2250    0.8400 cd        1 5AE      0.731200
      5 N4          4.2180   -0.3910    2.0240 nz        1 5AE     -0.789600
      6 N5          3.8170   -0.7450   -0.3640 nd        1 5AE     -0.770000
      7 N1          1.7740    0.0340   -1.3640 n         1 5AE     -0.393300
      8 C6          2.9930   -0.5930   -1.4100 cc        1 5AE      0.573800
      9 C1'         0.8760    0.1240   -2.5270 c3        1 5AE      0.258500
     10 O4'         1.1570   -0.9390   -3.4320 os        1 5AE     -0.408600
     11 C4'         1.5190   -0.4490   -4.7380 c3        1 5AE      0.084100
     12 C5'         2.9740   -0.8190   -5.0360 c3        1 5AE      0.109400
     13 O5'         3.3980   -1.9150   -4.2530 oh        1 5AE     -0.605800
     14 C3'         1.2760    1.0670   -4.7700 c3        1 5AE      0.089100
     15 O3'         0.1400    1.2910   -5.5800 oh        1 5AE     -0.582800
     16 C2'         0.9720    1.4760   -3.3090 c3        1 5AE      0.089100
     17 O2'        -0.2220    2.1990   -3.1970 oh        1 5AE     -0.558800
     18 H1          4.3900   -1.3950    2.1680 hn        1 5AE      0.485467
     19 H2          3.7860    0.0130    2.8660 hn        1 5AE      0.485467
     20 H3          3.3350   -1.0310   -2.3910 h5        1 5AE      0.143800
     21 H4         -0.1770   -0.0430   -2.1360 h2        1 5AE      0.134700
     22 H5          0.8180   -0.9830   -5.4420 h1        1 5AE      0.119700
     23 H6          3.0780   -1.0490   -6.1300 h1        1 5AE      0.067700
     24 H7          3.6820    0.0090   -4.7620 h1        1 5AE      0.067700
     25 H8          2.8070   -2.6570   -4.4370 ho        1 5AE      0.427000
     26 H9          2.1640    1.6250   -5.1680 h1        1 5AE      0.077700
     27 H10         0.0870    2.2440   -5.7460 ho        1 5AE      0.434000
     28 H11         1.7610    2.1600   -2.8980 h1        1 5AE      0.103700
     29 H12        -0.9220    1.7120   -3.6610 ho        1 5AE      0.432000
     30 H43         5.1090    0.0820    1.8280 hn        1 5AE      0.485467
@<TRIPOS>BOND
     1    1    2 2   
     2    2    3 1   
     3    2    7 1   
     4    3    4 2   
     5    4    5 1   
     6    4    6 1   
     7    5   18 1   
     8    5   19 1   
     9    5   30 1   
    10    6    8 2   
    11    7    8 1   
    12    7    9 1   
    13    8   20 1   
    14    9   10 1   
    15    9   16 1   
    16    9   21 1   
    17   10   11 1   
    18   11   12 1   
    19   11   14 1   
    20   11   22 1   
    21   12   13 1   
    22   12   23 1   
    23   12   24 1   
    24   13   25 1   
    25   14   15 1   
    26   14   16 1   
    27   14   26 1   
    28   15   27 1   
    29   16   17 1   
    30   16   28 1   
    31   17   29 1   
@<TRIPOS>SUBSTRUCTURE
     1 5AE         1 TEMP              0 ****  ****    0 ROOT
