@<TRIPOS>MOLECULE
5AE
   30    31     1     0     0
SMALL
bcc


@<TRIPOS>ATOM
      1 O2          0.1700    0.9820    0.0270 o         1 5AE     -0.480500
      2 C2          1.2920    0.4820   -0.0790 c         1 5AE      0.818900
      3 N3          2.1570    0.3380    1.0560 nc        1 5AE     -0.628100
      4 C4          3.3260   -0.2490    0.8330 cd        1 5AE      0.731200
      5 N4          4.2350   -0.4190    2.0120 n4        1 5AE     -0.789600
      6 N5          3.8320   -0.7500   -0.3780 nd        1 5AE     -0.770000
      7 N1          1.7780    0.0180   -1.3640 n         1 5AE     -0.393300
      8 C6          3.0030   -0.5950   -1.4200 cc        1 5AE      0.573800
      9 C1'         0.8750    0.1110   -2.5240 c3        1 5AE      0.258500
     10 O4'         1.1670   -0.9370   -3.4420 os        1 5AE     -0.408600
     11 C4'         1.5200   -0.4270   -4.7420 c3        1 5AE      0.084100
     12 C5'         2.9780   -0.7760   -5.0480 c3        1 5AE      0.109400
     13 O5'         3.4180   -1.8770   -4.2800 oh        1 5AE     -0.605800
     14 C3'         1.2590    1.0870   -4.7560 c3        1 5AE      0.089100
     15 O3'         0.1180    1.3070   -5.5610 oh        1 5AE     -0.582800
     16 C2'         0.9520    1.4730   -3.2890 c3        1 5AE      0.089100
     17 O2'        -0.2500    2.1800   -3.1660 oh        1 5AE     -0.558800
     18 H1          4.4180   -1.4220    2.1450 hn        1 5AE      0.485467
     19 H2          3.8010   -0.0280    2.8600 hn        1 5AE      0.485467
     20 H3          3.3480   -1.0170   -2.4080 h5        1 5AE      0.143800
     21 H4         -0.1740   -0.0740   -2.1320 h2        1 5AE      0.134700
     22 H5          0.8240   -0.9600   -5.4520 h1        1 5AE      0.119700
     23 H6          3.6770    0.0580   -4.7640 h1        1 5AE      0.067700
     24 H7          3.0840   -0.9900   -6.1450 h1        1 5AE      0.067700
     25 H8          2.8350   -2.6230   -4.4740 ho        1 5AE      0.427000
     26 H9          2.1390    1.6600   -5.1490 h1        1 5AE      0.077700
     27 H10         0.0540    2.2600   -5.7150 ho        1 5AE      0.434000
     28 H11         1.7340    2.1630   -2.8710 h1        1 5AE      0.103700
     29 H12        -0.9460    1.6900   -3.6350 ho        1 5AE      0.432000
     30 H43         5.1210    0.0650    1.8190 hn        1 5AE      0.485467
@<TRIPOS>BOND
     1    1    2 2   
     2    2    3 1   
     3    2    7 1   
     4    3    4 2   
     5    4    5 1   
     6    4    6 1   
     7    5   18 1   
     8    5   19 1   
     9    5   30 1   
    10    6    8 2   
    11    7    8 1   
    12    7    9 1   
    13    8   20 1   
    14    9   10 1   
    15    9   16 1   
    16    9   21 1   
    17   10   11 1   
    18   11   12 1   
    19   11   14 1   
    20   11   22 1   
    21   12   13 1   
    22   12   23 1   
    23   12   24 1   
    24   13   25 1   
    25   14   15 1   
    26   14   16 1   
    27   14   26 1   
    28   15   27 1   
    29   16   17 1   
    30   16   28 1   
    31   17   29 1   
@<TRIPOS>SUBSTRUCTURE
     1 5AE         1 TEMP              0 ****  ****    0 ROOT
