@<TRIPOS>MOLECULE
5AF
   77    79     1     0     0
SMALL
bcc


@<TRIPOS>ATOM
      1 C1         -1.2130   -0.9210    1.3240 c3        1 5AF     -0.128600
      2 C5         -0.2920   -0.0430    0.5230 c3        1 5AF     -0.126400
      3 C8          1.0690    0.1880    1.1800 c3        1 5AF      0.126500
      4 C9          2.0140    0.8960    0.2030 c3        1 5AF     -0.126400
      5 C10         3.4160    1.0390    0.7290 c3        1 5AF     -0.128600
      6 N17         0.9240    1.0000    2.4680 n4        1 5AF     -0.806000
      7 C19         1.3880    0.2920    3.7240 c3        1 5AF      0.411000
      8 N20         0.5270   -0.9020    4.1060 n4        1 5AF     -0.869600
      9 C23         1.4700    1.2460    4.8820 ca        1 5AF     -0.272300
     10 C28         0.3450    1.9310    5.3700 ca        1 5AF     -0.080500
     11 C30         0.4700    2.8130    6.4370 ca        1 5AF     -0.097500
     12 C24         2.7210    1.4500    5.4830 ca        1 5AF     -0.080500
     13 C26         2.8450    2.3340    6.5490 ca        1 5AF     -0.097500
     14 C32         1.7240    3.0360    7.0390 ca        1 5AF     -0.025500
     15 C33         1.9190    3.9670    8.1200 cc        1 5AF      0.276200
     16 O38         0.8040    4.5430    8.7560 os        1 5AF     -0.349800
     17 C34         3.0950    4.4510    8.6880 cd        1 5AF     -0.173300
     18 C36         2.7140    5.3720    9.7190 cd        1 5AF     -0.173300
     19 C39         1.3220    5.4060    9.7390 cc        1 5AF      0.276200
     20 C40         0.4230    6.1460   10.5880 ca        1 5AF     -0.025500
     21 C45         0.9630    7.1380   11.4320 ca        1 5AF     -0.097500
     22 C47         0.1470    7.8570   12.2980 ca        1 5AF     -0.080500
     23 C41        -0.9640    5.9050   10.6270 ca        1 5AF     -0.097500
     24 C43        -1.7820    6.6230   11.4930 ca        1 5AF     -0.080500
     25 C49        -1.2320    7.6010   12.3380 ca        1 5AF     -0.272300
     26 C50        -2.0710    8.3930   13.3000 c3        1 5AF      0.411000
     27 N51        -3.0480    9.2650   12.5270 n4        1 5AF     -0.869600
     28 N54        -2.7360    7.4880   14.3150 n4        1 5AF     -0.806000
     29 C56        -3.3870    8.2110   15.4950 c3        1 5AF      0.126500
     30 C65        -4.8910    7.9400   15.5430 c3        1 5AF     -0.126400
     31 C68        -5.6500    8.5230   14.3840 c3        1 5AF     -0.128600
     32 C58        -2.7320    7.7840   16.8140 c3        1 5AF     -0.126400
     33 C61        -1.2720    8.1410   16.8980 c3        1 5AF     -0.128600
     34 H2         -2.1460   -1.1170    0.7270 hc        1 5AF      0.059533
     35 H4         -0.7500   -1.9160    1.5380 hc        1 5AF      0.059533
     36 H3         -1.5310   -0.4370    2.2800 hc        1 5AF      0.059533
     37 H6         -0.0890   -0.5410   -0.4720 hc        1 5AF      0.116450
     38 H7         -0.7880    0.9370    0.2820 hc        1 5AF      0.116450
     39 H16         1.5290   -0.8050    1.4640 hx        1 5AF      0.089700
     40 H15         1.5960    1.8940   -0.0970 hc        1 5AF      0.116450
     41 H14         2.0360    0.2640   -0.7330 hc        1 5AF      0.116450
     42 H11         3.8170    0.0630    1.0950 hc        1 5AF      0.059533
     43 H13         4.0870    1.3890   -0.1020 hc        1 5AF      0.059533
     44 H12         3.4870    1.7940    1.5490 hc        1 5AF      0.059533
     45 H18         1.5260    1.8420    2.3890 hn        1 5AF      0.479800
     46 H19         2.4250   -0.1310    3.4780 hx        1 5AF      0.169700
     47 H21         1.0390   -1.4310    4.8310 hn        1 5AF      0.488133
     48 H22         0.3400   -1.5230    3.3040 hn        1 5AF      0.488133
     49 H29        -0.6480    1.7860    4.9150 ha        1 5AF      0.151500
     50 H31        -0.4160    3.3520    6.8170 ha        1 5AF      0.184000
     51 H25         3.6200    0.9200    5.1220 ha        1 5AF      0.151500
     52 H27         3.8370    2.4830    7.0120 ha        1 5AF      0.184000
     53 H35         4.1220    4.2010    8.4160 ha        1 5AF      0.198000
     54 H37         3.4070    5.9230   10.3570 ha        1 5AF      0.198000
     55 H46         2.0470    7.3530   11.4110 ha        1 5AF      0.184000
     56 H48         0.6030    8.6250   12.9470 ha        1 5AF      0.151500
     57 H42        -1.3990    5.1360    9.9660 ha        1 5AF      0.184000
     58 H44        -2.8610    6.4040   11.5070 ha        1 5AF      0.151500
     59 H50        -1.4150    9.1130   13.9060 hx        1 5AF      0.169700
     60 H52        -3.5570    8.7110   11.8250 hn        1 5AF      0.488133
     61 H53        -2.4930    9.9810   12.0290 hn        1 5AF      0.488133
     62 H55        -3.4260    6.8730   13.8650 hn        1 5AF      0.479800
     63 H57        -3.2020    9.3170   15.3490 hx        1 5AF      0.089700
     64 H67        -5.2720    8.4070   16.4990 hc        1 5AF      0.116450
     65 H66        -5.0930    6.8380   15.6340 hc        1 5AF      0.116450
     66 H70        -5.4910    9.6270   14.3020 hc        1 5AF      0.059533
     67 H69        -5.3870    8.0300   13.4160 hc        1 5AF      0.059533
     68 H71        -6.7510    8.3640   14.5470 hc        1 5AF      0.059533
     69 H59        -3.2880    8.3220   17.6360 hc        1 5AF      0.116450
     70 H60        -2.8840    6.6850   16.9920 hc        1 5AF      0.116450
     71 H64        -0.6410    7.5100   16.2270 hc        1 5AF      0.059533
     72 H62        -1.1010    9.2180   16.6540 hc        1 5AF      0.059533
     73 H63        -0.9110    7.9730   17.9480 hc        1 5AF      0.059533
     74 H172       -0.0460    1.3240    2.5650 hn        1 5AF      0.479800
     75 H203       -0.3680   -0.5940    4.5080 hn        1 5AF      0.488133
     76 H513       -3.7290    9.7350   13.1440 hn        1 5AF      0.488133
     77 H542       -1.9760    6.8850   14.6840 hn        1 5AF      0.479800
@<TRIPOS>BOND
     1    1    2 1   
     2    1   34 1   
     3    1   35 1   
     4    1   36 1   
     5    2    3 1   
     6    2   37 1   
     7    2   38 1   
     8    3    4 1   
     9    3    6 1   
    10    3   39 1   
    11    4    5 1   
    12    4   40 1   
    13    4   41 1   
    14    5   42 1   
    15    5   43 1   
    16    5   44 1   
    17    6    7 1   
    18    6   45 1   
    19    6   74 1   
    20    7    8 1   
    21    7    9 1   
    22    7   46 1   
    23    8   47 1   
    24    8   48 1   
    25    8   75 1   
    26    9   10 ar  
    27    9   12 ar  
    28   10   11 ar  
    29   10   49 1   
    30   11   14 ar  
    31   11   50 1   
    32   12   13 ar  
    33   12   51 1   
    34   13   14 ar  
    35   13   52 1   
    36   14   15 1   
    37   15   16 1   
    38   15   17 2   
    39   16   19 1   
    40   17   18 1   
    41   17   53 1   
    42   18   19 2   
    43   18   54 1   
    44   19   20 1   
    45   20   21 ar  
    46   20   23 ar  
    47   21   22 ar  
    48   21   55 1   
    49   22   25 ar  
    50   22   56 1   
    51   23   24 ar  
    52   23   57 1   
    53   24   25 ar  
    54   24   58 1   
    55   25   26 1   
    56   26   27 1   
    57   26   28 1   
    58   26   59 1   
    59   27   60 1   
    60   27   61 1   
    61   27   76 1   
    62   28   29 1   
    63   28   62 1   
    64   28   77 1   
    65   29   30 1   
    66   29   32 1   
    67   29   63 1   
    68   30   31 1   
    69   30   64 1   
    70   30   65 1   
    71   31   66 1   
    72   31   67 1   
    73   31   68 1   
    74   32   33 1   
    75   32   69 1   
    76   32   70 1   
    77   33   71 1   
    78   33   72 1   
    79   33   73 1   
@<TRIPOS>SUBSTRUCTURE
     1 5AF         1 TEMP              0 ****  ****    0 ROOT
