@<TRIPOS>MOLECULE
5AF
   73    67     1     0     0
SMALL
bcc


@<TRIPOS>ATOM
      1 C1          3.7240    7.9300   -3.0460 c3        1 5AF     -0.207000
      2 C5          4.0770    7.0320   -4.2450 c3        1 5AF     -0.176000
      3 C8          2.7650    6.5380   -4.9460 c3        1 5AF     -0.013000
      4 C9          2.9160    6.6560   -6.4310 c3        1 5AF     -0.176000
      5 C10         2.6750    8.0910   -6.8550 c3        1 5AF     -0.207000
      6 N17         2.5250    5.1290   -4.5900 n3        1 5AF     -0.349000
      7 C19         1.1470    4.9610   -4.1840 c3        1 5AF      0.084000
      8 N20         0.8370    5.8900   -3.1060 n3        1 5AF     -0.325000
      9 C23         0.9280    3.5430   -3.7030 c2        1 5AF     -0.084000
     10 C28         1.8360    2.9570   -2.7470 c1        1 5AF     -0.128000
     11 C30         1.5780    1.6880   -2.2200 c1        1 5AF     -0.103000
     12 C24        -0.1740    2.8630   -4.0910 c2        1 5AF     -0.115000
     13 C26        -0.4390    1.5720   -3.5570 c1        1 5AF     -0.111000
     14 C32         0.4620    0.9970   -2.6110 c1        1 5AF     -0.016000
     15 C33         0.2070   -0.3600   -2.0700 c1        1 5AF      0.007000
     16 O38        -0.3930   -0.6590   -0.8540 os        1 5AF     -0.101000
     17 C34         0.5770   -1.5460   -2.6680 c1        1 5AF     -0.178000
     18 C36         0.2130   -2.5780   -1.8340 c1        1 5AF     -0.179000
     19 C39        -0.3890   -2.0330   -0.7090 c2        1 5AF      0.008000
     20 C40        -0.7900   -2.7300    0.4080 c1        1 5AF     -0.017000
     21 C45         0.0590   -2.8460    1.4950 c1        1 5AF     -0.115500
     22 C47        -0.3340   -3.6240    2.6250 c1        1 5AF     -0.115500
     23 C41        -2.0360   -3.3760    0.4180 c1        1 5AF     -0.111000
     24 C43        -2.4270   -4.1470    1.5380 c1        1 5AF     -0.114000
     25 C49        -1.5830   -4.2680    2.6300 c1        1 5AF     -0.088000
     26 C50        -1.9210   -5.2620    3.7300 c3        1 5AF      0.082000
     27 N51        -0.9920   -6.3270    3.7020 n3        1 5AF     -0.325000
     28 N54        -1.8730   -4.5930    5.0460 n3        1 5AF     -0.350000
     29 C56        -2.7150   -5.3530    6.0170 c3        1 5AF     -0.009000
     30 C65        -1.7940   -6.1040    6.9720 c3        1 5AF     -0.162500
     31 C68        -1.7460   -7.5820    6.5920 c3        1 5AF     -0.210000
     32 C58        -3.5980   -4.3920    6.8080 c3        1 5AF     -0.162500
     33 C61        -4.4060   -5.1870    7.8390 c3        1 5AF     -0.210000
     34 H2          2.9120    8.3550   -3.2030 hc        1 5AF      0.073667
     35 H4          3.6590    7.4100   -2.2780 hc        1 5AF      0.073667
     36 H3          4.4220    8.5980   -2.9270 hc        1 5AF      0.073667
     37 H6          4.6100    6.2240   -3.9160 hc        1 5AF      0.082500
     38 H7          4.6340    7.5570   -4.9050 hc        1 5AF      0.082500
     39 H16         2.0260    7.0710   -4.6590 h1        1 5AF      0.095000
     40 H15         2.2740    6.0790   -6.8640 hc        1 5AF      0.082500
     41 H14         3.8860    6.3700   -6.7090 hc        1 5AF      0.082500
     42 H11         1.7030    8.1820   -7.2690 hc        1 5AF      0.073667
     43 H13         2.7560    8.6950   -6.0570 hc        1 5AF      0.073667
     44 H12         3.3110    8.3350   -7.4960 hc        1 5AF      0.073667
     45 H18         2.7020    4.5850   -5.3350 hn        1 5AF      0.162000
     46 H19         0.5220    5.1490   -4.9940 h2        1 5AF      0.108000
     47 H21         0.3250    6.5450   -3.4170 hn        1 5AF      0.146500
     48 H22         1.5260    6.2030   -2.8100 hn        1 5AF      0.146500
     49 H29         2.6110    3.4340   -2.4720 ha        1 5AF      0.135000
     50 H31         2.2200    1.2790   -1.5470 ha        1 5AF      0.147000
     51 H25        -0.7570    3.2390   -4.7050 ha        1 5AF      0.138000
     52 H27        -1.2550    1.0680   -3.8450 ha        1 5AF      0.137000
     53 H35         1.0250   -1.6390   -3.5410 DU        1 5AF      0.162000
     54 H37         0.3530   -3.5240   -2.0070 DU        1 5AF      0.162000
     55 H46         0.9620   -2.3780    1.4860 ha        1 5AF      0.138500
     56 H48         0.2950   -3.7130    3.4360 ha        1 5AF      0.138500
     57 H42        -2.6410   -3.2920   -0.3600 ha        1 5AF      0.137000
     58 H44        -3.2720   -4.5830    1.5410 ha        1 5AF      0.137000
     59 H50        -2.7330   -5.5810    3.5950 h2        1 5AF      0.115000
     60 H52        -1.1240   -6.8240    2.9540 hn        1 5AF      0.147500
     61 H53        -1.1090   -6.8550    4.4430 hn        1 5AF      0.147500
     62 H55        -2.1910   -3.7150    4.9690 hn        1 5AF      0.159000
     63 H57        -3.2850   -5.9950    5.5290 h1        1 5AF      0.074000
     64 H67        -2.1240   -6.0120    7.8880 hc        1 5AF      0.083250
     65 H66        -0.8220   -5.6960    6.9060 hc        1 5AF      0.083250
     66 H70        -2.3730   -7.7530    5.8580 hc        1 5AF      0.073667
     67 H69        -0.8560   -7.8110    6.3110 hc        1 5AF      0.073667
     68 H71        -2.0080   -8.1570    7.4130 hc        1 5AF      0.073667
     69 H59        -4.2120   -3.9290    6.1950 hc        1 5AF      0.083250
     70 H60        -3.0790   -3.7850    7.2330 hc        1 5AF      0.083250
     71 H64        -5.1580   -4.5490    8.2810 hc        1 5AF      0.073667
     72 H62        -4.8420   -5.9540    7.3920 hc        1 5AF      0.073667
     73 H63        -3.8100   -5.5130    8.5320 hc        1 5AF      0.073667
@<TRIPOS>BOND
     1    1    2 1   
     2    1   34 1   
     3    1   35 1   
     4    1   36 1   
     5    2    3 1   
     6    2   37 1   
     7    2   38 1   
     8    3    4 1   
     9    3    6 1   
    10    3   39 1   
    11    4    5 1   
    12    4   40 1   
    13    4   41 1   
    14    5   42 1   
    15    5   43 1   
    16    5   44 1   
    17    6    7 1   
    18    6   45 1   
    19    7    8 1   
    20    7    9 1   
    21    7   46 1   
    22    8   47 1   
    23    8   48 1   
    24    9   10 1   
    25    9   12 1   
    26   10   49 1   
    27   11   14 1   
    28   11   50 1   
    29   12   13 1   
    30   12   51 1   
    31   13   52 1   
    32   15   16 1   
    33   15   17 1   
    34   16   19 1   
    35   17   18 1   
    36   18   19 1   
    37   19   20 1   
    38   20   23 1   
    39   21   22 1   
    40   21   55 1   
    41   22   56 1   
    42   23   57 1   
    43   24   25 1   
    44   24   58 1   
    45   25   26 1   
    46   26   27 1   
    47   26   28 1   
    48   26   59 1   
    49   27   60 1   
    50   27   61 1   
    51   28   29 1   
    52   28   62 1   
    53   29   30 1   
    54   29   32 1   
    55   29   63 1   
    56   30   31 1   
    57   30   64 1   
    58   30   65 1   
    59   31   66 1   
    60   31   67 1   
    61   31   68 1   
    62   32   33 1   
    63   32   69 1   
    64   32   70 1   
    65   33   71 1   
    66   33   72 1   
    67   33   73 1   
@<TRIPOS>SUBSTRUCTURE
     1 5AF         1 TEMP              0 ****  ****    0 ROOT
