@<TRIPOS>MOLECULE
5AF
   73    75     1     0     0
SMALL
bcc


@<TRIPOS>ATOM
      1 C1          8.3070    3.6280   -0.8430 c3        1 5AF     -0.093350
      2 C5          8.3400    2.6940    0.3380 c3        1 5AF     -0.091900
      3 C8          7.8990    1.2640   -0.0300 c3        1 5AF      0.186000
      4 C9          8.2340    0.3540    1.1660 c3        1 5AF     -0.091900
      5 C10         8.0570   -1.1090    0.8640 c3        1 5AF     -0.093350
      6 N17         6.5090    1.2410   -0.4510 n3        1 5AF     -0.875200
      7 C19         6.1640    0.2290   -1.4710 c3        1 5AF      0.452500
      8 N20         6.1100    0.7550   -2.8370 n3        1 5AF     -0.915800
      9 C23         4.8500   -0.4570   -1.1250 ca        1 5AF     -0.069800
     10 C28         3.6790    0.2900   -0.9660 ca        1 5AF     -0.118750
     11 C30         2.4810   -0.3440   -0.6480 ca        1 5AF     -0.108000
     12 C24         4.8130   -1.8450   -0.9720 ca        1 5AF     -0.118750
     13 C26         3.6160   -2.4840   -0.6550 ca        1 5AF     -0.108000
     14 C32         2.4390   -1.7380   -0.4880 ca        1 5AF     -0.123500
     15 C33         1.2080   -2.4110   -0.1580 cc        1 5AF      0.309700
     16 O38         0.0690   -1.6100    0.0180 os        1 5AF     -0.359800
     17 C34         0.8780   -3.7450    0.0350 cd        1 5AF     -0.244300
     18 C36        -0.5260   -3.7900    0.3460 cd        1 5AF     -0.244300
     19 C39        -0.9870   -2.4810    0.3280 cc        1 5AF      0.309700
     20 C40        -2.2820   -1.8890    0.5570 ca        1 5AF     -0.123500
     21 C45        -3.3740   -2.7090    0.8820 ca        1 5AF     -0.108000
     22 C47        -4.6290   -2.1510    1.1060 ca        1 5AF     -0.118750
     23 C41        -2.4700   -0.5020    0.4600 ca        1 5AF     -0.108000
     24 C43        -3.7270    0.0520    0.6850 ca        1 5AF     -0.118750
     25 C49        -4.8110   -0.7690    1.0080 ca        1 5AF     -0.069800
     26 C50        -6.1910   -0.1740    1.2580 c3        1 5AF      0.452500
     27 N51        -6.1540    0.6570    2.4620 n3        1 5AF     -0.915800
     28 N54        -6.6880    0.4080    0.0040 n3        1 5AF     -0.875200
     29 C56        -8.0670    0.8680    0.0040 c3        1 5AF      0.186000
     30 C65        -8.2260    2.3830   -0.2180 c3        1 5AF     -0.091900
     31 C68        -7.6460    3.2080    0.8990 c3        1 5AF     -0.093350
     32 C58        -8.8890    0.1470   -1.0840 c3        1 5AF     -0.091900
     33 C61        -9.0310   -1.3260   -0.8080 c3        1 5AF     -0.093350
     34 H2          8.9180    3.2220   -1.6850 hc        1 5AF      0.034117
     35 H4          8.7220    4.6250   -0.5540 hc        1 5AF      0.034117
     36 H3          7.2620    3.7750   -1.2080 hc        1 5AF      0.034117
     37 H6          9.3870    2.6380    0.7370 hc        1 5AF      0.043825
     38 H7          7.6880    3.0930    1.1580 hc        1 5AF      0.043825
     39 H16         8.5350    0.9310   -0.9060 h1        1 5AF      0.046700
     40 H15         7.5960    0.6400    2.0440 hc        1 5AF      0.043825
     41 H14         9.3010    0.5400    1.4580 hc        1 5AF      0.043825
     42 H11         6.9860   -1.3510    0.6500 hc        1 5AF      0.034117
     43 H13         8.3840   -1.7240    1.7370 hc        1 5AF      0.034117
     44 H12         8.6680   -1.4070   -0.0230 hc        1 5AF      0.034117
     45 H18         5.8900    1.2060    0.3330 hn        1 5AF      0.372800
     46 H19         6.9770   -0.5700   -1.5040 h2        1 5AF      0.067200
     47 H21         5.3120    1.3490   -2.9610 hn        1 5AF      0.351050
     48 H22         6.9360    1.2840   -3.0420 hn        1 5AF      0.351050
     49 H29         3.7020    1.3830   -1.0920 ha        1 5AF      0.136000
     50 H31         1.5580    0.2440   -0.5220 ha        1 5AF      0.141500
     51 H25         5.7290   -2.4410   -1.1080 ha        1 5AF      0.136000
     52 H27         3.5920   -3.5770   -0.5370 ha        1 5AF      0.141500
     53 H35         1.5410   -4.6030   -0.0340 ha        1 5AF      0.161500
     54 H37        -1.1020   -4.6880    0.5520 ha        1 5AF      0.161500
     55 H46        -3.2360   -3.7980    0.9610 ha        1 5AF      0.141500
     56 H48        -5.4790   -2.8020    1.3600 ha        1 5AF      0.136000
     57 H42        -1.6160    0.1440    0.2050 ha        1 5AF      0.141500
     58 H44        -3.8600    1.1410    0.6050 ha        1 5AF      0.136000
     59 H50        -6.9120   -1.0220    1.5000 h2        1 5AF      0.067200
     60 H52        -5.4240    1.3390    2.4240 hn        1 5AF      0.351050
     61 H53        -7.0300    1.1150    2.6190 hn        1 5AF      0.351050
     62 H55        -6.0650    1.0950   -0.3710 hn        1 5AF      0.372800
     63 H57        -8.5540    0.6190    0.9960 h1        1 5AF      0.046700
     64 H67        -9.3220    2.6080   -0.3070 hc        1 5AF      0.043825
     65 H66        -7.7500    2.6710   -1.1920 hc        1 5AF      0.043825
     66 H70        -7.8430    4.2930    0.7150 hc        1 5AF      0.034117
     67 H69        -6.5410    3.0680    0.9760 hc        1 5AF      0.034117
     68 H71        -8.1080    2.9320    1.8780 hc        1 5AF      0.034117
     69 H59        -9.9060    0.6200   -1.1170 hc        1 5AF      0.043825
     70 H60        -8.4110    0.3030   -2.0850 hc        1 5AF      0.043825
     71 H64        -9.6950   -1.7970   -1.5730 hc        1 5AF      0.034117
     72 H62        -8.0380   -1.8360   -0.8430 hc        1 5AF      0.034117
     73 H63        -9.4790   -1.4980    0.2010 hc        1 5AF      0.034117
@<TRIPOS>BOND
     1    1    2 1   
     2    1   34 1   
     3    1   35 1   
     4    1   36 1   
     5    2    3 1   
     6    2   37 1   
     7    2   38 1   
     8    3    4 1   
     9    3    6 1   
    10    3   39 1   
    11    4    5 1   
    12    4   40 1   
    13    4   41 1   
    14    5   42 1   
    15    5   43 1   
    16    5   44 1   
    17    6    7 1   
    18    6   45 1   
    19    7    8 1   
    20    7    9 1   
    21    7   46 1   
    22    8   47 1   
    23    8   48 1   
    24    9   10 ar  
    25    9   12 ar  
    26   10   11 ar  
    27   10   49 1   
    28   11   14 ar  
    29   11   50 1   
    30   12   13 ar  
    31   12   51 1   
    32   13   14 ar  
    33   13   52 1   
    34   14   15 1   
    35   15   16 1   
    36   15   17 2   
    37   16   19 1   
    38   17   18 1   
    39   17   53 1   
    40   18   19 2   
    41   18   54 1   
    42   19   20 1   
    43   20   21 ar  
    44   20   23 ar  
    45   21   22 ar  
    46   21   55 1   
    47   22   25 ar  
    48   22   56 1   
    49   23   24 ar  
    50   23   57 1   
    51   24   25 ar  
    52   24   58 1   
    53   25   26 1   
    54   26   27 1   
    55   26   28 1   
    56   26   59 1   
    57   27   60 1   
    58   27   61 1   
    59   28   29 1   
    60   28   62 1   
    61   29   30 1   
    62   29   32 1   
    63   29   63 1   
    64   30   31 1   
    65   30   64 1   
    66   30   65 1   
    67   31   66 1   
    68   31   67 1   
    69   31   68 1   
    70   32   33 1   
    71   32   69 1   
    72   32   70 1   
    73   33   71 1   
    74   33   72 1   
    75   33   73 1   
@<TRIPOS>SUBSTRUCTURE
     1 5AF         1 TEMP              0 ****  ****    0 ROOT
