@<TRIPOS>MOLECULE
5AF
   77    79     1     0     0
SMALL
bcc


@<TRIPOS>ATOM
      1 C1         -1.2760   -0.8990    1.3140 c3        1 5AF     -0.128600
      2 C5         -0.3410   -0.0330    0.5160 c3        1 5AF     -0.126400
      3 C8          1.0220    0.1770    1.1770 c3        1 5AF      0.126500
      4 C9          1.9790    0.8740    0.2020 c3        1 5AF     -0.126400
      5 C10         3.3820    0.9970    0.7310 c3        1 5AF     -0.128600
      6 N17         0.8870    0.9890    2.4660 ny        1 5AF     -0.806000
      7 C19         1.3380    0.2720    3.7210 c3        1 5AF      0.411000
      8 N20         0.4590   -0.9110    4.0990 nz        1 5AF     -0.869600
      9 C23         1.4310    1.2220    4.8810 ca        1 5AF     -0.272300
     10 C28         0.3150    1.9210    5.3690 ca        1 5AF     -0.080500
     11 C30         0.4500    2.8000    6.4380 ca        1 5AF     -0.097500
     12 C24         2.6840    1.4070    5.4850 ca        1 5AF     -0.080500
     13 C26         2.8180    2.2880    6.5530 ca        1 5AF     -0.097500
     14 C32         1.7070    3.0040    7.0420 ca        1 5AF     -0.025500
     15 C33         1.9120    3.9300    8.1260 cc        1 5AF      0.276200
     16 O38         0.8040    4.5210    8.7600 os        1 5AF     -0.349800
     17 C34         3.0940    4.3960    8.6970 cd        1 5AF     -0.173300
     18 C36         2.7240    5.3200    9.7290 cd        1 5AF     -0.173300
     19 C39         1.3330    5.3750    9.7460 cc        1 5AF      0.276200
     20 C40         0.4430    6.1260   10.5950 ca        1 5AF     -0.025500
     21 C45         0.9950    7.1110   11.4390 ca        1 5AF     -0.097500
     22 C47         0.1880    7.8410   12.3040 ca        1 5AF     -0.080500
     23 C41        -0.9480    5.9040   10.6320 ca        1 5AF     -0.097500
     24 C43        -1.7560    6.6320   11.4980 ca        1 5AF     -0.080500
     25 C49        -1.1940    7.6020   12.3440 ca        1 5AF     -0.272300
     26 C50        -2.0240    8.4050   13.3050 c3        1 5AF      0.411000
     27 N51        -2.9890    9.2900   12.5310 nz        1 5AF     -0.869600
     28 N54        -2.7000    7.5080   14.3200 ny        1 5AF     -0.806000
     29 C56        -3.3430    8.2400   15.5000 c3        1 5AF      0.126500
     30 C65        -4.8500    7.9880   15.5460 c3        1 5AF     -0.126400
     31 C68        -5.6010    8.5810   14.3870 c3        1 5AF     -0.128600
     32 C58        -2.6930    7.8040   16.8190 c3        1 5AF     -0.126400
     33 C61        -1.2300    8.1430   16.9030 c3        1 5AF     -0.128600
     34 H2         -1.5890   -0.4130    2.2700 hc        1 5AF      0.059533
     35 H4         -2.2100   -1.0820    0.7150 hc        1 5AF      0.059533
     36 H3         -0.8270   -1.9010    1.5270 hc        1 5AF      0.059533
     37 H6         -0.8230    0.9540    0.2770 hc        1 5AF      0.116450
     38 H7         -0.1440   -0.5320   -0.4790 hc        1 5AF      0.116450
     39 H16         1.4670   -0.8220    1.4600 hx        1 5AF      0.089700
     40 H15         1.5750    1.8790   -0.0960 hc        1 5AF      0.116450
     41 H14         1.9940    0.2440   -0.7350 hc        1 5AF      0.116450
     42 H11         4.0590    1.3390   -0.0970 hc        1 5AF      0.059533
     43 H13         3.4620    1.7490    1.5530 hc        1 5AF      0.059533
     44 H12         3.7690    0.0140    1.0950 hc        1 5AF      0.059533
     45 H18        -0.0800    1.3260    2.5620 hn        1 5AF      0.479800
     46 H19         2.3700   -0.1650    3.4770 hx        1 5AF      0.169700
     47 H21         0.9630   -1.4480    4.8240 hn        1 5AF      0.488133
     48 H22        -0.4320   -0.5910    4.5010 hn        1 5AF      0.488133
     49 H29        -0.6790    1.7920    4.9120 ha        1 5AF      0.151500
     50 H31        -0.4280    3.3500    6.8170 ha        1 5AF      0.184000
     51 H25         3.5760    0.8650    5.1250 ha        1 5AF      0.151500
     52 H27         3.8120    2.4210    7.0180 ha        1 5AF      0.184000
     53 H35         4.1180    4.1310    8.4280 ha        1 5AF      0.198000
     54 H37         3.4240    5.8600   10.3690 ha        1 5AF      0.198000
     55 H46         2.0820    7.3120   11.4190 ha        1 5AF      0.184000
     56 H48         0.6530    8.6020   12.9540 ha        1 5AF      0.151500
     57 H42        -1.3920    5.1400    9.9700 ha        1 5AF      0.184000
     58 H44        -2.8380    6.4270   11.5110 ha        1 5AF      0.151500
     59 H50        -1.3590    9.1160   13.9120 hx        1 5AF      0.169700
     60 H52        -2.4250    9.9980   12.0340 hn        1 5AF      0.488133
     61 H53        -3.6640    9.7680   13.1490 hn        1 5AF      0.488133
     62 H55        -1.9490    6.8950   14.6890 hn        1 5AF      0.479800
     63 H57        -3.1440    9.3430   15.3530 hx        1 5AF      0.089700
     64 H67        -5.0660    6.8880   15.6380 hc        1 5AF      0.116450
     65 H66        -5.2260    8.4590   16.5030 hc        1 5AF      0.116450
     66 H70        -5.3440    8.0850   13.4200 hc        1 5AF      0.059533
     67 H69        -5.4280    9.6820   14.3050 hc        1 5AF      0.059533
     68 H71        -6.7040    8.4350   14.5500 hc        1 5AF      0.059533
     69 H59        -2.8600    6.7070   16.9970 hc        1 5AF      0.116450
     70 H60        -3.2440    8.3490   17.6400 hc        1 5AF      0.116450
     71 H64        -0.6060    7.5040   16.2330 hc        1 5AF      0.059533
     72 H62        -0.8710    7.9700   17.9530 hc        1 5AF      0.059533
     73 H63        -1.0450    9.2180   16.6590 hc        1 5AF      0.059533
     74 H172        1.5000    1.8220    2.3900 hn        1 5AF      0.479800
     75 H203        0.2650   -1.5280    3.2950 hn        1 5AF      0.488133
     76 H513       -3.5050    8.7420   11.8290 hn        1 5AF      0.488133
     77 H542       -3.3980    6.9030   13.8690 hn        1 5AF      0.479800
@<TRIPOS>BOND
     1    1    2 1   
     2    1   34 1   
     3    1   35 1   
     4    1   36 1   
     5    2    3 1   
     6    2   37 1   
     7    2   38 1   
     8    3    4 1   
     9    3    6 1   
    10    3   39 1   
    11    4    5 1   
    12    4   40 1   
    13    4   41 1   
    14    5   42 1   
    15    5   43 1   
    16    5   44 1   
    17    6    7 1   
    18    6   45 1   
    19    6   74 1   
    20    7    8 1   
    21    7    9 1   
    22    7   46 1   
    23    8   47 1   
    24    8   48 1   
    25    8   75 1   
    26    9   10 ar  
    27    9   12 ar  
    28   10   11 ar  
    29   10   49 1   
    30   11   14 ar  
    31   11   50 1   
    32   12   13 ar  
    33   12   51 1   
    34   13   14 ar  
    35   13   52 1   
    36   14   15 1   
    37   15   16 1   
    38   15   17 2   
    39   16   19 1   
    40   17   18 1   
    41   17   53 1   
    42   18   19 2   
    43   18   54 1   
    44   19   20 1   
    45   20   21 ar  
    46   20   23 ar  
    47   21   22 ar  
    48   21   55 1   
    49   22   25 ar  
    50   22   56 1   
    51   23   24 ar  
    52   23   57 1   
    53   24   25 ar  
    54   24   58 1   
    55   25   26 1   
    56   26   27 1   
    57   26   28 1   
    58   26   59 1   
    59   27   60 1   
    60   27   61 1   
    61   27   76 1   
    62   28   29 1   
    63   28   62 1   
    64   28   77 1   
    65   29   30 1   
    66   29   32 1   
    67   29   63 1   
    68   30   31 1   
    69   30   64 1   
    70   30   65 1   
    71   31   66 1   
    72   31   67 1   
    73   31   68 1   
    74   32   33 1   
    75   32   69 1   
    76   32   70 1   
    77   33   71 1   
    78   33   72 1   
    79   33   73 1   
@<TRIPOS>SUBSTRUCTURE
     1 5AF         1 TEMP              0 ****  ****    0 ROOT
