@<TRIPOS>MOLECULE
5AL
   46    39     1     0     0
SMALL
bcc


@<TRIPOS>ATOM
      1 C          -0.4980   -2.1160    5.2440 c1        1 5AL      0.301000
      2 N          -1.7490   -0.2420    6.1020 n3        1 5AL     -0.322000
      3 O          -0.5540   -3.3040    5.1480 o         1 5AL     -0.397000
      4 P           0.5160   -2.0870    2.9030 p3        1 5AL      2.569000
      5 N1         -0.3170    0.9530   -7.1010 n1        1 5AL     -0.274000
      6 C2         -1.1620    1.4300   -6.1450 c1        1 5AL      0.005000
      7 N3         -0.7920    1.4000   -4.8210 n2        1 5AL     -0.193000
      8 C4          0.4260    0.8910   -4.4660 c1        1 5AL      0.063000
      9 C5          1.2550    0.4220   -5.4130 c1        1 5AL     -0.230000
     10 C6          0.8720    0.4560   -6.7560 c1        1 5AL      0.212000
     11 N6          1.4650    0.0750   -7.9760 n3        1 5AL     -0.344000
     12 N7          2.3850   -0.0220   -4.7980 n1        1 5AL     -0.160500
     13 C8          2.2490    0.1750   -3.4550 c1        1 5AL     -0.026000
     14 N9          1.0560    0.7340   -3.2370 n1        1 5AL     -0.160500
     15 CA         -1.0270   -1.4360    6.4770 c2        1 5AL     -0.027000
     16 CB         -1.9450   -2.3730    7.2090 c3        1 5AL     -0.208000
     17 C1'         0.9370    1.5370   -2.0170 c2        1 5AL      0.121000
     18 O1A        -0.6850   -2.6740    2.2140 o         1 5AL     -1.138000
     19 C2'        -0.2650    1.4400   -1.5250 c3        1 5AL     -0.001000
     20 O2'        -1.0590    2.5160   -1.9840 oh        1 5AL     -0.315000
     21 O2A         1.4520   -3.1670    3.2480 o         1 5AL     -1.138000
     22 C3'        -0.1050    1.5120    0.1420 c3        1 5AL      0.002000
     23 O3'         0.0420    2.9020    0.5720 oh        1 5AL     -0.363000
     24 O3A         0.0650   -1.3510    4.2040 os        1 5AL     -0.676000
     25 C4'         0.9190    0.8760    0.4250 c3        1 5AL     -0.048000
     26 O4'         1.8560    0.9920   -0.9370 os        1 5AL     -0.275000
     27 C5'         0.5850   -0.6140    0.7220 c3        1 5AL      0.049000
     28 O5'         1.2590   -1.0230    1.9060 o         1 5AL     -0.726000
     29 HN         -1.1310    0.5250    6.0960 hn        1 5AL      0.151000
     30 H2         -2.0380    1.7980   -6.4040 DU        1 5AL      0.198500
     31 HN6         2.3620   -0.1290   -8.0060 hn        1 5AL      0.224500
     32 HN6A        0.9650   -0.0020   -8.7130 hn        1 5AL      0.224500
     33 H8          2.9020   -0.1450   -2.7340 DU        1 5AL      0.198500
     34 HB         -1.4480   -3.1900    7.4640 hc        1 5AL      0.084667
     35 HBA        -2.2820   -1.9400    7.9990 hc        1 5AL      0.084667
     36 HBB        -2.6950   -2.6190    6.6280 hc        1 5AL      0.084667
     37 H1'         1.1600    2.5120   -2.2140 h4        1 5AL      0.154000
     38 H2'        -0.6940    0.5360   -1.8020 h1        1 5AL      0.127000
     39 HO2'       -1.8790    2.4070   -1.7190 ho        1 5AL      0.226000
     40 H3'        -0.8820    1.1070    0.5710 h1        1 5AL      0.129000
     41 HO3'       -0.6290    3.1110    1.1750 ho        1 5AL      0.280000
     42 H4'         1.3820    1.2930    1.2040 h1        1 5AL      0.135000
     43 H5'        -0.4400   -0.7230    0.8520 h1        1 5AL      0.064000
     44 H5'A        0.8720   -1.1500   -0.0050 h1        1 5AL      0.064000
     45 H18        -2.4000   -0.0930    6.6850 hn        1 5AL      0.151000
     46 H19        -0.3050   -1.2010    7.0390 h4        1 5AL      0.116000
@<TRIPOS>BOND
     1    1    3 1   
     2    1   24 1   
     3    2   15 1   
     4    2   29 1   
     5    2   45 1   
     6    4   18 1   
     7    4   21 1   
     8    4   24 1   
     9    5    6 1   
    10    6    7 1   
    11    7    8 1   
    12    9   10 1   
    13   10   11 1   
    14   11   31 1   
    15   11   32 1   
    16   12   13 1   
    17   13   14 1   
    18   15   16 1   
    19   15   46 1   
    20   16   34 1   
    21   16   35 1   
    22   16   36 1   
    23   17   19 1   
    24   17   26 1   
    25   17   37 1   
    26   19   20 1   
    27   19   22 1   
    28   19   38 1   
    29   20   39 1   
    30   22   23 1   
    31   22   25 1   
    32   22   40 1   
    33   23   41 1   
    34   25   26 1   
    35   25   27 1   
    36   25   42 1   
    37   27   28 1   
    38   27   43 1   
    39   27   44 1   
@<TRIPOS>SUBSTRUCTURE
     1 5AL         1 TEMP              0 ****  ****    0 ROOT
