@<TRIPOS>MOLECULE
5AL
   48    50     1     0     0
SMALL
bcc


@<TRIPOS>ATOM
      1 C          -0.3660   -1.9300    1.3410 c         1 5AL      0.725100
      2 N          -0.4830    0.5260    1.2950 n3        1 5AL     -0.935800
      3 O          -0.1290   -2.9150    2.0290 o         1 5AL     -0.474000
      4 P          -2.9000   -1.8690    0.3040 p5        1 5AL      1.743500
      5 N1         -5.4360   -7.1120    6.6590 nb        1 5AL     -0.682000
      6 C2         -5.5270   -7.8290    5.5060 ca        1 5AL      0.664900
      7 N3         -5.4660   -7.3870    4.2190 nb        1 5AL     -0.621000
      8 C4         -5.2880   -6.0530    4.1000 ca        1 5AL      0.462800
      9 C5         -5.1730   -5.1480    5.2720 ca        1 5AL     -0.118200
     10 C6         -5.2600   -5.7700    6.5270 ca        1 5AL      0.496200
     11 N6         -5.1550   -4.9280    7.7320 n4        1 5AL     -0.811300
     12 N7         -4.9950   -3.8310    4.8480 nc        1 5AL     -0.610100
     13 C8         -4.9960   -3.8950    3.4990 cd        1 5AL      0.542700
     14 N9         -5.1920   -5.1980    2.9870 na        1 5AL     -0.250000
     15 CA          0.4120   -0.6130    1.3040 c3        1 5AL      0.105500
     16 CB          1.4450   -0.6340    2.4300 c3        1 5AL     -0.130100
     17 C1'        -5.1770   -5.6520    1.6140 c3        1 5AL      0.215800
     18 O1A        -3.6230   -2.0080    1.5560 o         1 5AL     -0.840300
     19 C2'        -6.1330   -4.8790    0.6460 c3        1 5AL      0.091100
     20 O2'        -7.3790   -5.5130    0.5640 oh        1 5AL     -0.572800
     21 O2A        -2.9830   -0.5110   -0.4870 oh        1 5AL     -0.750400
     22 C3'        -5.3610   -4.8650   -0.6940 c3        1 5AL      0.090100
     23 O3'        -5.8890   -5.8640   -1.5480 oh        1 5AL     -0.595800
     24 O3A        -1.3120   -2.0780    0.3680 os        1 5AL     -0.681500
     25 C4'        -3.9200   -5.2810   -0.3430 c3        1 5AL      0.109100
     26 O4'        -3.8490   -5.5190    1.0760 os        1 5AL     -0.424600
     27 C5'        -2.8330   -4.2680   -0.7130 c3        1 5AL      0.179400
     28 O5'        -3.3220   -2.9500   -0.7930 os        1 5AL     -0.587200
     29 HN         -2.1710   -0.1210   -0.8130 ho        1 5AL      0.507000
     30 HN6        -5.9290   -4.2530    7.7240 hn        1 5AL      0.475133
     31 HN6A       -4.2640   -4.4180    7.6930 hn        1 5AL      0.475133
     32 HB          0.9480   -0.6410    3.4290 hc        1 5AL      0.060700
     33 HBA         2.1060    0.2620    2.3580 hc        1 5AL      0.060700
     34 HBB         2.0730   -1.5540    2.3470 hc        1 5AL      0.060700
     35 H1'        -5.4380   -6.7540    1.6140 h2        1 5AL      0.110700
     36 H2'        -6.3490   -3.8370    1.0050 h1        1 5AL      0.107700
     37 HO2'       -7.2700   -6.3390    0.0660 ho        1 5AL      0.428000
     38 H3'        -5.3990   -3.8560   -1.1790 h1        1 5AL      0.099700
     39 HO3'       -6.5730   -5.4470   -2.0890 ho        1 5AL      0.429000
     40 H4'        -3.6730   -6.2640   -0.8400 h1        1 5AL      0.101700
     41 H5'        -1.9930   -4.3220    0.0340 h1        1 5AL      0.079200
     42 H5'A       -2.4550   -4.5280   -1.7430 h1        1 5AL      0.079200
     43 H18        -0.7750    0.7650    2.2220 hn        1 5AL      0.374800
     44 H19         0.9620   -0.6350    0.3110 h1        1 5AL      0.095700
     45 H8         -4.8480   -3.0130    2.8340 h5        1 5AL      0.166800
     46 HN3        -0.0390    1.3170    0.8730 hn        1 5AL      0.374800
     47 H63        -5.1970   -5.4950    8.5880 hn        1 5AL      0.475133
     48 H2         -5.6700   -8.9270    5.6360 h5        1 5AL      0.095100
@<TRIPOS>BOND
     1    1    3 2   
     2    1   15 1   
     3    1   24 1   
     4    2   15 1   
     5    2   43 1   
     6    2   46 1   
     7    4   18 2   
     8    4   21 1   
     9    4   24 1   
    10    4   28 1   
    11    5    6 ar  
    12    5   10 ar  
    13    6    7 ar  
    14    6   48 1   
    15    7    8 ar  
    16    8    9 ar  
    17    8   14 1   
    18    9   10 ar  
    19    9   12 1   
    20   10   11 1   
    21   11   30 1   
    22   11   31 1   
    23   11   47 1   
    24   12   13 2   
    25   13   14 1   
    26   13   45 1   
    27   14   17 1   
    28   15   16 1   
    29   15   44 1   
    30   16   32 1   
    31   16   33 1   
    32   16   34 1   
    33   17   19 1   
    34   17   26 1   
    35   17   35 1   
    36   19   20 1   
    37   19   22 1   
    38   19   36 1   
    39   20   37 1   
    40   21   29 1   
    41   22   23 1   
    42   22   25 1   
    43   22   38 1   
    44   23   39 1   
    45   25   26 1   
    46   25   27 1   
    47   25   40 1   
    48   27   28 1   
    49   27   41 1   
    50   27   42 1   
@<TRIPOS>SUBSTRUCTURE
     1 5AL         1 TEMP              0 ****  ****    0 ROOT
