@<TRIPOS>MOLECULE
5AL
   47    49     1     0     0
SMALL
bcc


@<TRIPOS>ATOM
      1 C          -0.8850    0.6980    1.0230 c         1 5AL      0.722100
      2 N           0.5430   -0.5780   -0.4750 n8        1 5AL     -0.926800
      3 O          -1.0080    1.9160    1.0300 o         1 5AL     -0.467000
      4 P          -3.0010   -0.8770    0.3660 p5        1 5AL      1.704500
      5 N1         -7.3230   -7.2600    6.0050 nb        1 5AL     -0.796000
      6 C2         -7.7020   -7.1810    4.7030 ca        1 5AL      0.693900
      7 N3         -6.9780   -6.8800    3.5990 nb        1 5AL     -0.766000
      8 C4         -5.6650   -6.6250    3.8880 ca        1 5AL      0.454800
      9 C5         -5.1060   -6.6710    5.2330 ca        1 5AL     -0.229200
     10 C6         -6.0040   -7.0030    6.3040 ca        1 5AL      0.768200
     11 N6         -5.5490   -7.0610    7.5920 nv        1 5AL     -0.959500
     12 N7         -3.7360   -6.3700    5.1940 nc        1 5AL     -0.547100
     13 C8         -3.4620   -6.1520    3.8990 cd        1 5AL      0.421700
     14 N9         -4.5910   -6.2820    3.0540 na        1 5AL     -0.291000
     15 CA          0.4190   -0.0940    0.8860 c3        1 5AL      0.095500
     16 CB          1.5630    0.7820    1.3910 c3        1 5AL     -0.130100
     17 C1'        -4.6350   -6.2030    1.6100 c3        1 5AL      0.226800
     18 O1A        -4.4040   -0.8060    0.7170 o         1 5AL     -0.785300
     19 C2'        -5.7940   -5.3090    1.0600 c3        1 5AL      0.086100
     20 O2'        -6.6840   -6.0890    0.2960 oh        1 5AL     -0.595800
     21 O2A        -2.5050   -0.5200   -1.0910 oh        1 5AL     -0.763400
     22 C3'        -5.1030   -4.2890    0.1280 c3        1 5AL      0.118100
     23 O3'        -5.2640   -4.5720   -1.2470 oh        1 5AL     -0.590800
     24 O3A        -2.0030   -0.0280    1.2920 os        1 5AL     -0.638500
     25 C4'        -3.5990   -4.4270    0.4360 c3        1 5AL      0.108100
     26 O4'        -3.3980   -5.6730    1.1210 os        1 5AL     -0.409600
     27 C5'        -3.0520   -3.2920    1.3120 c3        1 5AL      0.159400
     28 O5'        -2.3820   -2.3500    0.5060 os        1 5AL     -0.601200
     29 HN         -1.7890   -1.0380   -1.4610 ho        1 5AL      0.505000
     30 HN6        -4.5950   -6.8740    7.7730 hn        1 5AL      0.451300
     31 HN6A       -6.1590   -7.2900    8.3360 hn        1 5AL      0.451300
     32 HB          2.5310    0.2300    1.3230 hc        1 5AL      0.056700
     33 HBA         1.3800    1.0590    2.4570 hc        1 5AL      0.056700
     34 HBB         1.6350    1.7240    0.7940 hc        1 5AL      0.056700
     35 H1'        -4.7100   -7.2530    1.1920 h2        1 5AL      0.104700
     36 H2'        -6.3400   -4.7730    1.8820 h1        1 5AL      0.081700
     37 HO2'       -7.2600   -6.5540    0.9190 ho        1 5AL      0.439000
     38 H3'        -5.4880   -3.2530    0.3380 h1        1 5AL      0.090700
     39 HO3'       -6.1860   -4.8300   -1.3880 ho        1 5AL      0.432000
     40 H4'        -2.9980   -4.5130   -0.5120 h1        1 5AL      0.114700
     41 H5'        -2.2910   -3.7210    2.0240 h1        1 5AL      0.067200
     42 H5'A       -3.8740   -2.7810    1.8860 h1        1 5AL      0.067200
     43 H18         1.2390   -1.2950   -0.5250 hn        1 5AL      0.368800
     44 H19         0.3330   -0.9970    1.5660 h1        1 5AL      0.089700
     45 H8         -2.4800   -5.8980    3.4780 h5        1 5AL      0.083800
     46 HN3         0.7860    0.1670   -1.0990 hn        1 5AL      0.368800
     47 H2         -8.7770   -7.3980    4.5210 h5        1 5AL      0.052100
@<TRIPOS>BOND
     1    1    3 2   
     2    1   15 1   
     3    1   24 1   
     4    2   15 1   
     5    2   43 1   
     6    2   46 1   
     7    4   18 2   
     8    4   21 1   
     9    4   24 1   
    10    4   28 1   
    11    5    6 ar  
    12    5   10 ar  
    13    6    7 ar  
    14    6   47 1   
    15    7    8 ar  
    16    8    9 ar  
    17    8   14 1   
    18    9   10 ar  
    19    9   12 1   
    20   10   11 1   
    21   11   30 1   
    22   11   31 1   
    23   12   13 2   
    24   13   14 1   
    25   13   45 1   
    26   14   17 1   
    27   15   16 1   
    28   15   44 1   
    29   16   32 1   
    30   16   33 1   
    31   16   34 1   
    32   17   19 1   
    33   17   26 1   
    34   17   35 1   
    35   19   20 1   
    36   19   22 1   
    37   19   36 1   
    38   20   37 1   
    39   21   29 1   
    40   22   23 1   
    41   22   25 1   
    42   22   38 1   
    43   23   39 1   
    44   25   26 1   
    45   25   27 1   
    46   25   40 1   
    47   27   28 1   
    48   27   41 1   
    49   27   42 1   
@<TRIPOS>SUBSTRUCTURE
     1 5AL         1 TEMP              0 ****  ****    0 ROOT
