@<TRIPOS>MOLECULE
5AL
   46    48     1     0     0
SMALL
bcc


@<TRIPOS>ATOM
      1 C           4.6760   -0.5300    0.3190 c         1 5AL      0.632100
      2 N           6.8060    0.0430   -0.8380 n3        1 5AL     -0.895800
      3 O           5.2310   -0.9970    1.3280 o         1 5AL     -0.601000
      4 P           2.6930   -1.1830    1.7890 p5        1 5AL      1.436800
      5 N1         -6.4690   -1.0840    0.3680 nb        1 5AL     -0.800000
      6 C2         -6.0160   -0.1310   -0.4920 ca        1 5AL      0.660900
      7 N3         -4.7540    0.2170   -0.8270 nb        1 5AL     -0.722000
      8 C4         -3.8110   -0.5360   -0.1820 ca        1 5AL      0.437800
      9 C5         -4.1400   -1.5940    0.7700 ca        1 5AL     -0.213200
     10 C6         -5.5270   -1.8280    1.0360 ca        1 5AL      0.729200
     11 N6         -5.9000   -2.7540    1.9930 nh        1 5AL     -0.947500
     12 N7         -2.9640   -2.1930    1.2460 nc        1 5AL     -0.571100
     13 C8         -1.9620   -1.5460    0.6310 cd        1 5AL      0.452700
     14 N9         -2.4110   -0.5180   -0.2410 na        1 5AL     -0.290000
     15 CA          5.3570    0.0310   -0.9210 c3        1 5AL      0.113500
     16 CB          4.8350   -0.7230   -2.1430 c3        1 5AL     -0.087100
     17 C1'        -1.6120    0.2880   -1.1400 c3        1 5AL      0.256800
     18 O1A         2.9090   -2.6310    1.7900 o         1 5AL     -0.791500
     19 C2'        -1.6500    1.8190   -0.8250 c3        1 5AL      0.074100
     20 O2'        -1.9440    2.4630   -2.0510 oh        1 5AL     -0.593800
     21 O2A         2.8690   -0.1540    2.8230 o         1 5AL     -0.791500
     22 C3'        -0.2180    2.1640   -0.3450 c3        1 5AL      0.079100
     23 O3'         0.3820    3.0880   -1.2300 oh        1 5AL     -0.598800
     24 O3A         3.3490   -0.5110    0.3600 os        1 5AL     -0.534500
     25 C4'         0.5230    0.8160   -0.2890 c3        1 5AL      0.068100
     26 O4'        -0.2440   -0.1070   -1.0840 os        1 5AL     -0.386600
     27 C5'         0.6750    0.3410    1.1640 c3        1 5AL      0.172400
     28 O5'         1.1480   -0.9610    1.2160 os        1 5AL     -0.559200
     29 HN          7.0840    0.4240    0.0480 hn        1 5AL      0.351800
     30 HN6        -5.2010   -3.3960    2.2840 hn        1 5AL      0.429800
     31 HN6A       -6.8420   -3.0580    2.0180 hn        1 5AL      0.429800
     32 HB          3.7180   -0.6810   -2.1360 hc        1 5AL      0.046033
     33 HBA         5.2170   -0.2550   -3.0800 hc        1 5AL      0.046033
     34 HBB         5.1500   -1.7930   -2.1190 hc        1 5AL      0.046033
     35 H1'        -1.9540    0.0910   -2.2010 h2        1 5AL      0.107700
     36 H2'        -2.4220    2.0870   -0.0590 h1        1 5AL      0.073700
     37 HO2'       -1.7570    3.4020   -1.9200 ho        1 5AL      0.416000
     38 H3'        -0.2220    2.6830    0.6500 h1        1 5AL      0.099700
     39 HO3'        0.5100    2.6340   -2.0740 ho        1 5AL      0.413000
     40 H4'         1.5260    0.8450   -0.7970 h1        1 5AL      0.109700
     41 H5'         1.3760    1.0430    1.7010 h1        1 5AL      0.044700
     42 H5'A       -0.3370    0.3680    1.6600 h1        1 5AL      0.044700
     43 H18         7.1600   -0.8930   -0.8960 hn        1 5AL      0.351800
     44 H19         5.0240    1.1110   -1.0000 h1        1 5AL      0.076700
     45 H2         -6.8170    0.4490   -0.9990 h5        1 5AL      0.039100
     46 H8         -0.8760   -1.7410    0.7580 h5        1 5AL      0.142800
@<TRIPOS>BOND
     1    1    3 2   
     2    1   15 1   
     3    1   24 1   
     4    2   15 1   
     5    2   29 1   
     6    2   43 1   
     7    4   18 1   
     8    4   21 1   
     9    4   24 1   
    10    4   28 1   
    11    5    6 ar  
    12    5   10 ar  
    13    6    7 ar  
    14    6   45 1   
    15    7    8 ar  
    16    8    9 ar  
    17    8   14 1   
    18    9   10 ar  
    19    9   12 1   
    20   10   11 1   
    21   11   30 1   
    22   11   31 1   
    23   12   13 2   
    24   13   14 1   
    25   13   46 1   
    26   14   17 1   
    27   15   16 1   
    28   15   44 1   
    29   16   32 1   
    30   16   33 1   
    31   16   34 1   
    32   17   19 1   
    33   17   26 1   
    34   17   35 1   
    35   19   20 1   
    36   19   22 1   
    37   19   36 1   
    38   20   37 1   
    39   22   23 1   
    40   22   25 1   
    41   22   38 1   
    42   23   39 1   
    43   25   26 1   
    44   25   27 1   
    45   25   40 1   
    46   27   28 1   
    47   27   41 1   
    48   27   42 1   
@<TRIPOS>SUBSTRUCTURE
     1 5AL         1 TEMP              0 ****  ****    0 ROOT
