@<TRIPOS>MOLECULE
5AL
   47    49     1     0     0
SMALL
bcc


@<TRIPOS>ATOM
      1 C          -0.7260    0.6450    1.1010 c         1 5AL      0.722100
      2 N           0.4360   -0.5660   -0.6580 n3        1 5AL     -0.925800
      3 O          -0.7950    1.8630    1.2020 o         1 5AL     -0.467000
      4 P          -2.9760   -0.8080    0.6400 p5        1 5AL      1.704500
      5 N1         -7.4040   -7.3680    5.9520 nb        1 5AL     -0.795000
      6 C2         -7.7440   -7.3340    4.6370 ca        1 5AL      0.693900
      7 N3         -7.0090   -6.9930    3.5520 nb        1 5AL     -0.762000
      8 C4         -5.7310   -6.6340    3.8800 ca        1 5AL      0.453800
      9 C5         -5.2120   -6.6220    5.2420 ca        1 5AL     -0.229200
     10 C6         -6.1170   -7.0110    6.2880 ca        1 5AL      0.768200
     11 N6         -5.6980   -7.0320    7.5900 nh        1 5AL     -0.958500
     12 N7         -3.8690   -6.2190    5.2410 nc        1 5AL     -0.545100
     13 C8         -3.5710   -5.9940    3.9540 cd        1 5AL      0.420700
     14 N9         -4.6600   -6.2160    3.0750 na        1 5AL     -0.292000
     15 CA          0.5130   -0.1780    0.7370 c3        1 5AL      0.095500
     16 CB          1.7500    0.6190    1.1420 c3        1 5AL     -0.130100
     17 C1'        -4.6740   -6.1740    1.6310 c3        1 5AL      0.223800
     18 O1A        -4.3140   -0.7150    1.1830 o         1 5AL     -0.782300
     19 C2'        -5.8370   -5.3130    1.0350 c3        1 5AL      0.085100
     20 O2'        -6.5670   -6.1090    0.1280 oh        1 5AL     -0.593800
     21 O2A        -2.6600   -0.3670   -0.8440 oh        1 5AL     -0.763400
     22 C3'        -5.1440   -4.1770    0.2510 c3        1 5AL      0.120100
     23 O3'        -5.4270   -4.1780   -1.1260 oh        1 5AL     -0.573800
     24 O3A        -1.8280   -0.0590    1.4730 os        1 5AL     -0.637500
     25 C4'        -3.6340   -4.3700    0.5080 c3        1 5AL      0.073100
     26 O4'        -3.4390   -5.6440    1.1390 os        1 5AL     -0.410600
     27 C5'        -3.0190   -3.2870    1.4040 c3        1 5AL      0.161400
     28 O5'        -2.4040   -2.3070    0.6000 os        1 5AL     -0.602200
     29 HN         -2.0260   -0.8840   -1.3410 ho        1 5AL      0.504000
     30 HN6        -4.7770   -6.7380    7.8020 hn        1 5AL      0.451300
     31 HN6A       -6.3210   -7.2700    8.3200 hn        1 5AL      0.451300
     32 HB          1.7210    0.8230    2.2400 hc        1 5AL      0.056367
     33 HBA         1.7840    1.5990    0.6070 hc        1 5AL      0.056367
     34 HBB         2.6760    0.0420    0.9080 hc        1 5AL      0.056367
     35 H1'        -4.7260   -7.2360    1.2400 h2        1 5AL      0.102700
     36 H2'        -6.5070   -4.8870    1.8270 h1        1 5AL      0.090700
     37 HO2'       -7.2210   -6.5960    0.6460 ho        1 5AL      0.436000
     38 H3'        -5.5030   -3.1710    0.6130 h1        1 5AL      0.119700
     39 HO3'       -5.4170   -5.0930   -1.4400 ho        1 5AL      0.422000
     40 H4'        -3.0650   -4.4300   -0.4610 h1        1 5AL      0.102700
     41 H5'        -3.7950   -2.8070    2.0630 h1        1 5AL      0.067200
     42 H5'A       -2.2120   -3.7580    2.0350 h1        1 5AL      0.067200
     43 H18         0.6150    0.2160   -1.2570 hn        1 5AL      0.368300
     44 H19         0.4790   -1.1250    1.3590 h1        1 5AL      0.089700
     45 H8         -2.5980   -5.6720    3.5610 h5        1 5AL      0.081800
     46 HN3         1.0970   -1.2920   -0.8520 hn        1 5AL      0.368300
     47 H2         -8.7940   -7.6350    4.4250 h5        1 5AL      0.052100
@<TRIPOS>BOND
     1    1    3 2   
     2    1   15 1   
     3    1   24 1   
     4    2   15 1   
     5    2   43 1   
     6    2   46 1   
     7    4   18 2   
     8    4   21 1   
     9    4   24 1   
    10    4   28 1   
    11    5    6 ar  
    12    5   10 ar  
    13    6    7 ar  
    14    6   47 1   
    15    7    8 ar  
    16    8    9 ar  
    17    8   14 1   
    18    9   10 ar  
    19    9   12 1   
    20   10   11 1   
    21   11   30 1   
    22   11   31 1   
    23   12   13 2   
    24   13   14 1   
    25   13   45 1   
    26   14   17 1   
    27   15   16 1   
    28   15   44 1   
    29   16   32 1   
    30   16   33 1   
    31   16   34 1   
    32   17   19 1   
    33   17   26 1   
    34   17   35 1   
    35   19   20 1   
    36   19   22 1   
    37   19   36 1   
    38   20   37 1   
    39   21   29 1   
    40   22   23 1   
    41   22   25 1   
    42   22   38 1   
    43   23   39 1   
    44   25   26 1   
    45   25   27 1   
    46   25   40 1   
    47   27   28 1   
    48   27   41 1   
    49   27   42 1   
@<TRIPOS>SUBSTRUCTURE
     1 5AL         1 TEMP              0 ****  ****    0 ROOT
