@<TRIPOS>MOLECULE
5AM
   84    80     1     0     0
SMALL
bcc


@<TRIPOS>ATOM
      1 C1          6.1710    2.8920   -4.8260 c3        1 5AM      0.039000
      2 C3          5.0510    1.4040   -3.2640 c1        1 5AM      0.377000
      3 C7          2.0260    1.3210   -0.4040 c1        1 5AM     -0.128000
      4 C8          7.6150    3.2770   -5.1410 c2        1 5AM     -0.088000
      5 C9          8.3940    3.8710   -4.1720 c2        1 5AM     -0.104000
      6 C10         9.7170    4.1810   -4.4410 c1        1 5AM     -0.132000
      7 C11        10.2590    3.8930   -5.6860 c1        1 5AM     -0.128500
      8 C12         9.4770    3.2970   -6.6570 c1        1 5AM     -0.128500
      9 C13         8.1570    2.9880   -6.3890 c1        1 5AM     -0.121000
     10 C15         4.5330   -0.7780   -0.1640 c3        1 5AM     -0.148000
     11 C16         5.9220   -0.3990    0.3690 c3        1 5AM     -0.168000
     12 C22        -0.1190    1.5100    0.0580 c1        1 5AM      0.026000
     13 N23         1.1270    1.5050    0.6020 n2        1 5AM     -0.158000
     14 N26        -2.3700    0.5560    0.3530 n3        1 5AM     -0.266000
     15 C27        -2.7490   -0.2900    1.4560 c3        1 5AM     -0.091000
     16 N29        -4.9350   -0.6830    0.4380 n         1 5AM     -0.325000
     17 C30        -4.5800    0.1540   -0.6520 c3        1 5AM     -0.032000
     18 C31        -3.4980    1.1710   -0.2720 c3        1 5AM     -0.091000
     19 C32        -6.3120   -0.8790    0.8720 c2        1 5AM      0.297000
     20 C33        -6.6220   -1.8290    2.0430 c3        1 5AM     -0.174000
     21 C35        -8.1590   -2.0420    2.1450 c3        1 5AM     -0.151000
     22 O2          6.1470    1.5880   -4.1890 o         1 5AM     -0.280000
     23 N4          5.2450    0.5870   -2.0380 n3        1 5AM     -0.312000
     24 C5          4.1030    0.2240   -1.2200 c3        1 5AM      0.032000
     25 O14         4.0010    1.9720   -3.4510 o         1 5AM     -0.396000
     26 C17         6.2220   -1.2020    1.6290 c3        1 5AM     -0.159000
     27 C18         7.1590   -0.4230    2.5060 c3        1 5AM     -0.078000
     28 N19         7.1310   -0.9770    3.8430 n3        1 5AM     -0.348000
     29 N20         1.3430    1.2130   -1.5570 n2        1 5AM     -0.021000
     30 O21         0.0070    1.3310   -1.2690 os        1 5AM     -0.086000
     31 O24         4.1350    1.5990    0.7180 oh        1 5AM     -0.317000
     32 C25        -1.4390    1.6010    0.8340 c2        1 5AM      0.009000
     33 C28        -3.8360   -1.3000    1.0650 c3        1 5AM     -0.032000
     34 O34        -7.2200   -0.3160    0.2890 o         1 5AM     -0.362000
     35 C36        -8.4560   -3.2890    3.0600 c3        1 5AM     -0.122000
     36 C37        -9.9970   -3.4600    3.2260 c2        1 5AM     -0.072000
     37 C38       -10.6920   -2.6960    4.1730 c2        1 5AM     -0.125000
     38 C39       -10.6820   -4.3730    2.4340 c1        1 5AM     -0.126000
     39 C40       -12.0690   -2.8530    4.3190 c1        1 5AM     -0.127000
     40 C41       -12.0590   -4.5290    2.5810 c1        1 5AM     -0.128500
     41 C42       -12.7520   -3.7680    3.5240 c1        1 5AM     -0.128500
     42 C6          3.5530    1.4540   -0.5520 c2        1 5AM      0.080000
     43 H11A        5.7820    3.5550   -4.2260 h1        1 5AM      0.104000
     44 H12A        5.6530    2.8600   -5.6580 h1        1 5AM      0.104000
     45 H9          8.0080    4.0780   -3.2830 ha        1 5AM      0.143000
     46 H10        10.2640    4.5980   -3.7610 ha        1 5AM      0.132000
     47 H11        11.1730    4.1060   -5.8710 ha        1 5AM      0.131750
     48 H12         9.8620    3.0910   -7.5430 ha        1 5AM      0.131750
     49 H13         7.6170    2.5740   -7.0590 ha        1 5AM      0.134000
     50 H151        4.5680   -1.6830   -0.5640 hc        1 5AM      0.094500
     51 H152        3.8870   -0.7720    0.5740 hc        1 5AM      0.094500
     52 H161        6.5820   -0.5930   -0.2970 hc        1 5AM      0.093500
     53 H162        5.9410    0.5640    0.5820 hc        1 5AM      0.093500
     54 H271       -3.0780    0.2620    2.1720 h1        1 5AM      0.085750
     55 H272       -1.9330   -0.7950    1.7800 h1        1 5AM      0.085750
     56 H301       -4.2480   -0.4000   -1.3800 h1        1 5AM      0.108250
     57 H302       -5.3690    0.6290   -0.9540 h1        1 5AM      0.108250
     58 H311       -3.8760    1.8150    0.3350 h1        1 5AM      0.085750
     59 H312       -3.1990    1.6360   -1.0860 h1        1 5AM      0.085750
     60 H331       -6.2970   -1.4440    2.8660 hc        1 5AM      0.103000
     61 H332       -6.1770   -2.6980    1.8880 hc        1 5AM      0.103000
     62 H351       -8.5240   -2.1970    1.2570 hc        1 5AM      0.104000
     63 H352       -8.5670   -1.2610    2.5270 hc        1 5AM      0.104000
     64 HN4         6.0890    0.2620   -1.8280 hn        1 5AM      0.238000
     65 H5          3.4030   -0.1800   -1.7910 h1        1 5AM      0.141000
     66 H171        6.6380   -2.0520    1.3820 hc        1 5AM      0.085000
     67 H172        5.3970   -1.3730    2.1090 hc        1 5AM      0.085000
     68 H181        6.8760    0.5140    2.5350 h1        1 5AM      0.064500
     69 H182        8.0730   -0.4800    2.1440 h1        1 5AM      0.064500
     70 H191        6.7050   -0.3950    4.4050 hn        1 5AM      0.142500
     71 H192        7.9890   -1.1160    4.1360 hn        1 5AM      0.142500
     72 HO24        4.1030    2.4640    0.9670 ho        1 5AM      0.224000
     73 H251       -1.2640    1.4670    1.7950 h4        1 5AM      0.113000
     74 H252       -1.8490    2.5100    0.6900 h4        1 5AM      0.113000
     75 H281       -3.4490   -1.9590    0.4490 h1        1 5AM      0.108250
     76 H282       -4.1490   -1.7650    1.8770 h1        1 5AM      0.108250
     77 H361       -8.0480   -3.1540    3.9370 hc        1 5AM      0.084500
     78 H362       -8.0820   -4.0910    2.6480 hc        1 5AM      0.084500
     79 H38       -10.2050   -2.0450    4.7390 ha        1 5AM      0.131000
     80 H39       -10.1920   -4.9120    1.7660 ha        1 5AM      0.130000
     81 H40       -12.5600   -2.3130    4.9880 ha        1 5AM      0.131000
     82 H41       -12.5390   -5.1690    2.0260 ha        1 5AM      0.131750
     83 H42       -13.7130   -3.8770    3.6250 ha        1 5AM      0.131750
     84 H6          3.7590    2.2360   -1.0940 h4        1 5AM      0.110000
@<TRIPOS>BOND
     1    1    4 1   
     2    1   22 1   
     3    1   43 1   
     4    1   44 1   
     5    2   23 1   
     6    2   25 1   
     7    3   13 1   
     8    3   29 1   
     9    4    5 1   
    10    4    9 1   
    11    5    6 1   
    12    5   45 1   
    13    6   46 1   
    14    7    8 1   
    15    7   47 1   
    16    8   48 1   
    17    9   49 1   
    18   10   11 1   
    19   10   24 1   
    20   10   50 1   
    21   10   51 1   
    22   11   26 1   
    23   11   52 1   
    24   11   53 1   
    25   12   13 1   
    26   12   30 1   
    27   14   15 1   
    28   14   18 1   
    29   14   32 1   
    30   15   33 1   
    31   15   54 1   
    32   15   55 1   
    33   16   17 1   
    34   16   19 1   
    35   16   33 1   
    36   17   18 1   
    37   17   56 1   
    38   17   57 1   
    39   18   58 1   
    40   18   59 1   
    41   19   20 1   
    42   19   34 1   
    43   20   21 1   
    44   20   60 1   
    45   20   61 1   
    46   21   35 1   
    47   21   62 1   
    48   21   63 1   
    49   23   24 1   
    50   23   64 1   
    51   24   42 1   
    52   24   65 1   
    53   26   27 1   
    54   26   66 1   
    55   26   67 1   
    56   27   28 1   
    57   27   68 1   
    58   27   69 1   
    59   28   70 1   
    60   28   71 1   
    61   29   30 1   
    62   31   42 1   
    63   31   72 1   
    64   32   73 1   
    65   32   74 1   
    66   33   75 1   
    67   33   76 1   
    68   35   36 1   
    69   35   77 1   
    70   35   78 1   
    71   36   37 1   
    72   36   38 1   
    73   37   39 1   
    74   37   79 1   
    75   38   80 1   
    76   39   81 1   
    77   40   41 1   
    78   40   82 1   
    79   41   83 1   
    80   42   84 1   
@<TRIPOS>SUBSTRUCTURE
     1 5AM         1 TEMP              0 ****  ****    0 ROOT
