@<TRIPOS>MOLECULE
5AM
   84    87     1     0     0
SMALL
bcc


@<TRIPOS>ATOM
      1 C1         -8.0690    0.1590   -1.5240 c3        1 5AM      0.197700
      2 C3         -5.9550   -0.2810   -0.5320 c         1 5AM      0.739100
      3 C7         -1.8030   -2.0470    1.1980 cc        1 5AM      0.489300
      4 C8         -9.5200    0.0170   -1.2120 ca        1 5AM     -0.096300
      5 C9        -10.4080   -0.2810   -2.2530 ca        1 5AM     -0.112500
      6 C10       -11.7750   -0.3770   -1.9970 ca        1 5AM     -0.131000
      7 C11       -12.2610   -0.1860   -0.7030 ca        1 5AM     -0.125000
      8 C12       -11.3770    0.1040    0.3360 ca        1 5AM     -0.131000
      9 C13       -10.0100    0.2080    0.0830 ca        1 5AM     -0.112500
     10 C15        -3.4440    0.5180    1.4920 c3        1 5AM     -0.113400
     11 C16        -3.5480    1.7840    0.6690 c3        1 5AM     -0.080400
     12 C22         0.1270   -2.2550    0.2250 cd        1 5AM      0.511700
     13 N23        -1.1700   -2.2510   -0.0650 nc        1 5AM     -0.671000
     14 N26         2.1480   -1.2290   -0.6730 n3        1 5AM     -0.742600
     15 C27         3.0440   -1.0660    0.4610 c3        1 5AM      0.146300
     16 N29         4.5190    0.4340   -0.8880 n         1 5AM     -0.465800
     17 C30         3.6360    0.2570   -2.0210 c3        1 5AM      0.083500
     18 C31         2.8010   -1.0420   -1.9610 c3        1 5AM      0.146300
     19 C32         5.9000    0.3220   -1.0580 c         1 5AM      0.653100
     20 C33         6.7990    0.4070    0.1610 c3        1 5AM     -0.145400
     21 C35         8.2560    0.4800   -0.2460 c3        1 5AM     -0.072400
     22 O2         -7.3270   -0.2700   -0.3640 os        1 5AM     -0.444900
     23 N4         -5.3000   -0.8550    0.5350 n         1 5AM     -0.533900
     24 C5         -3.8660   -0.7180    0.6790 c3        1 5AM      0.079700
     25 O14        -5.4760    0.1680   -1.5870 o         1 5AM     -0.587000
     26 C17        -3.2450    3.0030    1.5120 c3        1 5AM     -0.081400
     27 C18        -3.3000    4.2640    0.6500 c3        1 5AM      0.158800
     28 N19        -2.9860    5.4690    1.3800 n3        1 5AM     -0.916800
     29 N20        -0.8780   -1.9360    2.1860 nd        1 5AM     -0.362300
     30 O21         0.3040   -2.0580    1.6280 os        1 5AM     -0.142100
     31 O24        -3.7280   -2.1470    2.6750 oh        1 5AM     -0.580800
     32 C25         1.3570   -2.4430   -0.6080 c3        1 5AM      0.151500
     33 C28         3.8650    0.2420    0.3830 c3        1 5AM      0.083500
     34 O34         6.3750    0.2200   -2.2070 o         1 5AM     -0.600100
     35 C36         9.1470    0.5740    0.9770 c3        1 5AM     -0.037100
     36 C37        10.5850    0.6710    0.6040 ca        1 5AM     -0.078300
     37 C38        11.4570   -0.3950    0.8500 ca        1 5AM     -0.125500
     38 C39        11.0810    1.8410    0.0140 ca        1 5AM     -0.125500
     39 C40        12.8060   -0.2920    0.5090 ca        1 5AM     -0.127500
     40 C41        12.4280    1.9400   -0.3270 ca        1 5AM     -0.127500
     41 C42        13.2930    0.8740   -0.0790 ca        1 5AM     -0.131000
     42 C6         -3.3000   -2.0120    1.3390 c3        1 5AM      0.117800
     43 H11A       -7.8050    1.2310   -1.7340 h1        1 5AM      0.064200
     44 H12A       -7.7660   -0.4730   -2.4010 h1        1 5AM      0.064200
     45 H9        -10.0270   -0.4390   -3.2730 ha        1 5AM      0.138000
     46 H10       -12.4700   -0.6080   -2.8180 ha        1 5AM      0.133000
     47 H11       -13.3400   -0.2650   -0.5040 ha        1 5AM      0.132000
     48 H12       -11.7580    0.2510    1.3570 ha        1 5AM      0.133000
     49 H13        -9.3080    0.4310    0.9010 ha        1 5AM      0.138000
     50 H151       -2.3820    0.3820    1.8240 hc        1 5AM      0.051200
     51 H152       -4.0730    0.6110    2.4170 hc        1 5AM      0.051200
     52 H161       -4.5760    1.8700    0.2260 hc        1 5AM      0.053700
     53 H162       -2.8280    1.7300   -0.1910 hc        1 5AM      0.053700
     54 H271        2.4140   -1.0270    1.3940 h1        1 5AM      0.046200
     55 H272        3.7560   -1.9380    0.5580 h1        1 5AM      0.046200
     56 H301        4.2340    0.2410   -2.9760 h1        1 5AM      0.069200
     57 H302        2.9360    1.1400   -2.0470 h1        1 5AM      0.069200
     58 H311        3.4660   -1.9160   -2.2200 h1        1 5AM      0.046200
     59 H312        1.9990   -0.9670   -2.7480 h1        1 5AM      0.046200
     60 H331        6.5290    1.3140    0.7640 hc        1 5AM      0.063700
     61 H332        6.6310   -0.5010    0.7990 hc        1 5AM      0.063700
     62 H351        8.5230   -0.4260   -0.8520 hc        1 5AM      0.065200
     63 H352        8.4170    1.3710   -0.9090 hc        1 5AM      0.065200
     64 HN4        -5.8240   -1.0580    1.3560 hn        1 5AM      0.330500
     65 H5         -3.4250   -0.6340   -0.3610 h1        1 5AM      0.112700
     66 H171       -2.2290    2.9030    1.9750 hc        1 5AM      0.045700
     67 H172       -3.9880    3.0780    2.3490 hc        1 5AM      0.045700
     68 H181       -4.3200    4.3060    0.1610 h1        1 5AM      0.027700
     69 H182       -2.5420    4.1680   -0.1800 h1        1 5AM      0.027700
     70 H191       -3.1210    6.2710    0.7990 hn        1 5AM      0.348300
     71 H192       -3.5570    5.5540    2.1970 hn        1 5AM      0.348300
     72 HO24       -3.3630   -1.4140    3.1890 ho        1 5AM      0.414000
     73 H251        1.9260   -3.3100   -0.1550 h1        1 5AM      0.074700
     74 H252        1.0250   -2.7410   -1.6460 h1        1 5AM      0.074700
     75 H281        4.6060    0.2300    1.2270 h1        1 5AM      0.069200
     76 H282        3.1680    1.1160    0.5420 h1        1 5AM      0.069200
     77 H361        8.8610    1.4790    1.5790 hc        1 5AM      0.045200
     78 H362        8.9800   -0.3240    1.6300 hc        1 5AM      0.045200
     79 H38        11.0790   -1.3180    1.3130 ha        1 5AM      0.130500
     80 H39        10.3990    2.6810   -0.1830 ha        1 5AM      0.130500
     81 H40        13.4850   -1.1350    0.7050 ha        1 5AM      0.130500
     82 H41        12.8090    2.8610   -0.7910 ha        1 5AM      0.130500
     83 H42        14.3560    0.9530   -0.3480 ha        1 5AM      0.131000
     84 H6         -3.7220   -2.9280    0.8240 h1        1 5AM      0.118700
@<TRIPOS>BOND
     1    1    4 1   
     2    1   22 1   
     3    1   43 1   
     4    1   44 1   
     5    2   22 1   
     6    2   23 1   
     7    2   25 2   
     8    3   13 1   
     9    3   29 2   
    10    3   42 1   
    11    4    5 ar  
    12    4    9 ar  
    13    5    6 ar  
    14    5   45 1   
    15    6    7 ar  
    16    6   46 1   
    17    7    8 ar  
    18    7   47 1   
    19    8    9 ar  
    20    8   48 1   
    21    9   49 1   
    22   10   11 1   
    23   10   24 1   
    24   10   50 1   
    25   10   51 1   
    26   11   26 1   
    27   11   52 1   
    28   11   53 1   
    29   12   13 2   
    30   12   30 1   
    31   12   32 1   
    32   14   15 1   
    33   14   18 1   
    34   14   32 1   
    35   15   33 1   
    36   15   54 1   
    37   15   55 1   
    38   16   17 1   
    39   16   19 1   
    40   16   33 1   
    41   17   18 1   
    42   17   56 1   
    43   17   57 1   
    44   18   58 1   
    45   18   59 1   
    46   19   20 1   
    47   19   34 2   
    48   20   21 1   
    49   20   60 1   
    50   20   61 1   
    51   21   35 1   
    52   21   62 1   
    53   21   63 1   
    54   23   24 1   
    55   23   64 1   
    56   24   42 1   
    57   24   65 1   
    58   26   27 1   
    59   26   66 1   
    60   26   67 1   
    61   27   28 1   
    62   27   68 1   
    63   27   69 1   
    64   28   70 1   
    65   28   71 1   
    66   29   30 1   
    67   31   42 1   
    68   31   72 1   
    69   32   73 1   
    70   32   74 1   
    71   33   75 1   
    72   33   76 1   
    73   35   36 1   
    74   35   77 1   
    75   35   78 1   
    76   36   37 ar  
    77   36   38 ar  
    78   37   39 ar  
    79   37   79 1   
    80   38   40 ar  
    81   38   80 1   
    82   39   41 ar  
    83   39   81 1   
    84   40   41 ar  
    85   40   82 1   
    86   41   83 1   
    87   42   84 1   
@<TRIPOS>SUBSTRUCTURE
     1 5AM         1 TEMP              0 ****  ****    0 ROOT
