@<TRIPOS>MOLECULE
5AM
   86    89     1     0     0
SMALL
bcc


@<TRIPOS>ATOM
      1 C1         -0.5910   -1.3300    1.5940 c3        1 5AM      0.217700
      2 C3         -2.4120   -1.2720    0.0220 c         1 5AM      0.629100
      3 C7         -5.3260   -4.9490   -1.2730 cc        1 5AM      0.438300
      4 C8          0.4310   -0.4470    0.9920 ca        1 5AM     -0.195300
      5 C9          1.6280   -0.9890    0.5050 ca        1 5AM     -0.092500
      6 C10         2.6150   -0.1500   -0.0080 ca        1 5AM     -0.128500
      7 C11         2.4150    1.2310   -0.0350 ca        1 5AM     -0.077000
      8 C12         1.2230    1.7750    0.4490 ca        1 5AM     -0.128500
      9 C13         0.2330    0.9410    0.9610 ca        1 5AM     -0.092500
     10 C15        -5.4550   -1.9710   -1.4660 c3        1 5AM     -0.104400
     11 C16        -5.8730   -0.8270   -0.5650 c3        1 5AM     -0.090400
     12 C22        -6.9380   -5.8390   -0.1280 cd        1 5AM      0.534700
     13 N23        -5.9340   -4.9770    0.0150 nc        1 5AM     -0.699000
     14 N26        -8.8910   -5.1990    1.1200 n3        1 5AM     -0.785600
     15 C27       -10.3080   -5.3950    0.8740 c3        1 5AM      0.161800
     16 N29       -10.5050   -3.0340    1.7100 n         1 5AM     -0.412800
     17 C30        -9.2760   -3.1480    2.4800 c3        1 5AM      0.069500
     18 C31        -8.5990   -4.5380    2.3770 c3        1 5AM      0.161800
     19 C32       -10.6610   -1.9920    0.8170 c         1 5AM      0.687100
     20 C33       -11.8960   -1.9250   -0.0600 c3        1 5AM     -0.158400
     21 C35       -11.9210   -0.6370   -0.8550 c3        1 5AM     -0.062400
     22 O2         -1.4000   -1.9760    0.5400 os        1 5AM     -0.404900
     23 N4         -2.9500   -1.9410   -1.2080 ny        1 5AM     -0.647800
     24 C5         -4.2270   -2.7150   -0.9350 c3        1 5AM      0.155500
     25 O14        -2.9030   -0.2380    0.4550 o         1 5AM     -0.448000
     26 C17        -7.2050   -0.2580   -1.0170 c3        1 5AM     -0.102400
     27 C18        -7.6690    0.8040   -0.0250 c3        1 5AM      0.113800
     28 N19        -9.0080    1.3620   -0.3640 nz        1 5AM     -0.843600
     29 N20        -5.9680   -5.7880   -2.1300 nd        1 5AM     -0.313300
     30 O21        -6.9490   -6.3380   -1.4650 os        1 5AM     -0.106100
     31 O24        -3.8770   -3.9120   -2.9490 oh        1 5AM     -0.618800
     32 C25        -8.0370   -6.3100    0.7840 c3        1 5AM      0.165500
     33 C28       -11.1860   -4.3020    1.5390 c3        1 5AM      0.069500
     34 O34        -9.8090   -1.0600    0.7870 o         1 5AM     -0.746100
     35 C36       -13.1630   -0.5350   -1.7210 c3        1 5AM     -0.038100
     36 C37       -13.1720    0.7470   -2.4770 ca        1 5AM     -0.109300
     37 C38       -13.5680    1.9320   -1.8440 ca        1 5AM     -0.136000
     38 C39       -12.8130    0.7770   -3.8290 ca        1 5AM     -0.136000
     39 C40       -13.6000    3.1310   -2.5540 ca        1 5AM     -0.126000
     40 C41       -12.8460    1.9780   -4.5370 ca        1 5AM     -0.126000
     41 C42       -13.2380    3.1560   -3.9010 ca        1 5AM     -0.120000
     42 C6         -4.1050   -4.1350   -1.5710 c3        1 5AM      0.128800
     43 H11A       -0.1460   -2.2450    2.0790 h1        1 5AM      0.102700
     44 H12A       -1.2830   -0.7890    2.2890 h1        1 5AM      0.102700
     45 H9          1.7940   -2.0770    0.5400 ha        1 5AM      0.140000
     46 H10         3.5590   -0.5780   -0.3820 ha        1 5AM      0.157000
     47 H11         3.2020    1.8940   -0.4310 ha        1 5AM      0.160000
     48 H12         1.0720    2.8660    0.4380 ha        1 5AM      0.157000
     49 H13        -0.7020    1.3710    1.3530 ha        1 5AM      0.140000
     50 H151       -5.2790   -1.6120   -2.5160 hc        1 5AM      0.095200
     51 H152       -6.2970   -2.7160   -1.5280 hc        1 5AM      0.095200
     52 H161       -5.0910   -0.0210   -0.5670 hc        1 5AM      0.065200
     53 H162       -5.9670   -1.1970    0.4920 hc        1 5AM      0.065200
     54 H271      -10.6770   -6.3940    1.2490 h1        1 5AM      0.057200
     55 H272      -10.4570   -5.3700   -0.2430 h1        1 5AM      0.057200
     56 H301       -9.5310   -2.9620    3.5620 h1        1 5AM      0.075450
     57 H302       -8.5460   -2.3580    2.1470 h1        1 5AM      0.075450
     58 H311       -7.4860   -4.3910    2.4570 h1        1 5AM      0.057200
     59 H312       -8.9300   -5.1640    3.2570 h1        1 5AM      0.057200
     60 H331      -11.9020   -2.8020   -0.7620 hc        1 5AM      0.091200
     61 H332      -12.8150   -1.9900    0.5830 hc        1 5AM      0.091200
     62 H351      -11.8880    0.2360   -0.1500 hc        1 5AM      0.026200
     63 H352      -11.0080   -0.5880   -1.5070 hc        1 5AM      0.026200
     64 HN4        -2.2360   -2.5840   -1.5830 hn        1 5AM      0.479300
     65 H5         -4.3070   -2.8460    0.1870 hx        1 5AM      0.133700
     66 H171       -7.9680   -1.0840   -1.0610 hc        1 5AM      0.076200
     67 H172       -7.1020    0.1790   -2.0450 hc        1 5AM      0.076200
     68 H181       -7.7620    0.3360    1.0020 hx        1 5AM      0.112200
     69 H182       -6.9330    1.6560    0.0140 hx        1 5AM      0.112200
     70 H191       -9.7200    0.6040   -0.3170 hn        1 5AM      0.469467
     71 H192       -9.0080    1.7630   -1.3050 hn        1 5AM      0.469467
     72 HO24       -3.9120   -4.7590   -3.4190 ho        1 5AM      0.470000
     73 H251       -8.6100   -7.1160    0.2380 h1        1 5AM      0.095700
     74 H252       -7.5450   -6.7740    1.6900 h1        1 5AM      0.095700
     75 H281      -12.1230   -4.1820    0.9310 h1        1 5AM      0.075450
     76 H282      -11.4830   -4.6540    2.5690 h1        1 5AM      0.075450
     77 H361      -13.1990   -1.4040   -2.4310 hc        1 5AM      0.066200
     78 H362      -14.0780   -0.5970   -1.0720 hc        1 5AM      0.066200
     79 H38       -13.8830    1.9100   -0.7900 ha        1 5AM      0.133500
     80 H39       -12.5280   -0.1530   -4.3430 ha        1 5AM      0.133500
     81 H40       -13.9330    4.0550   -2.0570 ha        1 5AM      0.146000
     82 H41       -12.5810    1.9920   -5.6060 ha        1 5AM      0.146000
     83 H42       -13.2800    4.1000   -4.4660 ha        1 5AM      0.150000
     84 H6         -3.2180   -4.6800   -1.1230 h1        1 5AM      0.087700
     85 H421       -3.1370   -1.2190   -1.9160 hn        1 5AM      0.479300
     86 H193       -9.2600    2.0870    0.3130 hn        1 5AM      0.469467
@<TRIPOS>BOND
     1    1    4 1   
     2    1   22 1   
     3    1   43 1   
     4    1   44 1   
     5    2   22 1   
     6    2   23 1   
     7    2   25 2   
     8    3   13 1   
     9    3   29 2   
    10    3   42 1   
    11    4    5 ar  
    12    4    9 ar  
    13    5    6 ar  
    14    5   45 1   
    15    6    7 ar  
    16    6   46 1   
    17    7    8 ar  
    18    7   47 1   
    19    8    9 ar  
    20    8   48 1   
    21    9   49 1   
    22   10   11 1   
    23   10   24 1   
    24   10   50 1   
    25   10   51 1   
    26   11   26 1   
    27   11   52 1   
    28   11   53 1   
    29   12   13 2   
    30   12   30 1   
    31   12   32 1   
    32   14   15 1   
    33   14   18 1   
    34   14   32 1   
    35   15   33 1   
    36   15   54 1   
    37   15   55 1   
    38   16   17 1   
    39   16   19 1   
    40   16   33 1   
    41   17   18 1   
    42   17   56 1   
    43   17   57 1   
    44   18   58 1   
    45   18   59 1   
    46   19   20 1   
    47   19   34 2   
    48   20   21 1   
    49   20   60 1   
    50   20   61 1   
    51   21   35 1   
    52   21   62 1   
    53   21   63 1   
    54   23   24 1   
    55   23   64 1   
    56   23   85 1   
    57   24   42 1   
    58   24   65 1   
    59   26   27 1   
    60   26   66 1   
    61   26   67 1   
    62   27   28 1   
    63   27   68 1   
    64   27   69 1   
    65   28   70 1   
    66   28   71 1   
    67   28   86 1   
    68   29   30 1   
    69   31   42 1   
    70   31   72 1   
    71   32   73 1   
    72   32   74 1   
    73   33   75 1   
    74   33   76 1   
    75   35   36 1   
    76   35   77 1   
    77   35   78 1   
    78   36   37 ar  
    79   36   38 ar  
    80   37   39 ar  
    81   37   79 1   
    82   38   40 ar  
    83   38   80 1   
    84   39   41 ar  
    85   39   81 1   
    86   40   41 ar  
    87   40   82 1   
    88   41   83 1   
    89   42   84 1   
@<TRIPOS>SUBSTRUCTURE
     1 5AM         1 TEMP              0 ****  ****    0 ROOT
