@<TRIPOS>MOLECULE
5AM
   86    89     1     0     0
SMALL
bcc


@<TRIPOS>ATOM
      1 C1         -0.1010   -1.2280    2.1730 c3        1 5AM      0.218700
      2 C3         -1.6370   -1.7440    0.3920 c         1 5AM      0.630100
      3 C7         -5.0950   -5.1490    0.0720 cc        1 5AM      0.439300
      4 C8          1.1240   -0.7820    1.4750 ca        1 5AM     -0.195300
      5 C9          2.2790   -1.5760    1.5090 ca        1 5AM     -0.092500
      6 C10         3.4510   -1.1290    0.9020 ca        1 5AM     -0.128500
      7 C11         3.4780    0.1120    0.2630 ca        1 5AM     -0.077000
      8 C12         2.3290    0.9060    0.2270 ca        1 5AM     -0.128500
      9 C13         1.1550    0.4620    0.8290 ca        1 5AM     -0.092500
     10 C15        -4.4100   -2.6610   -1.4620 c3        1 5AM     -0.098400
     11 C16        -4.8870   -1.2510   -1.1770 c3        1 5AM     -0.093400
     12 C22        -7.0730   -5.1150    0.9610 cd        1 5AM      0.536700
     13 N23        -5.9460   -4.4080    0.9430 nc        1 5AM     -0.704000
     14 N26        -9.0450   -3.7360    1.1150 n3        1 5AM     -0.776600
     15 C27       -10.4280   -3.9010    0.6980 c3        1 5AM      0.159300
     16 N29       -10.3510   -1.4380    0.2250 n         1 5AM     -0.423800
     17 C30        -9.2070   -1.2550    1.1020 c3        1 5AM      0.077500
     18 C31        -8.8140   -2.5300    1.8880 c3        1 5AM      0.159300
     19 C32       -10.3480   -0.8820   -1.0370 c         1 5AM      0.700100
     20 C33       -11.5210   -1.0630   -1.9770 c3        1 5AM     -0.147400
     21 C35       -12.7540   -0.3380   -1.4750 c3        1 5AM     -0.078400
     22 O2         -0.8330   -2.2140    1.3500 os        1 5AM     -0.404900
     23 N4         -2.0800   -2.8540   -0.5150 n4        1 5AM     -0.647800
     24 C5         -3.5440   -3.2100   -0.3240 c3        1 5AM      0.155500
     25 O14        -2.0230   -0.5930    0.2370 o         1 5AM     -0.449000
     26 C17        -5.7920   -0.7570   -2.2920 c3        1 5AM     -0.103400
     27 C18        -6.4750    0.5330   -1.8500 c3        1 5AM      0.105800
     28 N19        -7.4370    1.0600   -2.8570 n4        1 5AM     -0.830600
     29 N20        -5.7280   -6.2590   -0.3930 nd        1 5AM     -0.312300
     30 O21        -6.9280   -6.2630    0.1250 os        1 5AM     -0.103100
     31 O24        -3.1560   -5.2760   -1.4130 oh        1 5AM     -0.617800
     32 C25        -8.4080   -4.9260    1.6250 c3        1 5AM      0.159500
     33 C28       -11.1930   -2.5570    0.5920 c3        1 5AM      0.077500
     34 O34        -9.3750   -0.1570   -1.3920 o         1 5AM     -0.768100
     35 C36       -13.8930   -0.4740   -2.4700 c3        1 5AM     -0.030100
     36 C37       -15.1180    0.2170   -1.9820 ca        1 5AM     -0.102300
     37 C38       -15.9270   -0.3890   -1.0130 ca        1 5AM     -0.126000
     38 C39       -15.4800    1.4670   -2.4960 ca        1 5AM     -0.126000
     39 C40       -17.0820    0.2490   -0.5640 ca        1 5AM     -0.121000
     40 C41       -16.6360    2.1030   -2.0450 ca        1 5AM     -0.121000
     41 C42       -17.4380    1.4960   -1.0790 ca        1 5AM     -0.115000
     42 C6         -3.6750   -4.7600   -0.2040 c3        1 5AM      0.128800
     43 H11A        0.1180   -1.8620    3.0780 h1        1 5AM      0.102700
     44 H12A       -0.7980   -0.3850    2.4160 h1        1 5AM      0.102700
     45 H9          2.2640   -2.5480    2.0270 ha        1 5AM      0.140500
     46 H10         4.3600   -1.7500    0.9390 ha        1 5AM      0.157000
     47 H11         4.4090    0.4700   -0.2060 ha        1 5AM      0.160000
     48 H12         2.3560    1.8890   -0.2680 ha        1 5AM      0.157000
     49 H13         0.2520    1.0930    0.8110 ha        1 5AM      0.140500
     50 H151       -3.8710   -2.7080   -2.4470 hc        1 5AM      0.091700
     51 H152       -5.3020   -3.3390   -1.5700 hc        1 5AM      0.091700
     52 H161       -4.0100   -0.5580   -1.0620 hc        1 5AM      0.069700
     53 H162       -5.4520   -1.2420   -0.2050 hc        1 5AM      0.069700
     54 H271      -11.0140   -4.5600    1.4030 h1        1 5AM      0.057700
     55 H272      -10.4070   -4.4050   -0.3090 h1        1 5AM      0.057700
     56 H301       -9.4620   -0.4490    1.8470 h1        1 5AM      0.070450
     57 H302       -8.3210   -0.9110    0.4980 h1        1 5AM      0.070450
     58 H311       -7.7180   -2.4620    2.1350 h1        1 5AM      0.057700
     59 H312       -9.3870   -2.5440    2.8610 h1        1 5AM      0.057700
     60 H331      -11.7370   -2.1530   -2.1270 hc        1 5AM      0.072200
     61 H332      -11.2200   -0.6420   -2.9740 hc        1 5AM      0.072200
     62 H351      -13.0750   -0.7540   -0.4840 hc        1 5AM      0.059200
     63 H352      -12.5180    0.7470   -1.3200 hc        1 5AM      0.059200
     64 HN4        -1.5000   -3.6880   -0.3380 hn        1 5AM      0.479300
     65 H5         -3.8700   -2.7600    0.6620 hx        1 5AM      0.133700
     66 H171       -5.1890   -0.5860   -3.2220 hc        1 5AM      0.072200
     67 H172       -6.5640   -1.5400   -2.5210 hc        1 5AM      0.072200
     68 H181       -5.7060    1.3330   -1.6480 hx        1 5AM      0.117200
     69 H182       -7.0740    0.3410   -0.9070 hx        1 5AM      0.117200
     70 H191       -6.9690    1.2840   -3.7370 hn        1 5AM      0.469133
     71 H192       -8.1760    0.3550   -3.0240 hn        1 5AM      0.469133
     72 HO24       -3.3150   -6.2320   -1.4460 ho        1 5AM      0.470000
     73 H251       -9.0290   -5.8430    1.4030 h1        1 5AM      0.095200
     74 H252       -8.2220   -4.8820    2.7400 h1        1 5AM      0.095200
     75 H281      -11.6450   -2.3160    1.5980 h1        1 5AM      0.070450
     76 H282      -12.0340   -2.6910   -0.1410 h1        1 5AM      0.070450
     77 H361      -13.5790   -0.0450   -3.4590 hc        1 5AM      0.050200
     78 H362      -14.1180   -1.5620   -2.6360 hc        1 5AM      0.050200
     79 H38       -15.6550   -1.3760   -0.6130 ha        1 5AM      0.125500
     80 H39       -14.8580    1.9460   -3.2660 ha        1 5AM      0.125500
     81 H40       -17.7170   -0.2350    0.1940 ha        1 5AM      0.141500
     82 H41       -16.9190    3.0830   -2.4580 ha        1 5AM      0.141500
     83 H42       -18.3520    1.9970   -0.7260 ha        1 5AM      0.146000
     84 H6         -3.0510   -5.1320    0.6660 h1        1 5AM      0.086700
     85 H421       -1.9260   -2.5580   -1.4880 hn        1 5AM      0.479300
     86 H193       -7.8940    1.8980   -2.4820 hn        1 5AM      0.469133
@<TRIPOS>BOND
     1    1    4 1   
     2    1   22 1   
     3    1   43 1   
     4    1   44 1   
     5    2   22 1   
     6    2   23 1   
     7    2   25 2   
     8    3   13 1   
     9    3   29 2   
    10    3   42 1   
    11    4    5 ar  
    12    4    9 ar  
    13    5    6 ar  
    14    5   45 1   
    15    6    7 ar  
    16    6   46 1   
    17    7    8 ar  
    18    7   47 1   
    19    8    9 ar  
    20    8   48 1   
    21    9   49 1   
    22   10   11 1   
    23   10   24 1   
    24   10   50 1   
    25   10   51 1   
    26   11   26 1   
    27   11   52 1   
    28   11   53 1   
    29   12   13 2   
    30   12   30 1   
    31   12   32 1   
    32   14   15 1   
    33   14   18 1   
    34   14   32 1   
    35   15   33 1   
    36   15   54 1   
    37   15   55 1   
    38   16   17 1   
    39   16   19 1   
    40   16   33 1   
    41   17   18 1   
    42   17   56 1   
    43   17   57 1   
    44   18   58 1   
    45   18   59 1   
    46   19   20 1   
    47   19   34 2   
    48   20   21 1   
    49   20   60 1   
    50   20   61 1   
    51   21   35 1   
    52   21   62 1   
    53   21   63 1   
    54   23   24 1   
    55   23   64 1   
    56   23   85 1   
    57   24   42 1   
    58   24   65 1   
    59   26   27 1   
    60   26   66 1   
    61   26   67 1   
    62   27   28 1   
    63   27   68 1   
    64   27   69 1   
    65   28   70 1   
    66   28   71 1   
    67   28   86 1   
    68   29   30 1   
    69   31   42 1   
    70   31   72 1   
    71   32   73 1   
    72   32   74 1   
    73   33   75 1   
    74   33   76 1   
    75   35   36 1   
    76   35   77 1   
    77   35   78 1   
    78   36   37 ar  
    79   36   38 ar  
    80   37   39 ar  
    81   37   79 1   
    82   38   40 ar  
    83   38   80 1   
    84   39   41 ar  
    85   39   81 1   
    86   40   41 ar  
    87   40   82 1   
    88   41   83 1   
    89   42   84 1   
@<TRIPOS>SUBSTRUCTURE
     1 5AM         1 TEMP              0 ****  ****    0 ROOT
