@<TRIPOS>MOLECULE
5AN
   14    14     1     0     0
SMALL
bcc


@<TRIPOS>ATOM
      1 C4         -0.0030    0.0160   -0.0340 ca        1 5AN     -0.254000
      2 C5          1.3950   -0.1070    0.0020 ca        1 5AN      0.191900
      3 C3         -0.6890    0.1420    1.1850 ca        1 5AN      0.191900
      4 C6          2.1000   -0.1070    1.2140 ca        1 5AN     -0.256000
      5 C2         -0.0100    0.1450    2.4110 ca        1 5AN     -0.256000
      6 C1          1.3990    0.0310    2.4330 ca        1 5AN      0.204600
      7 N           2.0930    0.1230    3.6360 nv        1 5AN     -0.830200
      8 F5          2.0780   -0.2330   -1.1610 f         1 5AN     -0.135900
      9 F3         -2.0390    0.2580    1.1760 f         1 5AN     -0.135900
     10 HC4        -0.5450    0.0130   -0.9880 ha        1 5AN      0.165000
     11 HC6         3.1950   -0.2020    1.1970 ha        1 5AN      0.152000
     12 HC2        -0.5850    0.2490    3.3420 ha        1 5AN      0.152000
     13 HN1         1.5650   -0.0780    4.4540 hn        1 5AN      0.404800
     14 HN2         3.0140   -0.2510    3.6320 hn        1 5AN      0.404800
@<TRIPOS>BOND
     1    1    2 ar  
     2    1    3 ar  
     3    1   10 1   
     4    2    4 ar  
     5    2    8 1   
     6    3    5 ar  
     7    3    9 1   
     8    4    6 ar  
     9    4   11 1   
    10    5    6 ar  
    11    5   12 1   
    12    6    7 1   
    13    7   13 1   
    14    7   14 1   
@<TRIPOS>SUBSTRUCTURE
     1 5AN         1 TEMP              0 ****  ****    0 ROOT
