@<TRIPOS>MOLECULE
5AN
   14    14     1     0     0
SMALL
bcc


@<TRIPOS>ATOM
      1 C4         -1.3660   -0.0150    0.0000 ca        1 5AN     -0.254000
      2 C5         -0.6450   -0.0010   -1.2050 ca        1 5AN      0.191900
      3 C3         -0.6450   -0.0020    1.2050 ca        1 5AN      0.191900
      4 C6          0.7560    0.0230   -1.2190 ca        1 5AN     -0.256000
      5 C2          0.7570    0.0220    1.2190 ca        1 5AN     -0.256000
      6 C1          1.4710    0.0450    0.0000 ca        1 5AN      0.204600
      7 N           2.8580    0.1610    0.0000 nh        1 5AN     -0.830200
      8 F5         -1.3190   -0.0160   -2.3800 f         1 5AN     -0.135900
      9 F3         -1.3190   -0.0190    2.3800 f         1 5AN     -0.135900
     10 HC4        -2.4630   -0.0350   -0.0000 ha        1 5AN      0.165000
     11 HC6         1.2820    0.0370   -2.1850 ha        1 5AN      0.152000
     12 HC2         1.2820    0.0340    2.1850 ha        1 5AN      0.152000
     13 HN1         3.3130   -0.1220    0.8370 hn        1 5AN      0.404800
     14 HN2         3.3130   -0.1210   -0.8370 hn        1 5AN      0.404800
@<TRIPOS>BOND
     1    1    2 ar  
     2    1    3 ar  
     3    1   10 1   
     4    2    4 ar  
     5    2    8 1   
     6    3    5 ar  
     7    3    9 1   
     8    4    6 ar  
     9    4   11 1   
    10    5    6 ar  
    11    5   12 1   
    12    6    7 1   
    13    7   13 1   
    14    7   14 1   
@<TRIPOS>SUBSTRUCTURE
     1 5AN         1 TEMP              0 ****  ****    0 ROOT
