@<TRIPOS>MOLECULE
5AN
   14    11     1     0     0
SMALL
bcc


@<TRIPOS>ATOM
      1 C4         -0.9290   -0.0010   -1.6090 c1        1 5AN     -0.197500
      2 C5          0.4570   -0.0010   -1.6090 c1        1 5AN      0.159100
      3 C3         -1.6220   -0.0010   -0.4080 c1        1 5AN      0.159100
      4 C6          1.1500   -0.0010   -0.4080 c1        1 5AN     -0.197500
      5 C2         -0.9290   -0.0010    0.7920 c1        1 5AN     -0.198500
      6 C1          0.4570   -0.0010    0.7920 c1        1 5AN      0.178800
      7 N           1.1670    0.0040    2.0210 n3        1 5AN     -0.804400
      8 F5          1.1270   -0.0080   -2.7680 f         1 5AN     -0.103100
      9 F3         -2.9610    0.0050   -0.4080 f         1 5AN     -0.103100
     10 HC4        -1.4170   -0.0010   -2.4540 ha        1 5AN      0.101000
     11 HC6         2.1260   -0.0010   -0.4080 ha        1 5AN      0.101000
     12 HC2        -1.4170   -0.0010    1.6370 ha        1 5AN      0.094500
     13 HN1         1.3960   -0.7850    2.4180 hn        1 5AN      0.404800
     14 HN2         1.3930    0.7950    2.4130 hn        1 5AN      0.404800
@<TRIPOS>BOND
     1    1    3 3   
     2    1   10 1   
     3    2    4 3   
     4    2    8 1   
     5    3    9 1   
     6    4   11 1   
     7    5    6 3   
     8    5   12 1   
     9    6    7 1   
    10    7   13 1   
    11    7   14 1   
@<TRIPOS>SUBSTRUCTURE
     1 5AN         1 TEMP              0 ****  ****    0 ROOT
