@<TRIPOS>MOLECULE
5AN
   15    15     1     0     0
SMALL
bcc


@<TRIPOS>ATOM
      1 C4         -0.0230   -0.0190   -0.0360 ca        1 5AN     -0.155000
      2 C5          1.3830    0.0040   -0.0310 ca        1 5AN      0.203900
      3 C3         -0.7130   -0.0240    1.1880 ca        1 5AN      0.203900
      4 C6          2.1030    0.0230    1.1810 ca        1 5AN     -0.174000
      5 C2         -0.0150   -0.0060    2.4140 ca        1 5AN     -0.174000
      6 C1          1.3850    0.0160    2.3830 ca        1 5AN     -0.007400
      7 N           2.1280    0.0290    3.6470 n4        1 5AN     -0.706000
      8 F5          2.0590    0.0100   -1.1960 f         1 5AN     -0.085900
      9 F3         -2.0600   -0.0460    1.2020 f         1 5AN     -0.085900
     10 HC4        -0.5790   -0.0340   -0.9910 ha        1 5AN      0.207000
     11 HC6         3.2040    0.0420    1.1440 ha        1 5AN      0.181000
     12 HC2        -0.5930   -0.0100    3.3530 ha        1 5AN      0.181000
     13 HN1         1.4910    0.2200    4.4300 hn        1 5AN      0.470467
     14 HN2         2.5750   -0.8850    3.7900 hn        1 5AN      0.470467
     15 HN3         2.8520    0.7570    3.6150 hn        1 5AN      0.470467
@<TRIPOS>BOND
     1    1    2 ar  
     2    1    3 ar  
     3    1   10 1   
     4    2    4 ar  
     5    2    8 1   
     6    3    5 ar  
     7    3    9 1   
     8    4    6 ar  
     9    4   11 1   
    10    5    6 ar  
    11    5   12 1   
    12    6    7 1   
    13    7   13 1   
    14    7   14 1   
    15    7   15 1   
@<TRIPOS>SUBSTRUCTURE
     1 5AN         1 TEMP              0 ****  ****    0 ROOT
