@<TRIPOS>MOLECULE
5AN
   14    14     1     0     0
SMALL
bcc


@<TRIPOS>ATOM
      1 C4         -0.0430    0.0030   -0.0110 ca        1 5AN     -0.254000
      2 C5          1.3550   -0.1260   -0.0080 ca        1 5AN      0.191900
      3 C3         -0.6980    0.1450    1.2220 ca        1 5AN      0.191900
      4 C6          2.0890   -0.1160    1.1870 ca        1 5AN     -0.256000
      5 C2          0.0110    0.1580    2.4320 ca        1 5AN     -0.256000
      6 C1          1.4190    0.0370    2.4220 ca        1 5AN      0.204600
      7 N           2.1420    0.1390    3.6060 nh        1 5AN     -0.830200
      8 F5          2.0100   -0.2680   -1.1850 f         1 5AN     -0.135900
      9 F3         -2.0470    0.2680    1.2450 f         1 5AN     -0.135900
     10 HC4        -0.6070   -0.0060   -0.9520 ha        1 5AN      0.165000
     11 HC6         3.1830   -0.2170    1.1440 ha        1 5AN      0.152000
     12 HC2        -0.5410    0.2750    3.3750 ha        1 5AN      0.152000
     13 HN1         1.6330   -0.0510    4.4390 hn        1 5AN      0.404800
     14 HN2         3.0610   -0.2400    3.5840 hn        1 5AN      0.404800
@<TRIPOS>BOND
     1    1    2 ar  
     2    1    3 ar  
     3    1   10 1   
     4    2    4 ar  
     5    2    8 1   
     6    3    5 ar  
     7    3    9 1   
     8    4    6 ar  
     9    4   11 1   
    10    5    6 ar  
    11    5   12 1   
    12    6    7 1   
    13    7   13 1   
    14    7   14 1   
@<TRIPOS>SUBSTRUCTURE
     1 5AN         1 TEMP              0 ****  ****    0 ROOT
