@<TRIPOS>MOLECULE
5AO
   20    21     1     0     0
SMALL
bcc


@<TRIPOS>ATOM
      1 NAA         3.2240    1.7370    0.1760 nh        1 5AO     -0.819200
      2 CAB         2.0630   -1.7820   -0.0030 ca        1 5AO     -0.094000
      3 CAC         2.9130   -0.6830    0.0230 ca        1 5AO     -0.181000
      4 CAD         0.6810   -1.6200   -0.0100 ca        1 5AO     -0.153000
      5 CAE        -3.2120    0.9650   -0.0090 cc        1 5AO      0.479300
      6 CAF        -2.3760   -1.0460   -0.0090 cd        1 5AO      0.239900
      7 CAG         0.9780    0.7890    0.0390 ca        1 5AO     -0.167000
      8 NAH        -3.5700   -0.3140   -0.0150 nd        1 5AO     -0.667000
      9 OAI        -1.8230    1.1380    0.0010 os        1 5AO     -0.383800
     10 CAJ         2.3820    0.6280    0.0530 ca        1 5AO      0.140600
     11 CAK         0.1360   -0.3270    0.0110 ca        1 5AO     -0.088500
     12 CAL        -1.2940   -0.1650    0.0010 cc        1 5AO      0.215900
     13 HNAA        4.1490    1.5910   -0.1620 hn        1 5AO      0.391300
     14 HNAB        2.8220    2.5960   -0.1280 hn        1 5AO      0.391300
     15 HAC         4.0020   -0.8390    0.0310 ha        1 5AO      0.135000
     16 HAD         0.0180   -2.4970   -0.0320 ha        1 5AO      0.136000
     17 HAE        -3.8070    1.8790   -0.0090 h5        1 5AO      0.087100
     18 HAF        -2.3810   -2.1360   -0.0110 h4        1 5AO      0.054100
     19 HAG         0.5320    1.7960    0.0590 ha        1 5AO      0.147000
     20 HAB         2.4910   -2.7970   -0.0200 ha        1 5AO      0.134000
@<TRIPOS>BOND
     1    1   10 1   
     2    1   13 1   
     3    1   14 1   
     4    2    3 ar  
     5    2    4 ar  
     6    2   20 1   
     7    3   10 ar  
     8    3   15 1   
     9    4   11 ar  
    10    4   16 1   
    11    5    8 2   
    12    5    9 1   
    13    5   17 1   
    14    6    8 1   
    15    6   12 2   
    16    6   18 1   
    17    7   10 ar  
    18    7   11 ar  
    19    7   19 1   
    20    9   12 1   
    21   11   12 1   
@<TRIPOS>SUBSTRUCTURE
     1 5AO         1 TEMP              0 ****  ****    0 ROOT
