@<TRIPOS>MOLECULE
5AO
   21    22     1     0     0
SMALL
bcc


@<TRIPOS>ATOM
      1 NAA        -0.0540   -0.0260   -0.0330 n4        1 5AO     -0.701000
      2 CAB         3.6910   -0.0020    0.0660 ca        1 5AO     -0.090000
      3 CAC         2.3660   -0.0160    0.4970 ca        1 5AO     -0.110000
      4 CAD         4.0000    0.0040   -1.2920 ca        1 5AO     -0.069000
      5 CAE         2.8600    0.0000   -5.8350 cc        1 5AO      0.533300
      6 CAF         4.4890    0.0130   -4.3840 cd        1 5AO      0.318900
      7 CAG         1.6340   -0.0180   -1.8400 ca        1 5AO     -0.099000
      8 NAH         4.1880    0.0120   -5.7500 nd        1 5AO     -0.652000
      9 OAI         2.2390   -0.0070   -4.5810 os        1 5AO     -0.394800
     10 CAJ         1.3440   -0.0220   -0.4680 ca        1 5AO     -0.065400
     11 CAK         2.9750   -0.0040   -2.2550 ca        1 5AO     -0.055500
     12 CAL         3.3000    0.0010   -3.6520 cc        1 5AO      0.135900
     13 HNAA       -0.6550   -0.3800   -0.7850 hn        1 5AO      0.464800
     14 HNAB       -0.3410    0.9300    0.2060 hn        1 5AO      0.464800
     15 HAD         5.0550    0.0140   -1.6180 ha        1 5AO      0.173000
     16 HAE         2.1940   -0.0040   -6.7030 h5        1 5AO      0.107100
     17 HAF         5.5250    0.0210   -4.0370 h4        1 5AO      0.068100
     18 HAG         0.8410   -0.0250   -2.6080 ha        1 5AO      0.171000
     19 HAB         4.5030    0.0030    0.8140 ha        1 5AO      0.177000
     20 HAA3       -0.1580   -0.6250    0.7940 hn        1 5AO      0.464800
     21 HAC         2.1440   -0.0220    1.5760 ha        1 5AO      0.160000
@<TRIPOS>BOND
     1    1   10 1   
     2    1   13 1   
     3    1   14 1   
     4    1   20 1   
     5    2    3 ar  
     6    2    4 ar  
     7    2   19 1   
     8    3   10 ar  
     9    3   21 1   
    10    4   11 ar  
    11    4   15 1   
    12    5    8 2   
    13    5    9 1   
    14    5   16 1   
    15    6    8 1   
    16    6   12 2   
    17    6   17 1   
    18    7   10 ar  
    19    7   11 ar  
    20    7   18 1   
    21    9   12 1   
    22   11   12 1   
@<TRIPOS>SUBSTRUCTURE
     1 5AO         1 TEMP              0 ****  ****    0 ROOT
