@<TRIPOS>MOLECULE
5AO
   20    21     1     0     0
SMALL
bcc


@<TRIPOS>ATOM
      1 NAA        -0.0330   -0.1320   -0.0420 nv        1 5AO     -0.819200
      2 CAB         3.6680    0.1130    0.0460 ca        1 5AO     -0.094000
      3 CAC         2.3470    0.0830    0.4760 ca        1 5AO     -0.181000
      4 CAD         3.9830    0.0670   -1.3080 ca        1 5AO     -0.153000
      5 CAE         2.8690   -0.1480   -5.8420 cc        1 5AO      0.479300
      6 CAF         4.4780   -0.0600   -4.3760 cd        1 5AO      0.239900
      7 CAG         1.6170   -0.0450   -1.8400 ca        1 5AO     -0.167000
      8 NAH         4.1940   -0.1170   -5.7470 nd        1 5AO     -0.667000
      9 OAI         2.2360   -0.1140   -4.5940 os        1 5AO     -0.383800
     10 CAJ         1.2940   -0.0050   -0.4650 ca        1 5AO      0.140600
     11 CAK         2.9520   -0.0130   -2.2560 ca        1 5AO     -0.088500
     12 CAL         3.2840   -0.0570   -3.6560 cc        1 5AO      0.215900
     13 HNAA       -0.2140    0.2420    0.8620 hn        1 5AO      0.391300
     14 HNAB       -0.7100    0.1310   -0.7230 hn        1 5AO      0.391300
     15 HAC         2.1250    0.1180    1.5530 ha        1 5AO      0.135000
     16 HAD         5.0320    0.0930   -1.6370 ha        1 5AO      0.136000
     17 HAE         2.2110   -0.1950   -6.7100 h5        1 5AO      0.087100
     18 HAF         5.5050   -0.0270   -4.0130 h4        1 5AO      0.054100
     19 HAG         0.8210   -0.1110   -2.5990 ha        1 5AO      0.147000
     20 HAB         4.4780    0.1760    0.7900 ha        1 5AO      0.134000
@<TRIPOS>BOND
     1    1   10 1   
     2    1   13 1   
     3    1   14 1   
     4    2    3 ar  
     5    2    4 ar  
     6    2   20 1   
     7    3   10 ar  
     8    3   15 1   
     9    4   11 ar  
    10    4   16 1   
    11    5    8 2   
    12    5    9 1   
    13    5   17 1   
    14    6    8 1   
    15    6   12 2   
    16    6   18 1   
    17    7   10 ar  
    18    7   11 ar  
    19    7   19 1   
    20    9   12 1   
    21   11   12 1   
@<TRIPOS>SUBSTRUCTURE
     1 5AO         1 TEMP              0 ****  ****    0 ROOT
