@<TRIPOS>MOLECULE
5AO
   20    15     1     0     0
SMALL
bcc


@<TRIPOS>ATOM
      1 NAA        -2.6070   -0.2890    2.0650 n3        1 5AO     -0.793400
      2 CAB         1.0890   -0.1920    2.0460 c1        1 5AO     -0.079500
      3 CAC        -0.2190   -0.2310    2.5030 c1        1 5AO     -0.079500
      4 CAD         1.3460   -0.1240    0.6850 c1        1 5AO     -0.086500
      5 CAE         1.2300    1.3710   -3.1540 c1        1 5AO      0.304400
      6 CAF         0.6960   -0.7060   -2.7320 cg        1 5AO     -0.082200
      7 CAG        -1.0130   -0.1340    0.2390 c1        1 5AO     -0.116500
      8 NAH         1.1120    0.1330   -3.6970 n1        1 5AO     -0.547600
      9 OAI         0.8810    1.2910   -1.8400 os        1 5AO     -0.179200
     10 CAJ        -1.2700   -0.2020    1.5990 c1        1 5AO      0.113800
     11 CAK         0.2950   -0.0950   -0.2180 c1        1 5AO      0.018000
     12 CAL         0.5520    0.0160   -1.5760 c1        1 5AO      0.008600
     13 HNAA       -2.7840   -0.2340    2.9600 hn        1 5AO      0.390800
     14 HNAB       -3.2900   -0.4180    1.4710 hn        1 5AO      0.390800
     15 HAB         1.8290   -0.2130    2.6820 ha        1 5AO      0.077500
     16 HAC        -0.4000   -0.2800    3.4610 ha        1 5AO      0.077500
     17 HAD         2.2670   -0.0960    0.3640 ha        1 5AO      0.089500
     18 HAE         1.5150    2.1790   -3.6230 DU        1 5AO      0.207500
     19 HAF         0.5260   -1.6620   -2.8370 DU        1 5AO      0.207500
     20 HAG        -1.7530   -0.1140   -0.3980 ha        1 5AO      0.078500
@<TRIPOS>BOND
     1    1   10 1   
     2    1   13 1   
     3    1   14 1   
     4    2    3 3   
     5    2   15 1   
     6    3   16 1   
     7    4   11 3   
     8    4   17 1   
     9    5    8 3   
    10    5    9 1   
    11    6    8 1   
    12    6   12 3   
    13    7   10 3   
    14    7   20 1   
    15    9   12 1   
@<TRIPOS>SUBSTRUCTURE
     1 5AO         1 TEMP              0 ****  ****    0 ROOT
