@<TRIPOS>MOLECULE
5AP
   46    48     1     0     0
SMALL
bcc


@<TRIPOS>ATOM
      1 Cl2         1.1450   -1.7500    0.0390 cl        1 5AP     -0.065400
      2 C17         2.3910   -0.6020   -0.0730 ca        1 5AP      0.033400
      3 C16         3.2190   -0.4040    1.0360 ca        1 5AP     -0.121000
      4 C14         4.2330    0.5580    0.9770 ca        1 5AP      0.043400
      5 Cl1         5.2390    0.7950    2.3150 cl        1 5AP     -0.036400
      6 C13         4.4120    1.3310   -0.1770 ca        1 5AP     -0.124000
      7 C12         3.5800    1.1310   -1.2750 ca        1 5AP     -0.085000
      8 C11         2.5800    0.1510   -1.2430 cp        1 5AP     -0.203500
      9 C10         1.6980   -0.0060   -2.4210 cp        1 5AP      0.575800
     10 C19         1.7800   -1.1690   -3.2360 ca        1 5AP     -0.457900
     11 C20         2.7350   -2.2620   -2.9530 c3        1 5AP      0.205100
     12 N21         3.7810   -2.3580   -4.0290 nz        1 5AP     -0.844600
     13 C22         0.8740   -1.2480   -4.3430 ca        1 5AP      0.658200
     14 N23         0.9530   -2.3750   -5.2040 nv        1 5AP     -0.942500
     15 N9          0.8450    0.9990   -2.6960 nb        1 5AP     -0.678000
     16 C2          0.0270    0.8570   -3.7950 cp        1 5AP      0.797500
     17 N1          0.0060   -0.2350   -4.6200 nb        1 5AP     -0.722000
     18 C3         -0.9110    1.9680   -4.1010 cp        1 5AP     -0.119500
     19 C4         -1.5030    2.6740   -3.0500 ca        1 5AP     -0.145000
     20 C5         -2.3940    3.7210   -3.3540 ca        1 5AP      0.156100
     21 O25        -2.9300    4.3480   -2.2510 os        1 5AP     -0.320400
     22 C28        -3.8420    5.4130   -2.5030 c3        1 5AP      0.109700
     23 C6         -2.6850    4.0690   -4.6780 ca        1 5AP     -0.244000
     24 C7         -2.0710    3.3460   -5.7080 ca        1 5AP      0.156100
     25 C8         -1.1850    2.2890   -5.4330 ca        1 5AP     -0.145000
     26 O26        -2.2670    3.5900   -7.0510 os        1 5AP     -0.320400
     27 C29        -3.1730    4.6380   -7.3830 c3        1 5AP      0.109700
     28 H16         3.0600   -0.9900    1.9570 ha        1 5AP      0.179000
     29 H13         5.1930    2.1080   -0.2110 ha        1 5AP      0.170000
     30 H12         3.6930    1.7680   -2.1670 ha        1 5AP      0.156000
     31 H201        3.2740   -2.0890   -1.9740 hx        1 5AP      0.111200
     32 H202        2.2150   -3.2630   -2.9040 hx        1 5AP      0.111200
     33 H211        4.4460   -3.1020   -3.8060 hn        1 5AP      0.459800
     34 H212        4.2820   -1.4680   -4.1050 hn        1 5AP      0.459800
     35 H231        0.4220   -2.2640   -6.0500 hn        1 5AP      0.408800
     36 H232        0.6700   -3.2090   -4.7230 hn        1 5AP      0.408800
     37 H4         -1.2980    2.4380   -1.9960 ha        1 5AP      0.166500
     38 H281       -4.7340    5.0430   -3.0660 h1        1 5AP      0.052367
     39 H282       -3.3380    6.2400   -3.0600 h1        1 5AP      0.052367
     40 H283       -4.1340    5.7480   -1.4750 h1        1 5AP      0.052367
     41 H6         -3.3790    4.8900   -4.9040 ha        1 5AP      0.156000
     42 H8         -0.7320    1.7430   -6.2720 ha        1 5AP      0.166500
     43 H291       -3.1690    4.6350   -8.5030 h1        1 5AP      0.052367
     44 H292       -2.8030    5.6160   -6.9900 h1        1 5AP      0.052367
     45 H293       -4.1940    4.4150   -6.9910 h1        1 5AP      0.052367
     46 H213        3.3400   -2.5570   -4.9360 hn        1 5AP      0.459800
@<TRIPOS>BOND
     1    1    2 1   
     2    2    3 ar  
     3    2    8 ar  
     4    3    4 ar  
     5    3   28 1   
     6    4    5 1   
     7    4    6 ar  
     8    6    7 ar  
     9    6   29 1   
    10    7    8 ar  
    11    7   30 1   
    12    8    9 1   
    13    9   10 ar  
    14    9   15 ar  
    15   10   11 1   
    16   10   13 ar  
    17   11   12 1   
    18   11   31 1   
    19   11   32 1   
    20   12   33 1   
    21   12   34 1   
    22   12   46 1   
    23   13   14 1   
    24   13   17 ar  
    25   14   35 1   
    26   14   36 1   
    27   15   16 ar  
    28   16   17 ar  
    29   16   18 1   
    30   18   19 ar  
    31   18   25 ar  
    32   19   20 ar  
    33   19   37 1   
    34   20   21 1   
    35   20   23 ar  
    36   21   22 1   
    37   22   38 1   
    38   22   39 1   
    39   22   40 1   
    40   23   24 ar  
    41   23   41 1   
    42   24   25 ar  
    43   24   26 1   
    44   25   42 1   
    45   26   27 1   
    46   27   43 1   
    47   27   44 1   
    48   27   45 1   
@<TRIPOS>SUBSTRUCTURE
     1 5AP         1 TEMP              0 ****  ****    0 ROOT
