@<TRIPOS>MOLECULE
5AP
   45    37     1     0     0
SMALL
bcc


@<TRIPOS>ATOM
      1 CL2         3.7400    0.3280    0.7680 cl        1 5AP      0.013000
      2 C17         3.0630   -0.5320    2.1550 c2        1 5AP     -0.034000
      3 C16         3.7080   -0.4840    3.3770 c2        1 5AP     -0.125000
      4 C14         3.1140   -1.0290    4.4930 c1        1 5AP     -0.050000
      5 CL1         3.8730   -0.8780    6.0160 cl        1 5AP     -0.003000
      6 C13         1.8870   -1.6180    4.3950 c2        1 5AP     -0.129000
      7 C12         1.2360   -1.6690    3.1710 c1        1 5AP     -0.095000
      8 C11         1.8290   -1.1250    2.0570 c1        1 5AP     -0.029000
      9 C10         1.1470   -1.1350    0.8180 c1        1 5AP      0.084000
     10 C19         1.2760   -2.2100   -0.0360 c1        1 5AP     -0.234000
     11 C20         2.1510   -3.4380    0.3700 c2        1 5AP     -0.033000
     12 N21         1.3160   -4.6280    0.4210 n3        1 5AP     -0.361000
     13 C22         0.6360   -2.1930   -1.2600 c2        1 5AP      0.184000
     14 N23         0.7440   -3.3720   -2.1900 n3        1 5AP     -0.338000
     15 N9          0.3970   -0.0730    0.4540 n1        1 5AP     -0.191000
     16 C2         -0.2360   -0.0640   -0.7650 c1        1 5AP      0.106000
     17 N1         -0.1080   -1.1310   -1.6140 n1        1 5AP     -0.233000
     18 C3         -1.0540    1.0290   -1.1300 c1        1 5AP      0.032000
     19 C4         -0.4870    2.1620   -1.6730 c1        1 5AP     -0.145000
     20 C5         -1.2860    3.2420   -2.0070 c1        1 5AP      0.096000
     21 O25        -0.6950    4.4440   -2.4910 o         1 5AP     -0.208000
     22 C28        -0.7830    4.6040   -3.9320 c3        1 5AP     -0.077000
     23 C6         -2.6620    3.1810   -1.7940 c2        1 5AP     -0.220000
     24 C7         -3.2200    2.0560   -1.2560 c1        1 5AP      0.101000
     25 C8         -2.4170    0.9700   -0.9190 c1        1 5AP     -0.198000
     26 O26        -4.6340    1.9760   -1.0830 os        1 5AP     -0.212000
     27 C29        -5.0880    2.3960    0.2120 c3        1 5AP     -0.077000
     28 H16         4.5370   -0.0140    3.4610 ha        1 5AP      0.164000
     29 H13         1.4820   -1.9910    5.1610 ha        1 5AP      0.153000
     30 H12         0.3340   -2.1020    3.0990 ha        1 5AP      0.148000
     31 H201        2.5520   -3.2800    1.2540 h4        1 5AP      0.083000
     32 H202        2.8560   -3.5650   -0.2870 h4        1 5AP      0.083000
     33 H211        1.0530   -4.7860    1.3010 hn        1 5AP      0.149500
     34 H212        1.7960   -5.3580    0.1030 hn        1 5AP      0.149500
     35 H231        0.1760   -3.4320   -2.9440 hn        1 5AP      0.232000
     36 H232        1.3770   -3.9940   -2.0540 hn        1 5AP      0.232000
     37 H4          0.4520    2.1860   -1.8490 ha        1 5AP      0.165000
     38 H281       -1.7230    4.6800   -4.1980 h1        1 5AP      0.084667
     39 H282       -0.2990    5.4180   -4.2020 h1        1 5AP      0.084667
     40 H283       -0.3880    3.8360   -4.3640 h1        1 5AP      0.084667
     41 H6         -3.2070    3.9130   -2.0200 ha        1 5AP      0.155000
     42 H8         -2.8220    0.1580   -0.5320 ha        1 5AP      0.153000
     43 H291       -4.9610    3.4140    0.3050 h1        1 5AP      0.085000
     44 H292       -6.0840    2.1630    0.3200 h1        1 5AP      0.085000
     45 H293       -4.5780    1.9480    0.8900 h1        1 5AP      0.085000
@<TRIPOS>BOND
     1    1    2 1   
     2    2    3 1   
     3    2    8 1   
     4    3    4 1   
     5    3   28 1   
     6    4    6 1   
     7    6    7 1   
     8    6   29 1   
     9    7   30 1   
    10    9   10 1   
    11   10   13 1   
    12   11   12 1   
    13   11   31 1   
    14   11   32 1   
    15   12   33 1   
    16   12   34 1   
    17   13   14 1   
    18   13   17 1   
    19   14   35 1   
    20   14   36 1   
    21   15   16 1   
    22   18   25 1   
    23   19   20 1   
    24   19   37 1   
    25   20   23 1   
    26   21   22 1   
    27   22   38 1   
    28   22   39 1   
    29   22   40 1   
    30   23   24 1   
    31   23   41 1   
    32   24   26 1   
    33   25   42 1   
    34   26   27 1   
    35   27   43 1   
    36   27   44 1   
    37   27   45 1   
@<TRIPOS>SUBSTRUCTURE
     1 5AP         1 TEMP              0 ****  ****    0 ROOT
