@<TRIPOS>MOLECULE
5AP
   46    48     1     0     0
SMALL
bcc


@<TRIPOS>ATOM
      1 CL2         1.1240   -1.7230    0.0640 cl        1 5AP     -0.065400
      2 C17         2.3870   -0.5950   -0.0700 ca        1 5AP      0.033400
      3 C16         3.2250   -0.3980    1.0320 ca        1 5AP     -0.121000
      4 C14         4.2540    0.5470    0.9560 ca        1 5AP      0.043400
      5 CL1         5.2720    0.7820    2.2840 cl        1 5AP     -0.036400
      6 C13         4.4360    1.3040   -0.2080 ca        1 5AP     -0.124000
      7 C12         3.5940    1.1050   -1.2980 ca        1 5AP     -0.085000
      8 C11         2.5790    0.1420   -1.2490 cp        1 5AP     -0.203500
      9 C10         1.6870   -0.0150   -2.4190 cp        1 5AP      0.575800
     10 C19         1.7440   -1.1880   -3.2210 ca        1 5AP     -0.458900
     11 C20         2.6840   -2.2920   -2.9330 c3        1 5AP      0.205100
     12 N21         3.7210   -2.4170   -4.0150 n4        1 5AP     -0.844600
     13 C22         0.8290   -1.2650   -4.3200 ca        1 5AP      0.658200
     14 N23         0.8840   -2.4020   -5.1690 nh        1 5AP     -0.942500
     15 N9          0.8480    1.0010   -2.6990 nb        1 5AP     -0.678000
     16 C2          0.0200    0.8600   -3.7910 cp        1 5AP      0.797500
     17 N1         -0.0240   -0.2410   -4.6030 nb        1 5AP     -0.722000
     18 C3         -0.9020    1.9820   -4.1020 cp        1 5AP     -0.119500
     19 C4         -1.4740    2.7110   -3.0560 ca        1 5AP     -0.145000
     20 C5         -2.3500    3.7690   -3.3650 ca        1 5AP      0.156100
     21 O25        -2.8660    4.4190   -2.2650 os        1 5AP     -0.320400
     22 C28        -3.7620    5.4960   -2.5230 c3        1 5AP      0.109700
     23 C6         -2.6470    4.1050   -4.6910 ca        1 5AP     -0.244000
     24 C7         -2.0550    3.3590   -5.7170 ca        1 5AP      0.156100
     25 C8         -1.1830    2.2910   -5.4360 ca        1 5AP     -0.145000
     26 O26        -2.2580    3.5890   -7.0610 os        1 5AP     -0.320400
     27 C29        -3.1500    4.6470   -7.3980 c3        1 5AP      0.109700
     28 H16         3.0640   -0.9720    1.9610 ha        1 5AP      0.179000
     29 H13         5.2300    2.0680   -0.2560 ha        1 5AP      0.170000
     30 H12         3.7110    1.7300   -2.1980 ha        1 5AP      0.156000
     31 H201        2.1490   -3.2850   -2.8690 hx        1 5AP      0.111200
     32 H202        3.2320   -2.1170   -1.9590 hx        1 5AP      0.111200
     33 H211        4.3760   -3.1680   -3.7890 hn        1 5AP      0.459800
     34 H212        3.2700   -2.6190   -4.9160 hn        1 5AP      0.459800
     35 H231        0.5920   -3.2270   -4.6780 hn        1 5AP      0.408800
     36 H232        0.3490   -2.2920   -6.0130 hn        1 5AP      0.408800
     37 H4         -1.2630    2.4850   -2.0000 ha        1 5AP      0.166500
     38 H281       -4.0380    5.8490   -1.4970 h1        1 5AP      0.052367
     39 H282       -3.2480    6.3070   -3.0950 h1        1 5AP      0.052367
     40 H283       -4.6650    5.1350   -3.0730 h1        1 5AP      0.052367
     41 H6         -3.3300    4.9340   -4.9210 ha        1 5AP      0.156000
     42 H8         -0.7470    1.7270   -6.2720 ha        1 5AP      0.166500
     43 H291       -4.1720    4.4450   -6.9940 h1        1 5AP      0.052367
     44 H292       -2.7620    5.6240   -7.0210 h1        1 5AP      0.052367
     45 H293       -3.1570    4.6290   -8.5180 h1        1 5AP      0.052367
     46 H213        4.2350   -1.5350   -4.1040 hn        1 5AP      0.459800
@<TRIPOS>BOND
     1    1    2 1   
     2    2    3 ar  
     3    2    8 ar  
     4    3    4 ar  
     5    3   28 1   
     6    4    5 1   
     7    4    6 ar  
     8    6    7 ar  
     9    6   29 1   
    10    7    8 ar  
    11    7   30 1   
    12    8    9 1   
    13    9   10 ar  
    14    9   15 ar  
    15   10   11 1   
    16   10   13 ar  
    17   11   12 1   
    18   11   31 1   
    19   11   32 1   
    20   12   33 1   
    21   12   34 1   
    22   12   46 1   
    23   13   14 1   
    24   13   17 ar  
    25   14   35 1   
    26   14   36 1   
    27   15   16 ar  
    28   16   17 ar  
    29   16   18 1   
    30   18   19 ar  
    31   18   25 ar  
    32   19   20 ar  
    33   19   37 1   
    34   20   21 1   
    35   20   23 ar  
    36   21   22 1   
    37   22   38 1   
    38   22   39 1   
    39   22   40 1   
    40   23   24 ar  
    41   23   41 1   
    42   24   25 ar  
    43   24   26 1   
    44   25   42 1   
    45   26   27 1   
    46   27   43 1   
    47   27   44 1   
    48   27   45 1   
@<TRIPOS>SUBSTRUCTURE
     1 5AP         1 TEMP              0 ****  ****    0 ROOT
