@<TRIPOS>MOLECULE
5AP
   47    49     1     0     0
SMALL
bcc


@<TRIPOS>ATOM
      1 CL2         1.0400   -1.9310   -0.2780 cl        1 5AP     -0.047400
      2 C17         2.2960   -0.7910   -0.2820 ca        1 5AP      0.039400
      3 C16         3.0430   -0.6110    0.8850 ca        1 5AP     -0.117000
      4 C14         4.0570    0.3560    0.9210 ca        1 5AP      0.061400
      5 CL1         4.9470    0.5830    2.3290 cl        1 5AP      0.020600
      6 C13         4.3190    1.1440   -0.2110 ca        1 5AP     -0.123000
      7 C12         3.5690    0.9650   -1.3680 ca        1 5AP     -0.102000
      8 C11         2.5700   -0.0200   -1.4270 cp        1 5AP     -0.285500
      9 C10         1.7100   -0.0990   -2.6280 cp        1 5AP      0.591800
     10 C19         1.8140   -1.2260   -3.5210 ca        1 5AP     -0.439900
     11 C20         2.7930   -2.3080   -3.2520 c3        1 5AP      0.187100
     12 N21         4.2030   -1.8130   -3.1560 n4        1 5AP     -0.847600
     13 C22         0.8600   -1.2220   -4.5690 ca        1 5AP      0.572200
     14 N23         0.7120   -2.3740   -5.4970 n4        1 5AP     -0.841300
     15 N9          0.8600    0.9150   -2.8390 nb        1 5AP     -0.637000
     16 C2          0.0140    0.8610   -3.9300 cp        1 5AP      0.854500
     17 N1         -0.0110   -0.2220   -4.7930 nb        1 5AP     -0.705000
     18 C3         -0.9090    1.9760   -4.1800 cp        1 5AP     -0.156500
     19 C4         -1.1740    2.8950   -3.1540 ca        1 5AP     -0.130500
     20 C5         -2.0650    3.9580   -3.4000 ca        1 5AP      0.163100
     21 O25        -2.2550    4.7930   -2.3270 os        1 5AP     -0.314900
     22 C28        -3.1590    5.8840   -2.5090 c3        1 5AP      0.105200
     23 C6         -2.6810    4.1170   -4.6470 ca        1 5AP     -0.207000
     24 C7         -2.3970    3.1880   -5.6600 ca        1 5AP      0.163100
     25 C8         -1.5180    2.1150   -5.4390 ca        1 5AP     -0.130500
     26 O26        -2.9300    3.2310   -6.9250 os        1 5AP     -0.314900
     27 C29        -3.8350    4.3000   -7.2080 c3        1 5AP      0.105200
     28 H16         2.8140   -1.2080    1.7870 ha        1 5AP      0.199000
     29 H13         5.0950    1.9300   -0.1720 ha        1 5AP      0.189000
     30 H12         3.7300    1.6370   -2.2280 ha        1 5AP      0.163000
     31 H201        2.5430   -2.7930   -2.2520 hx        1 5AP      0.112200
     32 H202        2.7870   -3.1110   -4.0420 hx        1 5AP      0.112200
     33 H211        4.5040   -1.3880   -4.0380 hn        1 5AP      0.473800
     34 H212        4.8290   -2.5950   -2.9280 hn        1 5AP      0.473800
     35 H231        1.5710   -2.4990   -6.0400 hn        1 5AP      0.482800
     36 H232        0.5060   -3.2210   -4.9550 hn        1 5AP      0.482800
     37 H4         -0.7210    2.8170   -2.1530 ha        1 5AP      0.170000
     38 H281       -3.1430    6.3910   -1.5090 h1        1 5AP      0.063033
     39 H282       -4.1840    5.5070   -2.7450 h1        1 5AP      0.063033
     40 H283       -2.7890    6.5700   -3.3080 h1        1 5AP      0.063033
     41 H6         -3.3740    4.9520   -4.8300 ha        1 5AP      0.173000
     42 H8         -1.3300    1.4200   -6.2690 ha        1 5AP      0.170000
     43 H291       -4.7300    4.2420   -6.5440 h1        1 5AP      0.063033
     44 H292       -4.1190    4.1120   -8.2760 h1        1 5AP      0.063033
     45 H293       -3.3200    5.2860   -7.1030 h1        1 5AP      0.063033
     46 H213        4.2730   -1.0980   -2.4090 hn        1 5AP      0.473800
     47 H233       -0.0730   -2.2060   -6.1560 hn        1 5AP      0.482800
@<TRIPOS>BOND
     1    1    2 1   
     2    2    3 ar  
     3    2    8 ar  
     4    3    4 ar  
     5    3   28 1   
     6    4    5 1   
     7    4    6 ar  
     8    6    7 ar  
     9    6   29 1   
    10    7    8 ar  
    11    7   30 1   
    12    8    9 1   
    13    9   10 ar  
    14    9   15 ar  
    15   10   11 1   
    16   10   13 ar  
    17   11   12 1   
    18   11   31 1   
    19   11   32 1   
    20   12   33 1   
    21   12   34 1   
    22   12   46 1   
    23   13   14 1   
    24   13   17 ar  
    25   14   35 1   
    26   14   36 1   
    27   14   47 1   
    28   15   16 ar  
    29   16   17 ar  
    30   16   18 1   
    31   18   19 ar  
    32   18   25 ar  
    33   19   20 ar  
    34   19   37 1   
    35   20   21 1   
    36   20   23 ar  
    37   21   22 1   
    38   22   38 1   
    39   22   39 1   
    40   22   40 1   
    41   23   24 ar  
    42   23   41 1   
    43   24   25 ar  
    44   24   26 1   
    45   25   42 1   
    46   26   27 1   
    47   27   43 1   
    48   27   44 1   
    49   27   45 1   
@<TRIPOS>SUBSTRUCTURE
     1 5AP         1 TEMP              0 ****  ****    0 ROOT
