@<TRIPOS>MOLECULE
5AP
   45    47     1     0     0
SMALL
bcc


@<TRIPOS>ATOM
      1 CL2         1.5460   -1.6610   -1.9150 cl        1 5AP     -0.071400
      2 C17         0.9970   -0.3070   -2.7800 ca        1 5AP      0.054400
      3 C16         1.7040    0.0860   -3.9220 ca        1 5AP     -0.132000
      4 C14         1.2630    1.1900   -4.6550 ca        1 5AP      0.033400
      5 CL1         2.1220    1.6730   -6.0380 cl        1 5AP     -0.084400
      6 C13         0.1230    1.8990   -4.2620 ca        1 5AP     -0.131000
      7 C12        -0.5750    1.5000   -3.1260 ca        1 5AP     -0.080000
      8 C11        -0.1460    0.3980   -2.3750 cp        1 5AP     -0.149500
      9 C10        -0.8890    0.0250   -1.1510 cp        1 5AP      0.532800
     10 C19        -2.2180   -0.4440   -1.2360 ca        1 5AP     -0.353900
     11 C20        -2.9250   -0.5970   -2.5440 c3        1 5AP      0.220100
     12 N21        -3.9110    0.4310   -2.7940 n3        1 5AP     -0.921800
     13 C22        -2.8690   -0.7650    0.0020 ca        1 5AP      0.657200
     14 N23        -4.2170   -1.1460    0.0100 nh        1 5AP     -0.926500
     15 N9         -0.2390    0.1670    0.0320 nb        1 5AP     -0.695000
     16 C2         -0.9360   -0.1690    1.1600 cp        1 5AP      0.734500
     17 N1         -2.2160   -0.6400    1.2010 nb        1 5AP     -0.743000
     18 C3         -0.2320   -0.0150    2.4650 cp        1 5AP     -0.079500
     19 C4          1.0920   -0.4450    2.5850 ca        1 5AP     -0.149000
     20 C5          1.7430   -0.2950    3.8220 ca        1 5AP      0.145100
     21 O25         3.0450   -0.7600    3.8430 os        1 5AP     -0.323400
     22 C28         3.7570   -0.5880    5.0610 c3        1 5AP      0.113700
     23 C6          1.0980    0.2770    4.9240 ca        1 5AP     -0.263000
     24 C7         -0.2280    0.7000    4.7690 ca        1 5AP      0.145100
     25 C8         -0.9050    0.5570    3.5460 ca        1 5AP     -0.149000
     26 O26        -0.9770    1.2800    5.7750 os        1 5AP     -0.323400
     27 C29        -0.3260    1.4570    7.0270 c3        1 5AP      0.113700
     28 H16         2.6020   -0.4700   -4.2350 ha        1 5AP      0.163000
     29 H13        -0.2220    2.7670   -4.8440 ha        1 5AP      0.154000
     30 H12        -1.4820    2.0460   -2.8170 ha        1 5AP      0.165000
     31 H201       -3.3640   -1.6410   -2.5900 h1        1 5AP      0.036200
     32 H202       -2.1750   -0.5380   -3.3880 h1        1 5AP      0.036200
     33 H211       -4.5770    0.1160   -3.4700 hn        1 5AP      0.357800
     34 H212       -4.3870    0.7080   -1.9600 hn        1 5AP      0.357800
     35 H231       -4.5710   -1.4800    0.8810 hn        1 5AP      0.409300
     36 H232       -4.4880   -1.6970   -0.7740 hn        1 5AP      0.409300
     37 H4          1.6350   -0.8860    1.7370 ha        1 5AP      0.166000
     38 H281        4.7690   -1.0090    4.8320 h1        1 5AP      0.043867
     39 H282        3.8330    0.4950    5.3270 h1        1 5AP      0.043867
     40 H283        3.2710   -1.1610    5.8880 h1        1 5AP      0.043867
     41 H6          1.6170    0.3910    5.8840 ha        1 5AP      0.143000
     42 H8         -1.9480    0.8950    3.4630 ha        1 5AP      0.166000
     43 H291       -1.1110    1.9400    7.6620 h1        1 5AP      0.043867
     44 H292       -0.0230    0.4710    7.4570 h1        1 5AP      0.043867
     45 H293        0.5620    2.1270    6.9200 h1        1 5AP      0.043867
@<TRIPOS>BOND
     1    1    2 1   
     2    2    3 ar  
     3    2    8 ar  
     4    3    4 ar  
     5    3   28 1   
     6    4    5 1   
     7    4    6 ar  
     8    6    7 ar  
     9    6   29 1   
    10    7    8 ar  
    11    7   30 1   
    12    8    9 1   
    13    9   10 ar  
    14    9   15 ar  
    15   10   11 1   
    16   10   13 ar  
    17   11   12 1   
    18   11   31 1   
    19   11   32 1   
    20   12   33 1   
    21   12   34 1   
    22   13   14 1   
    23   13   17 ar  
    24   14   35 1   
    25   14   36 1   
    26   15   16 ar  
    27   16   17 ar  
    28   16   18 1   
    29   18   19 ar  
    30   18   25 ar  
    31   19   20 ar  
    32   19   37 1   
    33   20   21 1   
    34   20   23 ar  
    35   21   22 1   
    36   22   38 1   
    37   22   39 1   
    38   22   40 1   
    39   23   24 ar  
    40   23   41 1   
    41   24   25 ar  
    42   24   26 1   
    43   25   42 1   
    44   26   27 1   
    45   27   43 1   
    46   27   44 1   
    47   27   45 1   
@<TRIPOS>SUBSTRUCTURE
     1 5AP         1 TEMP              0 ****  ****    0 ROOT
