@<TRIPOS>MOLECULE
5AS
   45    47     1     0     0
SMALL
bcc


@<TRIPOS>ATOM
      1 S           0.5740   -0.9370    0.0640 s6        1 5AS      1.670400
      2 N1S         1.2610    0.7610    0.4950 n4        1 5AS     -0.727900
      3 O2S         0.7290   -1.5970    1.2460 o         1 5AS     -0.561800
      4 O3S        -0.5000   -0.6340   -0.7140 o         1 5AS     -0.561800
      5 O5'         1.8530   -1.3280   -0.8990 os        1 5AS     -0.587500
      6 C5'         2.5410   -2.5730   -0.9500 c3        1 5AS      0.207400
      7 C4'         1.5830   -3.6030   -1.5340 c3        1 5AS      0.051100
      8 O4'         2.2560   -4.8130   -1.8970 os        1 5AS     -0.395600
      9 C3'         0.4990   -4.0140   -0.5150 c3        1 5AS      0.098100
     10 O3'        -0.4640   -2.9870   -0.4410 oh        1 5AS     -0.670800
     11 C2'         0.0350   -5.3850   -1.0390 c3        1 5AS      0.101100
     12 O2'        -1.0360   -5.1580   -1.9230 oh        1 5AS     -0.590800
     13 C1'         1.2770   -5.8830   -1.8750 c3        1 5AS      0.223800
     14 N9          1.9230   -7.0680   -1.3500 na        1 5AS     -0.278000
     15 C8          3.3110   -7.2880   -1.1780 cc        1 5AS      0.522700
     16 N7          3.6260   -8.5590   -0.8710 nd        1 5AS     -0.567100
     17 C5          2.4060   -9.2440   -0.8570 ca        1 5AS     -0.131200
     18 C6          2.0280  -10.5810   -0.6300 ca        1 5AS      0.537200
     19 N6          3.0750  -11.5750   -0.3330 n4        1 5AS     -0.818300
     20 N1          0.7320  -10.9760   -0.6890 nb        1 5AS     -0.664000
     21 C2         -0.1960  -10.0190   -0.9800 ca        1 5AS      0.687900
     22 N3         -0.0000   -8.6960   -1.2260 nb        1 5AS     -0.647000
     23 C4          1.2980   -8.3130   -1.1670 ca        1 5AS      0.452800
     24 C10         0.2280    1.8330    0.4910 c3        1 5AS      0.110800
     25 C11         0.7890    3.2160    0.7450 c3        1 5AS     -0.134100
     26 H1S         1.9940    1.0230   -0.1680 hn        1 5AS      0.460800
     27 H5'1        3.4120   -2.3810   -1.6370 h1        1 5AS      0.101700
     28 H5'2        2.8940   -2.8520    0.0780 h1        1 5AS      0.101700
     29 H4'         1.1030   -3.1840   -2.4670 h1        1 5AS      0.104700
     30 H3'         0.9060   -4.1110    0.5320 h1        1 5AS      0.120700
     31 HO'3       -1.1470   -3.1080   -1.1240 ho        1 5AS      0.494000
     32 H2'        -0.2420   -6.0790   -0.2060 h1        1 5AS      0.101700
     33 HO'2       -1.5980   -5.9460   -1.9260 ho        1 5AS      0.454000
     34 H1'         0.9680   -6.0740   -2.9490 h2        1 5AS      0.123700
     35 H8          4.0340   -6.4610   -1.2960 h5        1 5AS      0.119800
     36 H61         3.6460  -11.7130   -1.1770 hn        1 5AS      0.484800
     37 H62         3.6720  -11.2110    0.4220 hn        1 5AS      0.484800
     38 H2         -1.2530  -10.3800   -1.0230 h5        1 5AS      0.109100
     39 H101       -0.2880    1.8080   -0.5150 hx        1 5AS      0.109700
     40 H102       -0.5280    1.5780    1.2900 hx        1 5AS      0.109700
     41 H111        1.5210    3.5150   -0.0450 hc        1 5AS      0.082033
     42 H112        1.2840    3.2850    1.7440 hc        1 5AS      0.082033
     43 H113       -0.0610    3.9470    0.7260 hc        1 5AS      0.082033
     44 H1S2        1.7000    0.7410    1.4180 hn        1 5AS      0.460800
     45 H63         2.6640  -12.4760   -0.0470 hn        1 5AS      0.484800
@<TRIPOS>BOND
     1    1    2 1   
     2    1    3 2   
     3    1    4 2   
     4    1    5 1   
     5    2   24 1   
     6    2   26 1   
     7    2   44 1   
     8    5    6 1   
     9    6    7 1   
    10    6   27 1   
    11    6   28 1   
    12    7    8 1   
    13    7    9 1   
    14    7   29 1   
    15    8   13 1   
    16    9   10 1   
    17    9   11 1   
    18    9   30 1   
    19   10   31 1   
    20   11   12 1   
    21   11   13 1   
    22   11   32 1   
    23   12   33 1   
    24   13   14 1   
    25   13   34 1   
    26   14   15 1   
    27   14   23 1   
    28   15   16 2   
    29   15   35 1   
    30   16   17 1   
    31   17   18 ar  
    32   17   23 ar  
    33   18   19 1   
    34   18   20 ar  
    35   19   36 1   
    36   19   37 1   
    37   19   45 1   
    38   20   21 ar  
    39   21   22 ar  
    40   21   38 1   
    41   22   23 ar  
    42   24   25 1   
    43   24   39 1   
    44   24   40 1   
    45   25   41 1   
    46   25   42 1   
    47   25   43 1   
@<TRIPOS>SUBSTRUCTURE
     1 5AS         1 TEMP              0 ****  ****    0 ROOT
