@<TRIPOS>MOLECULE
5AS
   44    46     1     0     0
SMALL
bcc


@<TRIPOS>ATOM
      1 S           1.7770   -1.1820    0.0340 s6        1 5AS      1.638400
      2 N1S         1.6870   -1.9470   -1.6210 n4        1 5AS     -0.731900
      3 O2S         2.9850   -0.5440    0.0360 o         1 5AS     -0.578300
      4 O3S         0.5480   -0.6190    0.2490 o         1 5AS     -0.578300
      5 O5'         1.9200   -2.4880    0.9750 os        1 5AS     -0.547500
      6 C5'         0.9190   -3.1160    1.7630 c3        1 5AS      0.184400
      7 C4'        -0.3500   -3.4180    0.9710 c3        1 5AS      0.036100
      8 O4'        -0.0210   -3.9590   -0.3130 os        1 5AS     -0.457600
      9 C3'        -1.2500   -4.4320    1.7040 c3        1 5AS      0.105100
     10 O3'        -2.5350   -3.9200    1.9400 oh        1 5AS     -0.565800
     11 C2'        -1.2860   -5.6790    0.7880 c3        1 5AS      0.078100
     12 O2'        -2.5560   -5.8150    0.1850 oh        1 5AS     -0.588800
     13 C1'        -0.3000   -5.3690   -0.3870 c3        1 5AS      0.272800
     14 N9          0.9050   -6.1600   -0.3440 na        1 5AS     -0.316000
     15 C8          0.9410   -7.5560   -0.0430 cc        1 5AS      0.405700
     16 N7          2.1430   -8.1080   -0.2180 nd        1 5AS     -0.505100
     17 C5          2.9650   -7.0680   -0.6770 ca        1 5AS     -0.237200
     18 C6          4.3540   -7.0380   -1.0460 ca        1 5AS      0.786200
     19 N6          5.1230   -8.1560   -0.9610 nh        1 5AS     -0.927500
     20 N1          4.8850   -5.8380   -1.4900 nb        1 5AS     -0.773000
     21 C2          4.0590   -4.7740   -1.5450 ca        1 5AS      0.699900
     22 N3          2.7400   -4.6570   -1.2290 nb        1 5AS     -0.848000
     23 C4          2.2000   -5.8310   -0.7850 ca        1 5AS      0.492800
     24 C10         1.0950   -1.0300   -2.6310 c3        1 5AS      0.104800
     25 C11         0.9480   -1.6510   -4.0040 c3        1 5AS     -0.126100
     26 H1S         2.6200   -2.2250   -1.9430 hn        1 5AS      0.486800
     27 H5'1        1.4330   -4.0580    2.1100 h1        1 5AS      0.101200
     28 H5'2        0.6780   -2.4490    2.6340 h1        1 5AS      0.101200
     29 H4'        -0.9170   -2.4660    0.7540 h1        1 5AS      0.114700
     30 H3'        -0.8510   -4.6810    2.7260 h1        1 5AS      0.112700
     31 HO'3       -2.9680   -3.7730    1.0840 ho        1 5AS      0.427000
     32 H2'        -1.0190   -6.6010    1.3660 h1        1 5AS      0.084700
     33 HO'2       -3.1710   -6.1090    0.8740 ho        1 5AS      0.441000
     34 H1'        -0.8110   -5.5040   -1.3910 h2        1 5AS      0.122700
     35 H8          0.0420   -8.0960    0.2810 h5        1 5AS      0.085800
     36 H61         4.7140   -9.0050   -0.6500 hn        1 5AS      0.464800
     37 H62         6.0810   -8.1380   -1.2190 hn        1 5AS      0.464800
     38 H2          4.5470   -3.8430   -1.9110 h5        1 5AS      0.039100
     39 H101        0.0800   -0.7110   -2.2480 hx        1 5AS      0.105700
     40 H102        1.7630   -0.1210   -2.6980 hx        1 5AS      0.105700
     41 H111        0.2760   -2.5430   -3.9800 hc        1 5AS      0.077367
     42 H112        1.9380   -1.9560   -4.4240 hc        1 5AS      0.077367
     43 H113        0.4960   -0.8880   -4.6870 hc        1 5AS      0.077367
     44 H1S2        1.1340   -2.8190   -1.6060 hn        1 5AS      0.486800
@<TRIPOS>BOND
     1    1    2 1   
     2    1    3 2   
     3    1    4 2   
     4    1    5 1   
     5    2   24 1   
     6    2   26 1   
     7    2   44 1   
     8    5    6 1   
     9    6    7 1   
    10    6   27 1   
    11    6   28 1   
    12    7    8 1   
    13    7    9 1   
    14    7   29 1   
    15    8   13 1   
    16    9   10 1   
    17    9   11 1   
    18    9   30 1   
    19   10   31 1   
    20   11   12 1   
    21   11   13 1   
    22   11   32 1   
    23   12   33 1   
    24   13   14 1   
    25   13   34 1   
    26   14   15 1   
    27   14   23 1   
    28   15   16 2   
    29   15   35 1   
    30   16   17 1   
    31   17   18 ar  
    32   17   23 ar  
    33   18   19 1   
    34   18   20 ar  
    35   19   36 1   
    36   19   37 1   
    37   20   21 ar  
    38   21   22 ar  
    39   21   38 1   
    40   22   23 ar  
    41   24   25 1   
    42   24   39 1   
    43   24   40 1   
    44   25   41 1   
    45   25   42 1   
    46   25   43 1   
@<TRIPOS>SUBSTRUCTURE
     1 5AS         1 TEMP              0 ****  ****    0 ROOT
