@<TRIPOS>MOLECULE
5AS
   43    39     1     0     0
SMALL
bcc


@<TRIPOS>ATOM
      1 S          -0.4460    2.6800    3.1430 ss        1 5AS      2.811000
      2 N1S        -1.4030    4.0340    3.4340 n2        1 5AS     -0.908000
      3 O2S         0.9550    2.8990    3.6130 o         1 5AS     -0.927500
      4 O3S        -0.8720    1.5000    4.0170 o         1 5AS     -0.927500
      5 O5'        -0.4810    2.3090    1.6360 o         1 5AS     -0.708000
      6 C5'         0.3520    1.2400    1.2420 c3        1 5AS      0.010000
      7 C4'        -0.3790    0.3700    0.2420 c3        1 5AS     -0.022000
      8 O4'         0.3690    0.1440   -0.8100 os        1 5AS     -0.248000
      9 C3'        -0.6480   -1.0350    0.8540 c3        1 5AS      0.023000
     10 O3'        -1.9870   -1.1950    1.1200 oh        1 5AS     -0.318000
     11 C2'        -0.1840   -2.0500   -0.2110 c3        1 5AS     -0.031000
     12 O2'        -1.2370   -3.0660   -0.4450 oh        1 5AS     -0.326000
     13 C1'         0.0080   -1.3440   -1.2960 c3        1 5AS      0.138000
     14 N9          1.0960   -1.9000   -2.0640 n3        1 5AS     -0.217000
     15 C8          2.4100   -1.5800   -1.9470 c1        1 5AS     -0.026000
     16 N7          3.0510   -2.0320   -3.0480 n2        1 5AS     -0.122000
     17 C5          2.1270   -2.6380   -3.8600 c1        1 5AS     -0.235000
     18 C6          2.2330   -3.2010   -5.1370 c1        1 5AS      0.244000
     19 N6          3.2910   -3.4920   -5.9250 n3        1 5AS     -0.356000
     20 N1          1.1230   -3.6660   -5.7700 n1        1 5AS     -0.270000
     21 C2         -0.0910   -3.5860   -5.1630 c1        1 5AS      0.026000
     22 N3         -0.1990   -3.0310   -3.9010 n1        1 5AS     -0.238000
     23 C4          0.9260   -2.5580   -3.2570 c1        1 5AS      0.054000
     24 C10        -1.9880    4.2520    4.7660 c3        1 5AS     -0.021000
     25 C11        -2.0860    5.7640    5.0430 c3        1 5AS     -0.229000
     26 H1S        -1.5940    4.6060    2.7570 hn        1 5AS      0.257000
     27 H5'1        0.5870    0.7060    2.0250 h1        1 5AS      0.110000
     28 H5'2        1.2080    1.6110    0.8110 h1        1 5AS      0.110000
     29 H4'        -1.2040    0.7840   -0.0200 h1        1 5AS      0.136000
     30 H3'        -0.1140   -1.1510    1.6910 h1        1 5AS      0.102000
     31 HO'3       -2.0860   -1.5330    1.9230 ho        1 5AS      0.234000
     32 H2'         0.6150   -2.4610    0.0590 h1        1 5AS      0.115000
     33 HO'2       -1.0340   -3.8440    0.0330 ho        1 5AS      0.239000
     34 H1'        -0.8340   -1.3300   -1.8510 h2        1 5AS      0.147000
     35 H8          2.8050   -1.0940   -1.2320 DU        1 5AS      0.237000
     36 H61         3.2670   -4.1970   -6.4500 hn        1 5AS      0.246500
     37 H62         4.0070   -2.9540   -5.9310 hn        1 5AS      0.246500
     38 H2         -0.9060   -3.9280   -5.6310 ha        1 5AS      0.187000
     39 H101       -1.4280    3.8360    5.4380 h1        1 5AS      0.097500
     40 H102       -2.8620    3.8660    4.7960 h1        1 5AS      0.097500
     41 H111       -2.6630    5.9220    5.8560 hc        1 5AS      0.086333
     42 H112       -2.4950    6.2230    4.2490 hc        1 5AS      0.086333
     43 H113       -1.2080    6.1200    5.2010 hc        1 5AS      0.086333
@<TRIPOS>BOND
     1    1    3 1   
     2    1    4 1   
     3    2   24 1   
     4    2   26 1   
     5    5    6 1   
     6    6    7 1   
     7    6   27 1   
     8    6   28 1   
     9    7    8 1   
    10    7    9 1   
    11    7   29 1   
    12    8   13 1   
    13    9   10 1   
    14    9   11 1   
    15    9   30 1   
    16   10   31 1   
    17   11   12 1   
    18   11   13 1   
    19   11   32 1   
    20   12   33 1   
    21   13   14 1   
    22   13   34 1   
    23   14   15 1   
    24   14   23 1   
    25   15   16 1   
    26   16   17 1   
    27   17   23 1   
    28   18   19 1   
    29   18   20 1   
    30   19   36 1   
    31   19   37 1   
    32   21   22 1   
    33   21   38 1   
    34   24   25 1   
    35   24   39 1   
    36   24   40 1   
    37   25   41 1   
    38   25   42 1   
    39   25   43 1   
@<TRIPOS>SUBSTRUCTURE
     1 5AS         1 TEMP              0 ****  ****    0 ROOT
