@<TRIPOS>MOLECULE
5AS
   44    46     1     0     0
SMALL
bcc


@<TRIPOS>ATOM
      1 S           1.7970   -1.1730   -0.0450 s6        1 5AS      1.638400
      2 N1S         1.6950   -1.9780   -1.6790 ny        1 5AS     -0.731900
      3 O2S         3.0080   -0.5420   -0.0640 o         1 5AS     -0.578300
      4 O3S         0.5730   -0.5980    0.1630 o         1 5AS     -0.578300
      5 O5'         1.9370   -2.4570    0.9280 os        1 5AS     -0.547500
      6 C5'         0.9360   -3.0600    1.7350 c3        1 5AS      0.184400
      7 C4'        -0.3380   -3.3730    0.9560 c3        1 5AS      0.036100
      8 O4'        -0.0180   -3.9470   -0.3160 os        1 5AS     -0.457600
      9 C3'        -1.2400   -4.3640    1.7180 c3        1 5AS      0.105100
     10 O3'        -2.5220   -3.8390    1.9480 oh        1 5AS     -0.565800
     11 C2'        -1.2890   -5.6320    0.8310 c3        1 5AS      0.078100
     12 O2'        -2.5630   -5.7740    0.2370 oh        1 5AS     -0.588800
     13 C1'        -0.3060   -5.3560   -0.3540 c3        1 5AS      0.272800
     14 N9          0.8950   -6.1530   -0.2980 na        1 5AS     -0.316000
     15 C8          0.9240   -7.5420    0.0360 cc        1 5AS      0.405700
     16 N7          2.1230   -8.1040   -0.1280 nd        1 5AS     -0.505100
     17 C5          2.9490   -7.0810   -0.6150 ca        1 5AS     -0.237200
     18 C6          4.3360   -7.0680   -0.9890 ca        1 5AS      0.786200
     19 N6          5.0990   -8.1870   -0.8790 nv        1 5AS     -0.927500
     20 N1          4.8720   -5.8820   -1.4630 nb        1 5AS     -0.773000
     21 C2          4.0530   -4.8140   -1.5410 ca        1 5AS      0.699900
     22 N3          2.7350   -4.6830   -1.2240 nb        1 5AS     -0.848000
     23 C4          2.1900   -5.8430   -0.7510 ca        1 5AS      0.492800
     24 C10         1.1040   -1.0820   -2.7090 c3        1 5AS      0.104800
     25 C11         0.9460   -1.7350   -4.0660 c3        1 5AS     -0.126100
     26 H1S         1.1370   -2.8460   -1.6410 hn        1 5AS      0.486800
     27 H5'1        1.4460   -3.9960    2.1020 h1        1 5AS      0.101200
     28 H5'2        0.7030   -2.3700    2.5910 h1        1 5AS      0.101200
     29 H4'        -0.9010   -2.4230    0.7200 h1        1 5AS      0.114700
     30 H3'        -0.8380   -4.5910    2.7430 h1        1 5AS      0.112700
     31 HO'3       -2.9580   -3.7090    1.0910 ho        1 5AS      0.427000
     32 H2'        -1.0250   -6.5420    1.4310 h1        1 5AS      0.084700
     33 HO'2       -3.1760   -6.0490    0.9350 ho        1 5AS      0.441000
     34 H1'        -0.8220   -5.5130   -1.3530 h2        1 5AS      0.122700
     35 H8          0.0230   -8.0690    0.3770 h5        1 5AS      0.085800
     36 H61         4.6870   -9.0270   -0.5470 hn        1 5AS      0.464800
     37 H62         6.0560   -8.1810   -1.1410 hn        1 5AS      0.464800
     38 H2          4.5440   -3.8950   -1.9300 h5        1 5AS      0.039100
     39 H101        0.0930   -0.7480   -2.3290 hx        1 5AS      0.105700
     40 H102        1.7770   -0.1790   -2.8020 hx        1 5AS      0.105700
     41 H111        0.2690   -2.6230   -4.0160 hc        1 5AS      0.077367
     42 H112        1.9310   -2.0570   -4.4830 hc        1 5AS      0.077367
     43 H113        0.4950   -0.9870   -4.7650 hc        1 5AS      0.077367
     44 H1S2        2.6250   -2.2680   -1.9990 hn        1 5AS      0.486800
@<TRIPOS>BOND
     1    1    2 1   
     2    1    3 2   
     3    1    4 2   
     4    1    5 1   
     5    2   24 1   
     6    2   26 1   
     7    2   44 1   
     8    5    6 1   
     9    6    7 1   
    10    6   27 1   
    11    6   28 1   
    12    7    8 1   
    13    7    9 1   
    14    7   29 1   
    15    8   13 1   
    16    9   10 1   
    17    9   11 1   
    18    9   30 1   
    19   10   31 1   
    20   11   12 1   
    21   11   13 1   
    22   11   32 1   
    23   12   33 1   
    24   13   14 1   
    25   13   34 1   
    26   14   15 1   
    27   14   23 1   
    28   15   16 2   
    29   15   35 1   
    30   16   17 1   
    31   17   18 ar  
    32   17   23 ar  
    33   18   19 1   
    34   18   20 ar  
    35   19   36 1   
    36   19   37 1   
    37   20   21 ar  
    38   21   22 ar  
    39   21   38 1   
    40   22   23 ar  
    41   24   25 1   
    42   24   39 1   
    43   24   40 1   
    44   25   41 1   
    45   25   42 1   
    46   25   43 1   
@<TRIPOS>SUBSTRUCTURE
     1 5AS         1 TEMP              0 ****  ****    0 ROOT
