@<TRIPOS>MOLECULE
5AS
   43    45     1     0     0
SMALL
bcc


@<TRIPOS>ATOM
      1 S           1.1680    1.8930   -3.3770 s6        1 5AS      1.713400
      2 N1S         2.2180    0.7090   -3.2440 n3        1 5AS     -0.928100
      3 O2S         1.8050    3.1010   -3.6250 o         1 5AS     -0.654800
      4 O3S         0.0190    1.5360   -4.0780 o         1 5AS     -0.654800
      5 O5'         0.5820    2.1050   -1.8000 os        1 5AS     -0.580500
      6 C5'        -0.7720    1.9710   -1.4610 c3        1 5AS      0.180400
      7 C4'        -1.2080    0.5040   -1.4130 c3        1 5AS      0.044100
      8 O4'        -0.2030   -0.2990   -0.7760 os        1 5AS     -0.409600
      9 C3'        -2.5300    0.3340   -0.6350 c3        1 5AS      0.137100
     10 O3'        -3.5250   -0.2740   -1.4170 oh        1 5AS     -0.569800
     11 C2'        -2.1540   -0.4700    0.6300 c3        1 5AS      0.079100
     12 O2'        -2.7720   -1.7360    0.5490 oh        1 5AS     -0.593800
     13 C1'        -0.6020   -0.6600    0.5480 c3        1 5AS      0.228800
     14 N9          0.1270    0.1030    1.5330 na        1 5AS     -0.298000
     15 C8          1.0590    1.1550    1.3450 cc        1 5AS      0.423700
     16 N7          1.6150    1.5810    2.4880 nd        1 5AS     -0.549100
     17 C5          1.0450    0.7880    3.4960 ca        1 5AS     -0.228200
     18 C6          1.2150    0.7440    4.9210 ca        1 5AS      0.766200
     19 N6          2.0840    1.6010    5.5390 nh        1 5AS     -0.960500
     20 N1          0.4870   -0.1730    5.6470 nb        1 5AS     -0.796000
     21 C2         -0.3580   -0.9890    4.9640 ca        1 5AS      0.688900
     22 N3         -0.6220   -1.0620    3.6380 nb        1 5AS     -0.759000
     23 C4          0.1010   -0.1550    2.9120 ca        1 5AS      0.447800
     24 C10         1.8660   -0.6880   -3.2710 c3        1 5AS      0.213800
     25 C11         2.9610   -1.5940   -3.8070 c3        1 5AS     -0.106100
     26 H1S         3.1770    0.8720   -3.0410 hn        1 5AS      0.461800
     27 H5'1       -0.8600    2.4490   -0.4460 h1        1 5AS      0.065200
     28 H5'2       -1.4160    2.5170   -2.2020 h1        1 5AS      0.065200
     29 H4'        -1.2900    0.0910   -2.4590 h1        1 5AS      0.108700
     30 H3'        -2.9660    1.3320   -0.3530 h1        1 5AS      0.094700
     31 HO'3       -3.3050   -1.2110   -1.5150 ho        1 5AS      0.425000
     32 H2'        -2.4700    0.0690    1.5610 h1        1 5AS      0.083700
     33 HO'2       -2.7340   -2.1250    1.4340 ho        1 5AS      0.432000
     34 H1'        -0.3260   -1.7530    0.6600 h2        1 5AS      0.105700
     35 H8          1.2580    1.5490    0.3350 h5        1 5AS      0.104800
     36 H61         2.2070    1.5810    6.5200 hn        1 5AS      0.451800
     37 H62         2.5900    2.2490    4.9890 hn        1 5AS      0.451800
     38 H2         -0.9190   -1.7080    5.6000 h5        1 5AS      0.051100
     39 H101        0.9440   -0.8060   -3.9140 h1        1 5AS      0.060200
     40 H102        1.5950   -1.0210   -2.2230 h1        1 5AS      0.060200
     41 H111        2.5900   -2.6480   -3.7930 hc        1 5AS      0.047033
     42 H112        3.2330   -1.3260   -4.8560 hc        1 5AS      0.047033
     43 H113        3.8800   -1.5330   -3.1750 hc        1 5AS      0.047033
@<TRIPOS>BOND
     1    1    2 1   
     2    1    3 2   
     3    1    4 2   
     4    1    5 1   
     5    2   24 1   
     6    2   26 1   
     7    5    6 1   
     8    6    7 1   
     9    6   27 1   
    10    6   28 1   
    11    7    8 1   
    12    7    9 1   
    13    7   29 1   
    14    8   13 1   
    15    9   10 1   
    16    9   11 1   
    17    9   30 1   
    18   10   31 1   
    19   11   12 1   
    20   11   13 1   
    21   11   32 1   
    22   12   33 1   
    23   13   14 1   
    24   13   34 1   
    25   14   15 1   
    26   14   23 1   
    27   15   16 2   
    28   15   35 1   
    29   16   17 1   
    30   17   18 ar  
    31   17   23 ar  
    32   18   19 1   
    33   18   20 ar  
    34   19   36 1   
    35   19   37 1   
    36   20   21 ar  
    37   21   22 ar  
    38   21   38 1   
    39   22   23 ar  
    40   24   25 1   
    41   24   39 1   
    42   24   40 1   
    43   25   41 1   
    44   25   42 1   
    45   25   43 1   
@<TRIPOS>SUBSTRUCTURE
     1 5AS         1 TEMP              0 ****  ****    0 ROOT
