@<TRIPOS>MOLECULE
5AT
   32    33     1     0     0
SMALL
bcc


@<TRIPOS>ATOM
      1 N5'         2.4300   -0.7160   -2.7310 n3        1 5AT     -0.911800
      2 N1         -0.6360   -0.2840    0.5990 n         1 5AT     -0.383000
      3 C6         -0.3710   -1.1570    1.6520 cc        1 5AT      0.037600
      4 C2         -0.1140    1.0360    0.6580 c         1 5AT      0.809500
      5 O2         -0.2320    1.8460   -0.2890 o         1 5AT     -0.658500
      6 N3          0.5250    1.4530    1.8350 n         1 5AT     -0.586500
      7 C4          0.7490    0.6070    2.9350 c         1 5AT      0.714700
      8 O4          1.3350    1.0640    3.9300 o         1 5AT     -0.605500
      9 C5          0.2610   -0.7770    2.7950 cd        1 5AT     -0.248400
     10 C7          0.4920   -1.6920    3.9300 c3        1 5AT     -0.032900
     11 C2'        -2.0650    0.1100   -1.4730 c3        1 5AT     -0.137400
     12 C5'         1.2930    0.1730   -2.7090 c3        1 5AT      0.141800
     13 C4'        -0.0490   -0.5700   -2.6910 c3        1 5AT      0.134100
     14 O4'        -0.1580   -1.3440   -1.4850 os        1 5AT     -0.430600
     15 C1'        -1.1960   -0.8440   -0.6330 c3        1 5AT      0.315500
     16 C3'        -1.2340    0.4180   -2.7250 c3        1 5AT      0.120100
     17 O3'        -1.9640    0.1560   -3.9110 oh        1 5AT     -0.590800
     18 HN51        3.2630   -0.2150   -2.4980 hn        1 5AT      0.353800
     19 HN52        2.3050   -1.4690   -2.0820 hn        1 5AT      0.353800
     20 H6         -0.7270   -2.1960    1.5100 h4        1 5AT      0.167000
     21 H3          0.8500    2.3960    1.8630 hn        1 5AT      0.352500
     22 H71        -0.1110   -1.3630    4.8140 hc        1 5AT      0.052700
     23 H72         0.2080   -2.7410    3.6700 hc        1 5AT      0.052700
     24 H73         1.5710   -1.6690    4.2250 hc        1 5AT      0.052700
     25 H2'        -3.0090   -0.4210   -1.7560 hc        1 5AT      0.081200
     26 H2''       -2.3320    1.0470   -0.9280 hc        1 5AT      0.081200
     27 H5'         1.3280    0.7920   -3.6510 h1        1 5AT      0.044200
     28 H5''        1.3060    0.8850   -1.8300 h1        1 5AT      0.044200
     29 H4'        -0.1170   -1.3140   -3.5330 h1        1 5AT      0.104700
     30 H1'        -1.7860   -1.7610   -0.3250 h2        1 5AT      0.085700
     31 H3'        -0.8750    1.4820   -2.7080 h1        1 5AT      0.077700
     32 HO3'       -2.6110    0.8660   -4.0000 ho        1 5AT      0.407000
@<TRIPOS>BOND
     1    1   12 1   
     2    1   18 1   
     3    1   19 1   
     4    2    3 1   
     5    2    4 1   
     6    2   15 1   
     7    3    9 2   
     8    3   20 1   
     9    4    5 2   
    10    4    6 1   
    11    6    7 1   
    12    6   21 1   
    13    7    8 2   
    14    7    9 1   
    15    9   10 1   
    16   10   22 1   
    17   10   23 1   
    18   10   24 1   
    19   11   15 1   
    20   11   16 1   
    21   11   25 1   
    22   11   26 1   
    23   12   13 1   
    24   12   27 1   
    25   12   28 1   
    26   13   14 1   
    27   13   16 1   
    28   13   29 1   
    29   14   15 1   
    30   15   30 1   
    31   16   17 1   
    32   16   31 1   
    33   17   32 1   
@<TRIPOS>SUBSTRUCTURE
     1 5AT         1 TEMP              0 ****  ****    0 ROOT
