@<TRIPOS>MOLECULE
5AT
   32    33     1     0     0
SMALL
bcc


@<TRIPOS>ATOM
      1 N5'        -3.4010   -0.4280   -0.2910 n3        1 5AT     -0.922800
      2 N1          1.0700    0.0710    0.2210 n         1 5AT     -0.400000
      3 C6          1.2600   -0.9750   -0.7160 cc        1 5AT      0.047600
      4 C2          1.4980    1.4580   -0.1180 c         1 5AT      0.805500
      5 O2          1.3790    2.3410    0.6990 o         1 5AT     -0.646500
      6 N3          2.1380    1.7420   -1.4210 n         1 5AT     -0.583500
      7 C4          2.4090    0.6810   -2.3260 c         1 5AT      0.716700
      8 O4          2.9610    0.9170   -3.4140 o         1 5AT     -0.610500
      9 C5          1.9810   -0.7030   -1.9970 cd        1 5AT     -0.266400
     10 C7          2.3090   -1.8460   -2.9450 c3        1 5AT     -0.027900
     11 C2'        -0.2130    1.0160    2.1480 c3        1 5AT     -0.114400
     12 C5'        -2.0130   -0.1840   -0.0050 c3        1 5AT      0.137800
     13 C4'        -1.7340   -0.5210    1.4040 c3        1 5AT      0.095100
     14 O4'        -0.2270   -1.2050    1.5390 os        1 5AT     -0.416600
     15 C1'         0.6070   -0.2280    1.5560 c3        1 5AT      0.319500
     16 C3'        -1.7090    0.5750    2.1360 c3        1 5AT      0.128100
     17 O3'        -2.1630    0.2860    3.4990 oh        1 5AT     -0.588800
     18 HN51       -3.7310    0.2520   -0.7750 hn        1 5AT      0.357800
     19 HN52       -3.4830   -1.2130   -0.7690 hn        1 5AT      0.357800
     20 H6          0.9750   -1.8970   -0.4940 h4        1 5AT      0.178000
     21 H3          2.4000    2.5960   -1.6260 hn        1 5AT      0.352500
     22 H71         3.2620   -1.7630   -3.2490 hc        1 5AT      0.049700
     23 H72         2.1860   -2.7020   -2.4830 hc        1 5AT      0.049700
     24 H73         1.7180   -1.8060   -3.7160 hc        1 5AT      0.049700
     25 H2'        -0.0890    1.7950    1.5840 hc        1 5AT      0.092700
     26 H2''        0.0650    1.2010    3.0250 hc        1 5AT      0.092700
     27 H5'        -1.8060    0.7720   -0.1640 h1        1 5AT      0.039200
     28 H5''       -1.4610   -0.7350   -0.5840 h1        1 5AT      0.039200
     29 H4'        -2.4030   -1.1280    1.7400 h1        1 5AT      0.082700
     30 H1'         1.3510   -0.4390    2.1280 h2        1 5AT      0.102700
     31 H3'        -2.2710    1.2730    1.7270 h1        1 5AT      0.064700
     32 HO3'       -2.8640    0.7930    3.6910 ho        1 5AT      0.415000
@<TRIPOS>BOND
     1    1   12 1   
     2    1   18 1   
     3    1   19 1   
     4    2    3 1   
     5    2    4 1   
     6    2   15 1   
     7    3    9 2   
     8    3   20 1   
     9    4    5 2   
    10    4    6 1   
    11    6    7 1   
    12    6   21 1   
    13    7    8 2   
    14    7    9 1   
    15    9   10 1   
    16   10   22 1   
    17   10   23 1   
    18   10   24 1   
    19   11   15 1   
    20   11   16 1   
    21   11   25 1   
    22   11   26 1   
    23   12   13 1   
    24   12   27 1   
    25   12   28 1   
    26   13   14 1   
    27   13   16 1   
    28   13   29 1   
    29   14   15 1   
    30   15   30 1   
    31   16   17 1   
    32   16   31 1   
    33   17   32 1   
@<TRIPOS>SUBSTRUCTURE
     1 5AT         1 TEMP              0 ****  ****    0 ROOT
