@<TRIPOS>MOLECULE
5AW
   81    82     1     0     0
SMALL
bcc


@<TRIPOS>ATOM
      1 O25         2.1060    0.1650    2.5870 o         1 5AW     -0.424000
      2 C24         1.1120   -0.3550    2.1050 c         1 5AW      0.635100
      3 O26         0.0500   -0.8860    2.7000 os        1 5AW     -0.406900
      4 C27        -0.1690   -0.5960    4.1470 c3        1 5AW      0.273700
      5 C28        -0.7630    0.7190    4.3220 cc        1 5AW     -0.377700
      6 S32        -0.1330    1.9770    5.2460 ss        1 5AW      0.041700
      7 C31        -1.4960    2.9260    4.9370 cc        1 5AW      0.403300
      8 N30        -2.4320    2.3570    4.1650 nd        1 5AW     -0.610000
      9 C29        -2.0280    1.0900    3.8280 cd        1 5AW      0.400200
     10 N23         0.9860   -0.5070    0.5940 n4        1 5AW     -0.663800
     11 C21         2.2100   -1.1630    0.0020 c3        1 5AW      0.136500
     12 C22         2.1660   -2.6700    0.2250 c3        1 5AW     -0.138100
     13 C20         2.3490   -0.8270   -1.4940 c3        1 5AW     -0.102400
     14 C19         3.6960   -1.2950   -2.0250 c3        1 5AW     -0.103400
     15 C17         3.9130   -0.8140   -3.4700 c3        1 5AW      0.137500
     16 C18         2.9470   -1.4880   -4.4300 c3        1 5AW     -0.143100
     17 N16         5.3560   -1.0710   -3.9020 n4        1 5AW     -0.681800
     18 C14         5.7370   -0.3500   -5.1700 c         1 5AW      0.508100
     19 O15         5.2930    0.7760   -5.3290 o         1 5AW     -0.383100
     20 C13         6.6700   -1.1160   -6.1470 c3        1 5AW      0.055700
     21 C33         5.9350   -2.4130   -6.6110 c3        1 5AW     -0.086700
     22 C35         6.6110   -3.6120   -5.9730 c3        1 5AW     -0.115100
     23 C34         5.8800   -2.6030   -8.1120 c3        1 5AW     -0.115100
     24 N12         7.0710   -0.2320   -7.2270 n         1 5AW     -0.521900
     25 C10         8.3870    0.1100   -7.4320 c         1 5AW      0.663100
     26 O11         9.3430   -0.1960   -6.7070 o         1 5AW     -0.519100
     27 N08         8.7180    0.9690   -8.6620 n4        1 5AW     -0.577200
     28 C09         8.8510    0.0950   -9.8580 c3        1 5AW      0.077100
     29 C07         9.9310    1.8390   -8.4260 c3        1 5AW      0.196100
     30 C06        11.2560    1.2760   -8.8080 cc        1 5AW     -0.142600
     31 N05        11.9880    0.3990   -7.9960 na        1 5AW     -0.098100
     32 C36        12.0070    1.6850   -9.9080 cd        1 5AW     -0.192100
     33 S37        13.5290    1.0380   -9.9150 ss        1 5AW      0.482200
     34 C04        13.2450    0.1970   -8.4890 cc        1 5AW     -0.009700
     35 C02        14.2920   -0.6530   -7.8370 c3        1 5AW     -0.036400
     36 C03        13.7580   -2.0150   -7.4460 c3        1 5AW     -0.119100
     37 C01        15.4830   -0.7820   -8.7690 c3        1 5AW     -0.119100
     38 H1          0.8100   -0.7260    4.6750 h1        1 5AW      0.114700
     39 H2         -0.8870   -1.4390    4.3730 h1        1 5AW      0.114700
     40 H3         -1.6440    3.9390    5.3400 h5        1 5AW      0.090100
     41 H4         -2.6970    0.4570    3.2300 h4        1 5AW      0.055100
     42 H5          0.8620    0.4320    0.2000 hn        1 5AW      0.471300
     43 H6          3.0960   -0.7250    0.5620 hx        1 5AW      0.126700
     44 H7          1.3910   -3.1590   -0.4150 hc        1 5AW      0.086367
     45 H8          1.9520   -2.9170    1.2970 hc        1 5AW      0.086367
     46 H9          3.1660   -3.1030   -0.0230 hc        1 5AW      0.086367
     47 H10         1.5220   -1.3280   -2.0660 hc        1 5AW      0.079200
     48 H11         2.2580    0.2820   -1.6520 hc        1 5AW      0.079200
     49 H12         4.5060   -0.8960   -1.3560 hc        1 5AW      0.081700
     50 H13         3.7380   -2.4180   -1.9930 hc        1 5AW      0.081700
     51 H14         3.7750    0.3110   -3.5170 hx        1 5AW      0.130700
     52 H15         1.9010   -1.1950   -4.1490 hc        1 5AW      0.088367
     53 H16         3.0180   -2.6030   -4.3830 hc        1 5AW      0.088367
     54 H17         3.1110   -1.1480   -5.4830 hc        1 5AW      0.088367
     55 H18         5.4860   -2.0830   -4.0290 hn        1 5AW      0.470300
     56 H19         7.6030   -1.4050   -5.5650 h1        1 5AW      0.136700
     57 H20         4.8640   -2.3590   -6.2560 hc        1 5AW      0.065700
     58 H21         7.6390   -3.7600   -6.3880 hc        1 5AW      0.069533
     59 H22         6.6910   -3.5080   -4.8640 hc        1 5AW      0.069533
     60 H23         6.0200   -4.5390   -6.1950 hc        1 5AW      0.069533
     61 H24         5.3920   -3.5900   -8.3350 hc        1 5AW      0.069533
     62 H25         6.9000   -2.6280   -8.5630 hc        1 5AW      0.069533
     63 H26         5.2660   -1.8130   -8.6070 hc        1 5AW      0.069533
     64 H27        11.6390   -0.0030   -7.1460 hn        1 5AW      0.361700
     65 H28         7.8750   -0.4320  -10.0500 hx        1 5AW      0.123033
     66 H29         9.6620   -0.6630   -9.6880 hx        1 5AW      0.123033
     67 H30         9.1100    0.7280  -10.7520 hx        1 5AW      0.123033
     68 H31         9.7720    2.7770   -9.0480 hx        1 5AW      0.147200
     69 H32         9.9340    2.1310   -7.3300 hx        1 5AW      0.147200
     70 H33        11.6430    2.3840  -10.6760 h4        1 5AW      0.244000
     71 H34        14.6250   -0.1110   -6.8970 hc        1 5AW      0.124700
     72 H35        14.5910   -2.6150   -6.9950 hc        1 5AW      0.075533
     73 H36        13.3780   -2.5720   -8.3360 hc        1 5AW      0.075533
     74 H37        12.9440   -1.9300   -6.6870 hc        1 5AW      0.075533
     75 H38        15.8330    0.2210   -9.1250 hc        1 5AW      0.075533
     76 H39        15.2460   -1.4310   -9.6470 hc        1 5AW      0.075533
     77 H40        16.3350   -1.2580   -8.2160 hc        1 5AW      0.075533
     78 H232        0.1490   -1.0700    0.3890 hn        1 5AW      0.471300
     79 H162        5.9790   -0.7500   -3.1480 hn        1 5AW      0.470300
     80 H122        6.3650   -0.0060   -7.8990 hn        1 5AW      0.368500
     81 H081        7.9360    1.6250   -8.8290 hn        1 5AW      0.476800
@<TRIPOS>BOND
     1    1    2 2   
     2    2    3 1   
     3    2   10 1   
     4    3    4 1   
     5    4    5 1   
     6    4   38 1   
     7    4   39 1   
     8    5    6 1   
     9    5    9 2   
    10    6    7 1   
    11    7    8 2   
    12    7   40 1   
    13    8    9 1   
    14    9   41 1   
    15   10   11 1   
    16   10   42 1   
    17   10   78 1   
    18   11   12 1   
    19   11   13 1   
    20   11   43 1   
    21   12   44 1   
    22   12   45 1   
    23   12   46 1   
    24   13   14 1   
    25   13   47 1   
    26   13   48 1   
    27   14   15 1   
    28   14   49 1   
    29   14   50 1   
    30   15   16 1   
    31   15   17 1   
    32   15   51 1   
    33   16   52 1   
    34   16   53 1   
    35   16   54 1   
    36   17   18 1   
    37   17   55 1   
    38   17   79 1   
    39   18   19 2   
    40   18   20 1   
    41   20   21 1   
    42   20   24 1   
    43   20   56 1   
    44   21   22 1   
    45   21   23 1   
    46   21   57 1   
    47   22   58 1   
    48   22   59 1   
    49   22   60 1   
    50   23   61 1   
    51   23   62 1   
    52   23   63 1   
    53   24   25 1   
    54   24   80 1   
    55   25   26 2   
    56   25   27 1   
    57   27   28 1   
    58   27   29 1   
    59   27   81 1   
    60   28   65 1   
    61   28   66 1   
    62   28   67 1   
    63   29   30 1   
    64   29   68 1   
    65   29   69 1   
    66   30   31 1   
    67   30   32 2   
    68   31   34 2   
    69   31   64 1   
    70   32   33 1   
    71   32   70 1   
    72   33   34 1   
    73   34   35 1   
    74   35   36 1   
    75   35   37 1   
    76   35   71 1   
    77   36   72 1   
    78   36   73 1   
    79   36   74 1   
    80   37   75 1   
    81   37   76 1   
    82   37   77 1   
@<TRIPOS>SUBSTRUCTURE
     1 5AW         1 TEMP              0 ****  ****    0 ROOT
