@<TRIPOS>MOLECULE
5AW
   81    82     1     0     0
SMALL
bcc


@<TRIPOS>ATOM
      1 O25         1.8760    0.6060    2.3230 o         1 5AW     -0.424000
      2 C24         1.0980   -0.2840    2.0190 c         1 5AW      0.635100
      3 O26         0.2370   -0.9620    2.7690 os        1 5AW     -0.406900
      4 C27        -0.0940   -0.4290    4.1230 c3        1 5AW      0.273700
      5 C28        -1.0690    0.6430    4.0290 cc        1 5AW     -0.377700
      6 S32        -0.8790    2.2120    4.6090 ss        1 5AW      0.040700
      7 C31        -2.4630    2.6000    4.1660 cc        1 5AW      0.404300
      8 N30        -3.1610    1.6090    3.5950 nd        1 5AW     -0.610000
      9 C29        -2.3770    0.4850    3.5310 cd        1 5AW      0.400200
     10 N23         1.0560   -0.8050    0.5880 n4        1 5AW     -0.663800
     11 C21         2.4340   -1.1750    0.0930 c3        1 5AW      0.136500
     12 C22         2.8520   -2.5320    0.6470 c3        1 5AW     -0.137100
     13 C20         2.4910   -1.1600   -1.4450 c3        1 5AW     -0.102400
     14 C19         3.9230   -1.3260   -1.9320 c3        1 5AW     -0.102400
     15 C17         4.0090   -1.1110   -3.4530 c3        1 5AW      0.137500
     16 C18         3.2050   -2.1600   -4.2050 c3        1 5AW     -0.143100
     17 N16         5.4680   -1.1290   -3.9070 n4        1 5AW     -0.679800
     18 C14         5.6870   -0.5330   -5.2720 c         1 5AW      0.527100
     19 O15         4.9010    0.3200   -5.6520 o         1 5AW     -0.384100
     20 C13         6.8990   -1.0560   -6.0800 c3        1 5AW      0.047700
     21 C33         6.5140   -2.3620   -6.8290 c3        1 5AW     -0.090700
     22 C35         6.2850   -3.5040   -5.8640 c3        1 5AW     -0.126600
     23 C34         5.3280   -2.1760   -7.7470 c3        1 5AW     -0.126600
     24 N12         7.3400    0.0050   -6.9870 n         1 5AW     -0.516900
     25 C10         8.6620    0.0980   -7.3460 c         1 5AW      0.658100
     26 O11         9.6050   -0.4900   -6.7950 o         1 5AW     -0.523100
     27 N08         9.0880    1.0310   -8.4920 n4        1 5AW     -0.577200
     28 C09         8.0190    1.9330   -8.9940 c3        1 5AW      0.063100
     29 C07        10.3140    1.8250   -8.0790 c3        1 5AW      0.195100
     30 C06        11.5910    1.3040   -8.6430 cc        1 5AW     -0.159600
     31 N05        12.2850    0.2150   -8.0970 na        1 5AW     -0.098100
     32 C36        12.3200    1.9030   -9.6670 cd        1 5AW     -0.181100
     33 S37        13.7830    1.1700   -9.9160 ss        1 5AW      0.480200
     34 C04        13.4960    0.0450   -8.7000 cc        1 5AW     -0.004700
     35 C02        14.4970   -1.0040   -8.3280 c3        1 5AW     -0.036400
     36 C03        13.8680   -2.3780   -8.2130 c3        1 5AW     -0.119100
     37 C01        15.6240   -1.0050   -9.3450 c3        1 5AW     -0.119100
     38 H1         -0.5200   -1.3760    4.5690 h1        1 5AW      0.114200
     39 H2          0.8660   -0.1280    4.6170 h1        1 5AW      0.114200
     40 H3         -2.9250    3.5830    4.3380 h5        1 5AW      0.090100
     41 H4         -2.8040   -0.4430    3.1280 h4        1 5AW      0.055100
     42 H5          0.6570   -0.0630    0.0030 hn        1 5AW      0.471300
     43 H6          3.1310   -0.3730    0.4960 hx        1 5AW      0.126700
     44 H7          3.9410   -2.6840    0.4480 hc        1 5AW      0.086033
     45 H8          2.7040   -2.5830    1.7560 hc        1 5AW      0.086033
     46 H9          2.2770   -3.3640    0.1710 hc        1 5AW      0.086033
     47 H10         1.8580   -1.9960   -1.8480 hc        1 5AW      0.079700
     48 H11         2.0800   -0.1900   -1.8370 hc        1 5AW      0.079700
     49 H12         4.2830   -2.3590   -1.6740 hc        1 5AW      0.080200
     50 H13         4.5780   -0.5840   -1.3990 hc        1 5AW      0.080200
     51 H14         3.6180   -0.0770   -3.7070 hx        1 5AW      0.130700
     52 H15         3.4770   -3.1980   -3.8910 hc        1 5AW      0.090033
     53 H16         3.3310   -2.0610   -5.3120 hc        1 5AW      0.090033
     54 H17         2.1170   -2.0000   -3.9830 hc        1 5AW      0.090033
     55 H18         6.0240   -0.5910   -3.2290 hn        1 5AW      0.470800
     56 H19         7.7570   -1.2860   -5.3720 h1        1 5AW      0.127700
     57 H20         7.4150   -2.6350   -7.4580 hc        1 5AW      0.097700
     58 H21         7.0540   -3.5250   -5.0540 hc        1 5AW      0.069033
     59 H22         6.3660   -4.4750   -6.4240 hc        1 5AW      0.069033
     60 H23         5.2570   -3.4740   -5.4250 hc        1 5AW      0.069033
     61 H24         4.4410   -1.7780   -7.1950 hc        1 5AW      0.069033
     62 H25         5.5640   -1.4800   -8.5880 hc        1 5AW      0.069033
     63 H26         5.0410   -3.1630   -8.1960 hc        1 5AW      0.069033
     64 H27        11.9430   -0.3470   -7.3390 hn        1 5AW      0.361700
     65 H28         7.1810    1.3300   -9.4390 hx        1 5AW      0.126700
     66 H29         8.4380    2.5880   -9.8120 hx        1 5AW      0.126700
     67 H30         7.6410    2.5900   -8.1640 hx        1 5AW      0.126700
     68 H31        10.1810    2.8910   -8.4440 hx        1 5AW      0.147200
     69 H32        10.3600    1.8490   -6.9480 hx        1 5AW      0.147200
     70 H33        11.9790    2.7820  -10.2340 h4        1 5AW      0.244000
     71 H34        14.9240   -0.7170   -7.3160 hc        1 5AW      0.125700
     72 H35        13.3940   -2.6880   -9.1750 hc        1 5AW      0.076033
     73 H36        13.1070   -2.4090   -7.3970 hc        1 5AW      0.076033
     74 H37        14.6690   -3.1240   -7.9690 hc        1 5AW      0.076033
     75 H38        16.4600   -1.6530   -8.9700 hc        1 5AW      0.076033
     76 H39        15.2880   -1.4220  -10.3260 hc        1 5AW      0.076033
     77 H40        16.0390    0.0250   -9.4950 hc        1 5AW      0.076033
     78 H232        0.4370   -1.6270    0.5550 hn        1 5AW      0.471300
     79 H162        5.8010   -2.1040   -3.9050 hn        1 5AW      0.470800
     80 H122        6.6210    0.4320   -7.5390 hn        1 5AW      0.367500
     81 H081        9.3590    0.4000   -9.2660 hn        1 5AW      0.477800
@<TRIPOS>BOND
     1    1    2 2   
     2    2    3 1   
     3    2   10 1   
     4    3    4 1   
     5    4    5 1   
     6    4   38 1   
     7    4   39 1   
     8    5    6 1   
     9    5    9 2   
    10    6    7 1   
    11    7    8 2   
    12    7   40 1   
    13    8    9 1   
    14    9   41 1   
    15   10   11 1   
    16   10   42 1   
    17   10   78 1   
    18   11   12 1   
    19   11   13 1   
    20   11   43 1   
    21   12   44 1   
    22   12   45 1   
    23   12   46 1   
    24   13   14 1   
    25   13   47 1   
    26   13   48 1   
    27   14   15 1   
    28   14   49 1   
    29   14   50 1   
    30   15   16 1   
    31   15   17 1   
    32   15   51 1   
    33   16   52 1   
    34   16   53 1   
    35   16   54 1   
    36   17   18 1   
    37   17   55 1   
    38   17   79 1   
    39   18   19 2   
    40   18   20 1   
    41   20   21 1   
    42   20   24 1   
    43   20   56 1   
    44   21   22 1   
    45   21   23 1   
    46   21   57 1   
    47   22   58 1   
    48   22   59 1   
    49   22   60 1   
    50   23   61 1   
    51   23   62 1   
    52   23   63 1   
    53   24   25 1   
    54   24   80 1   
    55   25   26 2   
    56   25   27 1   
    57   27   28 1   
    58   27   29 1   
    59   27   81 1   
    60   28   65 1   
    61   28   66 1   
    62   28   67 1   
    63   29   30 1   
    64   29   68 1   
    65   29   69 1   
    66   30   31 1   
    67   30   32 2   
    68   31   34 2   
    69   31   64 1   
    70   32   33 1   
    71   32   70 1   
    72   33   34 1   
    73   34   35 1   
    74   35   36 1   
    75   35   37 1   
    76   35   71 1   
    77   36   72 1   
    78   36   73 1   
    79   36   74 1   
    80   37   75 1   
    81   37   76 1   
    82   37   77 1   
@<TRIPOS>SUBSTRUCTURE
     1 5AW         1 TEMP              0 ****  ****    0 ROOT
