@<TRIPOS>MOLECULE
5AW
   77    78     1     0     0
SMALL
bcc


@<TRIPOS>ATOM
      1 O25        -6.0350   -1.8830   -1.7860 o         1 5AW     -0.588000
      2 C24        -5.1800   -0.9910   -1.6510 c         1 5AW      0.728100
      3 O26        -5.5250    0.3070   -1.9840 os        1 5AW     -0.449900
      4 C27        -6.9000    0.4810   -2.3870 c3        1 5AW      0.232700
      5 C28        -7.0690    1.8960   -2.7630 cc        1 5AW     -0.214700
      6 S32        -7.0030    3.2150   -1.7170 ss        1 5AW     -0.049300
      7 C31        -7.3410    4.2800   -3.0000 cc        1 5AW      0.359300
      8 N30        -7.5020    3.7050   -4.1910 nd        1 5AW     -0.629000
      9 C29        -7.3430    2.3380   -4.0580 cd        1 5AW      0.345200
     10 N23        -3.9040   -1.0850   -1.1300 n         1 5AW     -0.516900
     11 C21        -3.2470   -2.3820   -1.0970 c3        1 5AW      0.092700
     12 C22        -2.5230   -2.7280   -2.4000 c3        1 5AW     -0.127100
     13 C20        -2.2380   -2.4670    0.0600 c3        1 5AW     -0.084400
     14 C19        -2.9130   -2.4090    1.4100 c3        1 5AW     -0.092400
     15 C17        -1.9320   -2.7090    2.5580 c3        1 5AW      0.094700
     16 C18        -2.7400   -2.8780    3.8480 c3        1 5AW     -0.110100
     17 N16        -0.9010   -1.7020    2.6870 n         1 5AW     -0.559900
     18 C14         0.4400   -1.9810    2.6000 c         1 5AW      0.634100
     19 O15         0.8650   -3.1400    2.4060 o         1 5AW     -0.628100
     20 C13         1.4240   -0.7870    2.7370 c3        1 5AW      0.028700
     21 C33         1.9450   -0.7130    4.1920 c3        1 5AW     -0.060700
     22 C35         0.7830   -0.5490    5.1490 c3        1 5AW     -0.101100
     23 C34         2.7910   -1.9070    4.5730 c3        1 5AW     -0.101100
     24 N12         2.5070   -0.8920    1.7840 n         1 5AW     -0.519900
     25 C10         2.3460   -0.2820    0.5200 c         1 5AW      0.745100
     26 O11         1.4640    0.6000    0.3580 o         1 5AW     -0.651100
     27 N08         3.1750   -0.6620   -0.5620 n         1 5AW     -0.438800
     28 C09         4.2830   -1.5540   -0.3440 c3        1 5AW      0.063300
     29 C07         3.2850    0.2740   -1.6590 c3        1 5AW      0.064700
     30 C06         4.3370    1.3370   -1.5140 cc        1 5AW      0.298600
     31 N05         5.6880    1.0180   -1.4020 nc        1 5AW     -0.637000
     32 C36         4.0590    2.6990   -1.5020 cd        1 5AW     -0.234400
     33 S37         5.4640    3.5860   -1.3610 ss        1 5AW     -0.093300
     34 C04         6.4070    2.1380   -1.3130 cd        1 5AW      0.402700
     35 C02         7.8950    2.1800   -1.1850 c3        1 5AW     -0.098000
     36 C03         8.5530    1.6860   -2.4600 c3        1 5AW     -0.096600
     37 C01         8.3670    3.5800   -0.8470 c3        1 5AW     -0.096600
     38 H1         -7.1100   -0.2020   -3.2540 h1        1 5AW      0.068700
     39 H2         -7.5600    0.1930   -1.5240 h1        1 5AW      0.068700
     40 H3         -7.4210    5.3640   -2.8760 h5        1 5AW      0.055100
     41 H4         -7.4410    1.7020   -4.9460 h4        1 5AW      0.048100
     42 H5         -3.3150   -0.2910   -1.2460 hn        1 5AW      0.316500
     43 H6         -4.0580   -3.1550   -0.9260 h1        1 5AW      0.085700
     44 H7         -1.6800   -2.0210   -2.5900 hc        1 5AW      0.046367
     45 H8         -2.1090   -3.7620   -2.3250 hc        1 5AW      0.046367
     46 H9         -3.2270   -2.6910   -3.2650 hc        1 5AW      0.046367
     47 H10        -1.6890   -3.4410   -0.0440 hc        1 5AW      0.057700
     48 H11        -1.4800   -1.6460   -0.0330 hc        1 5AW      0.057700
     49 H12        -3.3860   -1.4050    1.5650 hc        1 5AW      0.052700
     50 H13        -3.7320   -3.1750    1.4540 hc        1 5AW      0.052700
     51 H14        -1.4150   -3.6930    2.3360 h1        1 5AW      0.088700
     52 H15        -3.3280   -1.9570    4.0760 hc        1 5AW      0.041700
     53 H16        -3.4490   -3.7310    3.7240 hc        1 5AW      0.041700
     54 H17        -2.0680   -3.0970    4.7120 hc        1 5AW      0.041700
     55 H18        -1.1970   -0.7660    2.8270 hn        1 5AW      0.312500
     56 H19         0.8760    0.1830    2.5250 h1        1 5AW      0.099700
     57 H20         2.5870    0.2130    4.2590 hc        1 5AW      0.064700
     58 H21         0.2020   -1.4990    5.2370 hc        1 5AW      0.042700
     59 H22         1.1660   -0.2800    6.1630 hc        1 5AW      0.042700
     60 H23         0.0960    0.2610    4.8040 hc        1 5AW      0.042700
     61 H24         3.7820   -1.8710    4.0610 hc        1 5AW      0.042700
     62 H25         2.9690   -1.9120    5.6760 hc        1 5AW      0.042700
     63 H26         2.2810   -2.8610    4.2900 hc        1 5AW      0.042700
     64 H27         2.9840   -1.7700    1.8200 hn        1 5AW      0.311500
     65 H28         3.8930   -2.5550   -0.0150 h1        1 5AW      0.048033
     66 H29         4.8440   -1.6930   -1.3060 h1        1 5AW      0.048033
     67 H30         5.0020   -1.1660    0.4270 h1        1 5AW      0.048033
     68 H31         3.5090   -0.3290   -2.5880 h1        1 5AW      0.079200
     69 H32         2.2870    0.7850   -1.7930 h1        1 5AW      0.079200
     70 H33         3.0620    3.1320   -1.5600 h4        1 5AW      0.189000
     71 H34         8.1940    1.4900   -0.3410 hc        1 5AW      0.075700
     72 H35         9.6640    1.6940   -2.3370 hc        1 5AW      0.043700
     73 H36         8.2260    0.6440   -2.6900 hc        1 5AW      0.043700
     74 H37         8.2870    2.3420   -3.3220 hc        1 5AW      0.043700
     75 H38         8.0690    4.3040   -1.6450 hc        1 5AW      0.043700
     76 H39         7.9340    3.9190    0.1250 hc        1 5AW      0.043700
     77 H40         9.4810    3.5920   -0.7610 hc        1 5AW      0.043700
@<TRIPOS>BOND
     1    1    2 2   
     2    2    3 1   
     3    2   10 1   
     4    3    4 1   
     5    4    5 1   
     6    4   38 1   
     7    4   39 1   
     8    5    6 1   
     9    5    9 2   
    10    6    7 1   
    11    7    8 2   
    12    7   40 1   
    13    8    9 1   
    14    9   41 1   
    15   10   11 1   
    16   10   42 1   
    17   11   12 1   
    18   11   13 1   
    19   11   43 1   
    20   12   44 1   
    21   12   45 1   
    22   12   46 1   
    23   13   14 1   
    24   13   47 1   
    25   13   48 1   
    26   14   15 1   
    27   14   49 1   
    28   14   50 1   
    29   15   16 1   
    30   15   17 1   
    31   15   51 1   
    32   16   52 1   
    33   16   53 1   
    34   16   54 1   
    35   17   18 1   
    36   17   55 1   
    37   18   19 2   
    38   18   20 1   
    39   20   21 1   
    40   20   24 1   
    41   20   56 1   
    42   21   22 1   
    43   21   23 1   
    44   21   57 1   
    45   22   58 1   
    46   22   59 1   
    47   22   60 1   
    48   23   61 1   
    49   23   62 1   
    50   23   63 1   
    51   24   25 1   
    52   24   64 1   
    53   25   26 2   
    54   25   27 1   
    55   27   28 1   
    56   27   29 1   
    57   28   65 1   
    58   28   66 1   
    59   28   67 1   
    60   29   30 1   
    61   29   68 1   
    62   29   69 1   
    63   30   31 1   
    64   30   32 2   
    65   31   34 2   
    66   32   33 1   
    67   32   70 1   
    68   33   34 1   
    69   34   35 1   
    70   35   36 1   
    71   35   37 1   
    72   35   71 1   
    73   36   72 1   
    74   36   73 1   
    75   36   74 1   
    76   37   75 1   
    77   37   76 1   
    78   37   77 1   
@<TRIPOS>SUBSTRUCTURE
     1 5AW         1 TEMP              0 ****  ****    0 ROOT
