@<TRIPOS>MOLECULE
5AW
   81    82     1     0     0
SMALL
bcc


@<TRIPOS>ATOM
      1 O25         1.8220    0.6340    2.3860 o         1 5AW     -0.424000
      2 C24         1.0530   -0.2610    2.0750 c         1 5AW      0.635100
      3 O26         0.1960   -0.9500    2.8210 os        1 5AW     -0.406900
      4 C27        -0.1430   -0.4260    4.1760 c3        1 5AW      0.273700
      5 C28        -1.1270    0.6380    4.0830 cc        1 5AW     -0.377700
      6 S32        -0.9520    2.2050    4.6720 ss        1 5AW      0.040700
      7 C31        -2.5380    2.5820    4.2260 cc        1 5AW      0.404300
      8 N30        -3.2260    1.5890    3.6480 nd        1 5AW     -0.610000
      9 C29        -2.4320    0.4710    3.5820 cd        1 5AW      0.400200
     10 N23         1.0200   -0.7770    0.6420 ny        1 5AW     -0.663800
     11 C21         2.4030   -1.1280    0.1480 c3        1 5AW      0.136500
     12 C22         2.8340   -2.4830    0.6950 c3        1 5AW     -0.137100
     13 C20         2.4630   -1.1040   -1.3890 c3        1 5AW     -0.102400
     14 C19         3.8980   -1.2470   -1.8740 c3        1 5AW     -0.102400
     15 C17         3.9840   -1.0240   -3.3940 c3        1 5AW      0.137500
     16 C18         3.2040   -2.0860   -4.1530 c3        1 5AW     -0.143100
     17 N16         5.4440   -1.0090   -3.8450 ny        1 5AW     -0.679800
     18 C14         5.6520   -0.4030   -5.2070 c         1 5AW      0.525100
     19 O15         4.8450    0.4300   -5.5870 o         1 5AW     -0.382100
     20 C13         6.8810   -0.8900   -6.0140 c3        1 5AW      0.050700
     21 C33         6.5290   -2.1980   -6.7750 c3        1 5AW     -0.089700
     22 C35         6.3160   -3.3500   -5.8190 c3        1 5AW     -0.126600
     23 C34         5.3460   -2.0300   -7.7010 c3        1 5AW     -0.126600
     24 N12         7.2970    0.1890   -6.9090 ns        1 5AW     -0.527900
     25 C10         8.6260    0.3670   -7.2220 c         1 5AW      0.659100
     26 O11         9.5840   -0.2080   -6.6900 o         1 5AW     -0.515100
     27 N08         8.9760    1.4190   -8.2860 nx        1 5AW     -0.577200
     28 C09         8.8630    0.8160   -9.6400 c3        1 5AW      0.077100
     29 C07        10.3260    2.0470   -8.0270 c3        1 5AW      0.196100
     30 C06        11.5080    1.4010   -8.6610 cc        1 5AW     -0.142600
     31 N05        12.1680    0.2910   -8.1160 na        1 5AW     -0.097100
     32 C36        12.2120    1.9180   -9.7470 cd        1 5AW     -0.192100
     33 S37        13.6110    1.0900  -10.0510 ss        1 5AW      0.482200
     34 C04        13.3310    0.0280   -8.7810 cc        1 5AW     -0.008700
     35 C02        14.2910   -1.0650   -8.4230 c3        1 5AW     -0.036400
     36 C03        13.5930   -2.3960   -8.2260 c3        1 5AW     -0.119100
     37 C01        15.3590   -1.1640   -9.4970 c3        1 5AW     -0.119100
     38 H1          0.8120   -0.1200    4.6730 h1        1 5AW      0.114200
     39 H2         -0.5620   -1.3790    4.6160 h1        1 5AW      0.114200
     40 H3         -3.0090    3.5610    4.4020 h5        1 5AW      0.090100
     41 H4         -2.8500   -0.4580    3.1730 h4        1 5AW      0.055100
     42 H5          0.4100   -1.6060    0.6050 hn        1 5AW      0.471300
     43 H6          3.0890   -0.3210    0.5570 hx        1 5AW      0.126700
     44 H7          2.6870   -2.5420    1.8050 hc        1 5AW      0.086033
     45 H8          3.9260   -2.6230    0.4970 hc        1 5AW      0.086033
     46 H9          2.2690   -3.3200    0.2150 hc        1 5AW      0.086033
     47 H10         1.8420   -1.9460   -1.7990 hc        1 5AW      0.079700
     48 H11         2.0390   -0.1380   -1.7780 hc        1 5AW      0.079700
     49 H12         4.5410   -0.4980   -1.3350 hc        1 5AW      0.080200
     50 H13         4.2730   -2.2760   -1.6200 hc        1 5AW      0.080200
     51 H14         3.5720    0.0030   -3.6440 hx        1 5AW      0.131700
     52 H15         3.4990   -3.1190   -3.8440 hc        1 5AW      0.090033
     53 H16         2.1130   -1.9520   -3.9310 hc        1 5AW      0.090033
     54 H17         3.3300   -1.9780   -5.2590 hc        1 5AW      0.090033
     55 H18         5.7970   -1.9770   -3.8460 hn        1 5AW      0.470800
     56 H19         7.7400   -1.1050   -5.3050 h1        1 5AW      0.126700
     57 H20         7.4400   -2.4480   -7.3990 hc        1 5AW      0.096700
     58 H21         6.4170   -4.3160   -6.3850 hc        1 5AW      0.068867
     59 H22         7.0800   -3.3630   -5.0050 hc        1 5AW      0.068867
     60 H23         5.2850   -3.3420   -5.3860 hc        1 5AW      0.068867
     61 H24         4.4490   -1.6490   -7.1550 hc        1 5AW      0.068867
     62 H25         5.5770   -1.3280   -8.5380 hc        1 5AW      0.068867
     63 H26         5.0800   -3.0200   -8.1550 hc        1 5AW      0.068867
     64 H27        11.8400   -0.2240   -7.3200 hn        1 5AW      0.361700
     65 H28         7.7980    0.5060   -9.8280 hx        1 5AW      0.122367
     66 H29         9.5390   -0.0770   -9.7170 hx        1 5AW      0.122367
     67 H30         9.1640    1.5810  -10.4110 hx        1 5AW      0.122367
     68 H31        10.2630    3.1070   -8.4340 hx        1 5AW      0.147200
     69 H32        10.4670    2.1020   -6.9040 hx        1 5AW      0.147200
     70 H33        11.8920    2.7990  -10.3240 h4        1 5AW      0.243000
     71 H34        14.7870   -0.7690   -7.4460 hc        1 5AW      0.125700
     72 H35        14.3630   -3.1770   -7.9950 hc        1 5AW      0.075533
     73 H36        13.0530   -2.7100   -9.1520 hc        1 5AW      0.075533
     74 H37        12.8750   -2.3550   -7.3730 hc        1 5AW      0.075533
     75 H38        14.9470   -1.5910  -10.4440 hc        1 5AW      0.075533
     76 H39        15.8230   -0.1660   -9.7040 hc        1 5AW      0.075533
     77 H40        16.1760   -1.8480   -9.1440 hc        1 5AW      0.075533
     78 H232        0.6130   -0.0370    0.0600 hn        1 5AW      0.471300
     79 H162        5.9870   -0.4620   -3.1630 hn        1 5AW      0.470800
     80 H122        6.5740    0.5760   -7.4850 hn        1 5AW      0.366500
     81 H081        8.2930    2.1940   -8.2230 hn        1 5AW      0.476800
@<TRIPOS>BOND
     1    1    2 2   
     2    2    3 1   
     3    2   10 1   
     4    3    4 1   
     5    4    5 1   
     6    4   38 1   
     7    4   39 1   
     8    5    6 1   
     9    5    9 2   
    10    6    7 1   
    11    7    8 2   
    12    7   40 1   
    13    8    9 1   
    14    9   41 1   
    15   10   11 1   
    16   10   42 1   
    17   10   78 1   
    18   11   12 1   
    19   11   13 1   
    20   11   43 1   
    21   12   44 1   
    22   12   45 1   
    23   12   46 1   
    24   13   14 1   
    25   13   47 1   
    26   13   48 1   
    27   14   15 1   
    28   14   49 1   
    29   14   50 1   
    30   15   16 1   
    31   15   17 1   
    32   15   51 1   
    33   16   52 1   
    34   16   53 1   
    35   16   54 1   
    36   17   18 1   
    37   17   55 1   
    38   17   79 1   
    39   18   19 2   
    40   18   20 1   
    41   20   21 1   
    42   20   24 1   
    43   20   56 1   
    44   21   22 1   
    45   21   23 1   
    46   21   57 1   
    47   22   58 1   
    48   22   59 1   
    49   22   60 1   
    50   23   61 1   
    51   23   62 1   
    52   23   63 1   
    53   24   25 1   
    54   24   80 1   
    55   25   26 2   
    56   25   27 1   
    57   27   28 1   
    58   27   29 1   
    59   27   81 1   
    60   28   65 1   
    61   28   66 1   
    62   28   67 1   
    63   29   30 1   
    64   29   68 1   
    65   29   69 1   
    66   30   31 1   
    67   30   32 2   
    68   31   34 2   
    69   31   64 1   
    70   32   33 1   
    71   32   70 1   
    72   33   34 1   
    73   34   35 1   
    74   35   36 1   
    75   35   37 1   
    76   35   71 1   
    77   36   72 1   
    78   36   73 1   
    79   36   74 1   
    80   37   75 1   
    81   37   76 1   
    82   37   77 1   
@<TRIPOS>SUBSTRUCTURE
     1 5AW         1 TEMP              0 ****  ****    0 ROOT
