@<TRIPOS>MOLECULE
5AW
   77    72     1     0     0
SMALL
bcc


@<TRIPOS>ATOM
      1 O25        -5.8650    0.5590    5.3780 o         1 5AW     -0.408000
      2 C24        -6.2500    0.1660    4.2770 c1        1 5AW      0.389000
      3 O26        -7.6870   -0.1240    4.0510 os        1 5AW     -0.286000
      4 C27        -8.4980   -0.1000    5.2510 c3        1 5AW      0.076000
      5 C28        -9.9300   -0.4730    4.9010 c2        1 5AW     -0.415000
      6 S32       -11.0450    0.5130    4.4580 ss        1 5AW      0.535000
      7 C31       -12.3750   -0.2820    4.3980 c1        1 5AW     -0.352000
      8 N30       -12.0930   -1.6530    4.7750 n2        1 5AW     -0.103000
      9 C29       -10.5450   -1.7780    5.0950 c1        1 5AW     -0.116000
     10 N23        -5.3000    0.0610    3.1610 n2        1 5AW     -0.332000
     11 C21        -4.2270   -0.8500    3.2310 c3        1 5AW      0.020000
     12 C22        -4.7610   -2.2620    3.2390 c3        1 5AW     -0.244000
     13 C20        -3.3140   -0.6570    2.0170 c3        1 5AW     -0.162000
     14 C19        -1.8460   -1.0220    2.4030 c3        1 5AW     -0.180000
     15 C17        -1.1460   -1.6170    1.2220 c3        1 5AW      0.019000
     16 C18        -1.4180   -3.0590    1.1710 c3        1 5AW     -0.223000
     17 N16         0.3170   -1.3910    1.3510 n3        1 5AW     -0.366000
     18 C14         1.2230   -1.9010    0.3380 c1        1 5AW      0.275000
     19 O15         0.8340   -2.6910   -0.4670 o         1 5AW     -0.382000
     20 C13         2.6960   -1.4250    0.3020 c2        1 5AW      0.010000
     21 C33         3.6010   -2.5650    0.6600 c3        1 5AW     -0.099000
     22 C35         3.8780   -2.5520    2.2180 c3        1 5AW     -0.219000
     23 C34         2.9160   -3.9080    0.2730 c3        1 5AW     -0.219000
     24 N12         3.0060   -0.9680   -0.9920 n         1 5AW     -0.340000
     25 C10         4.0240    0.0320   -1.1780 c2        1 5AW      0.378000
     26 O11         4.7860    0.2960   -0.2740 o         1 5AW     -0.415000
     27 N08         4.1090    0.7520   -2.4250 n         1 5AW     -0.300000
     28 C09         4.4300    0.0460   -3.6540 c3        1 5AW     -0.087000
     29 C07         3.9130    2.1790   -2.4440 c3        1 5AW      0.048000
     30 C06         4.3760    2.7280   -3.7660 c2        1 5AW     -0.123000
     31 N05         5.7290    3.4900   -4.0240 n2        1 5AW     -0.117000
     32 C36         3.6120    2.7290   -4.9970 c1        1 5AW     -0.454000
     33 S37         4.4390    3.4820   -6.0720 ss        1 5AW      0.504000
     34 C04         5.7520    3.9360   -5.4110 c1        1 5AW     -0.263000
     35 C02         6.8440    4.9010   -6.0620 c2        1 5AW     -0.041000
     36 C03         7.1880    4.4080   -7.5160 c3        1 5AW     -0.218000
     37 C01         6.2860    6.3500   -6.1190 c3        1 5AW     -0.218000
     38 H1         -8.1430   -0.7400    5.8980 h1        1 5AW      0.107500
     39 H2         -8.4810    0.7830    5.6320 h1        1 5AW      0.107500
     40 H3        -13.2530    0.0780    4.1480 DU        1 5AW      0.187333
     41 H4        -10.0830   -2.5870    5.3720 DU        1 5AW      0.187333
     42 H5         -5.4220    0.5620    2.4110 hn        1 5AW      0.230000
     43 H6         -3.7260   -0.6940    4.0400 h1        1 5AW      0.130000
     44 H7         -5.0670   -2.5000    2.3430 hc        1 5AW      0.085333
     45 H8         -5.5090   -2.3240    3.8670 hc        1 5AW      0.085333
     46 H9         -4.0620   -2.8700    3.5110 hc        1 5AW      0.085333
     47 H10        -3.3510    0.2980    1.7200 hc        1 5AW      0.091500
     48 H11        -3.6180   -1.2390    1.2860 hc        1 5AW      0.091500
     49 H12        -1.3810   -0.2290    2.6800 hc        1 5AW      0.091000
     50 H13        -1.8550   -1.6820    3.1540 hc        1 5AW      0.091000
     51 H14        -1.4790   -1.1840    0.3860 h1        1 5AW      0.129000
     52 H15        -0.8450   -3.5180    1.8080 hc        1 5AW      0.080667
     53 H16        -2.3580   -3.2210    1.4020 hc        1 5AW      0.080667
     54 H17        -1.2420   -3.3930    0.2760 hc        1 5AW      0.080667
     55 H18         0.6410   -0.9020    2.0440 hn        1 5AW      0.225000
     56 H19         2.8160   -0.7140    0.9290 h4        1 5AW      0.137000
     57 H20         4.4770   -2.4720    0.1590 hc        1 5AW      0.102000
     58 H21         3.0300   -2.7790    2.7110 hc        1 5AW      0.082000
     59 H22         4.5560   -3.2020    2.4300 hc        1 5AW      0.082000
     60 H23         4.1900   -1.6490    2.4930 hc        1 5AW      0.082000
     61 H24         2.6870   -3.8940   -0.6590 hc        1 5AW      0.082000
     62 H25         2.1150   -4.0220    0.7990 hc        1 5AW      0.082000
     63 H26         3.5240   -4.6470    0.4450 hc        1 5AW      0.082000
     64 H27         2.6240   -1.3580   -1.7090 hn        1 5AW      0.227000
     65 H28         4.7990    0.6810   -4.3120 h1        1 5AW      0.086333
     66 H29         5.0880   -0.6480   -3.4670 h1        1 5AW      0.086333
     67 H30         3.6160   -0.3660   -4.0180 h1        1 5AW      0.086333
     68 H31         4.4310    2.5910   -1.7170 h1        1 5AW      0.117500
     69 H32         2.9610    2.3800   -2.3200 h1        1 5AW      0.117500
     70 H33         2.6990    2.3150   -5.1300 DU        1 5AW      0.187333
     71 H34         7.6590    4.8860   -5.5120 ha        1 5AW      0.107000
     72 H35         6.3660    4.4050   -8.0690 hc        1 5AW      0.086667
     73 H36         7.8660    5.0250   -7.9280 hc        1 5AW      0.086667
     74 H37         7.5520    3.5080   -7.4770 hc        1 5AW      0.086667
     75 H38         6.0240    6.6320   -5.2250 hc        1 5AW      0.086667
     76 H39         5.5100    6.3780   -6.7070 hc        1 5AW      0.086667
     77 H40         6.9880    6.9630   -6.4660 hc        1 5AW      0.086667
@<TRIPOS>BOND
     1    1    2 1   
     2    2    3 1   
     3    3    4 1   
     4    4    5 1   
     5    4   38 1   
     6    4   39 1   
     7    5    6 1   
     8    5    9 1   
     9    6    7 1   
    10    7    8 1   
    11    8    9 1   
    12   10   11 1   
    13   10   42 1   
    14   11   12 1   
    15   11   13 1   
    16   11   43 1   
    17   12   44 1   
    18   12   45 1   
    19   12   46 1   
    20   13   14 1   
    21   13   47 1   
    22   13   48 1   
    23   14   15 1   
    24   14   49 1   
    25   14   50 1   
    26   15   16 1   
    27   15   17 1   
    28   15   51 1   
    29   16   52 1   
    30   16   53 1   
    31   16   54 1   
    32   17   18 1   
    33   17   55 1   
    34   18   19 1   
    35   20   21 1   
    36   20   24 1   
    37   20   56 1   
    38   21   22 1   
    39   21   23 1   
    40   21   57 1   
    41   22   58 1   
    42   22   59 1   
    43   22   60 1   
    44   23   61 1   
    45   23   62 1   
    46   23   63 1   
    47   24   25 1   
    48   24   64 1   
    49   25   26 1   
    50   25   27 1   
    51   27   28 1   
    52   27   29 1   
    53   28   65 1   
    54   28   66 1   
    55   28   67 1   
    56   29   30 1   
    57   29   68 1   
    58   29   69 1   
    59   30   31 1   
    60   30   32 1   
    61   31   34 1   
    62   32   33 1   
    63   33   34 1   
    64   35   36 1   
    65   35   37 1   
    66   35   71 1   
    67   36   72 1   
    68   36   73 1   
    69   36   74 1   
    70   37   75 1   
    71   37   76 1   
    72   37   77 1   
@<TRIPOS>SUBSTRUCTURE
     1 5AW         1 TEMP              0 ****  ****    0 ROOT
