@<TRIPOS>MOLECULE
5AX
   29    28     1     0     0
SMALL
bcc


@<TRIPOS>ATOM
      1 C4         -0.1160    0.9510   -1.5080 c3        1 5AX     -0.034000
      2 C5          1.4840    0.9510   -1.5080 c3        1 5AX     -0.046000
      3 C6          1.9570    2.0350   -2.0970 c3        1 5AX     -0.012000
      4 C7         -1.4850   -1.2150    2.6410 c1        1 5AX      0.295000
      5 C8         -2.0230   -2.4400    3.3460 c2        1 5AX     -0.242000
      6 C1          1.1610   -0.0910    0.8120 c3        1 5AX     -0.037000
      7 C2         -0.2750   -0.0940    0.6710 c3        1 5AX      0.002000
      8 C3         -0.7270   -0.1100   -0.6590 c3        1 5AX     -0.013000
      9 N2         -0.8310   -1.3460    1.3890 n3        1 5AX     -0.365000
     10 O3         -2.2190    0.0770   -0.6590 oh        1 5AX     -0.332000
     11 O4         -0.5620    0.7780   -2.8280 oh        1 5AX     -0.319000
     12 O5          1.8290    0.9510    0.0330 os        1 5AX     -0.266000
     13 O6          3.3610    2.0650   -1.9700 oh        1 5AX     -0.323000
     14 O7         -1.6070   -0.1190    3.1500 o         1 5AX     -0.366000
     15 H4         -0.4260    1.8200   -1.1880 h1        1 5AX      0.144000
     16 H5          1.8290    0.1450   -1.9380 h1        1 5AX      0.092000
     17 H61         1.5750    2.8270   -1.6750 h1        1 5AX      0.102500
     18 H62         1.7160    2.0220   -3.0430 h1        1 5AX      0.102500
     19 H81        -2.7000   -2.8660    2.7870 ha        1 5AX      0.107000
     20 H82        -2.4230   -2.1770    4.1970 ha        1 5AX      0.107000
     21 H83        -1.2940   -3.0690    3.5090 ha        1 5AX      0.107000
     22 H11         1.5030   -0.9590    0.5270 h1        1 5AX      0.114000
     23 H12         1.3810    0.0370    1.7550 h1        1 5AX      0.114000
     24 H2         -0.6320    0.7020    1.1100 h1        1 5AX      0.114000
     25 H3         -0.5200   -0.9810   -1.0490 h1        1 5AX      0.082000
     26 HN2        -0.7090   -2.1730    1.0230 hn        1 5AX      0.230000
     27 HO3        -2.5810   -0.4330   -1.2890 ho        1 5AX      0.224000
     28 HO4        -0.3480   -0.0370   -3.1080 ho        1 5AX      0.204000
     29 HO6         3.6850    2.7510   -2.4310 ho        1 5AX      0.213000
@<TRIPOS>BOND
     1    1    2 1   
     2    1    8 1   
     3    1   11 1   
     4    1   15 1   
     5    2    3 1   
     6    2   12 1   
     7    2   16 1   
     8    3   13 1   
     9    3   17 1   
    10    3   18 1   
    11    4    9 1   
    12    4   14 1   
    13    5   19 1   
    14    5   20 1   
    15    5   21 1   
    16    6    7 1   
    17    6   12 1   
    18    6   22 1   
    19    6   23 1   
    20    7    8 1   
    21    7    9 1   
    22    7   24 1   
    23    8   10 1   
    24    8   25 1   
    25    9   26 1   
    26   10   27 1   
    27   11   28 1   
    28   13   29 1   
@<TRIPOS>SUBSTRUCTURE
     1 5AX         1 TEMP              0 ****  ****    0 ROOT
