@<TRIPOS>MOLECULE
5AX
   30    30     1     0     0
SMALL
bcc


@<TRIPOS>ATOM
      1 C4         -0.0880   -0.3310   -0.0270 c3        1 5AX      0.089100
      2 C5          1.3810    0.1000    0.0620 c3        1 5AX      0.049100
      3 C6          1.5590    1.5640   -0.3670 c3        1 5AX      0.139400
      4 C7          0.1760   -2.9010    4.2190 c         1 5AX      0.557100
      5 C8         -1.1080   -2.6200    4.9180 c3        1 5AX     -0.187100
      6 C1          1.7680   -1.2680    1.9710 c3        1 5AX      0.115400
      7 C2          0.2880   -1.7100    2.0260 c3        1 5AX      0.074500
      8 C3         -0.2500   -1.7420    0.5760 c3        1 5AX      0.090100
      9 N2          0.0900   -3.0300    2.7070 ny        1 5AX     -0.678800
     10 O3         -1.6040   -2.1450    0.6450 oh        1 5AX     -0.629800
     11 O4         -0.5950   -0.3390   -1.3400 oh        1 5AX     -0.569800
     12 O5          1.8240    0.0330    1.4240 os        1 5AX     -0.377600
     13 O6          2.8850    1.7940   -0.7710 oh        1 5AX     -0.574800
     14 O7          1.2890   -3.0590    4.6920 o         1 5AX     -0.401100
     15 H4         -0.7490    0.3960    0.5280 h1        1 5AX      0.110700
     16 H5          2.0280   -0.5670   -0.5750 h1        1 5AX      0.074700
     17 H61         1.2530    2.2480    0.4670 h1        1 5AX      0.078200
     18 H62         0.9300    1.7520   -1.2800 h1        1 5AX      0.078200
     19 H81        -1.6690   -1.7810    4.4360 hc        1 5AX      0.118033
     20 H82        -0.8810   -2.3440    5.9830 hc        1 5AX      0.118033
     21 H83        -1.7520   -3.5390    4.9180 hc        1 5AX      0.118033
     22 H11         2.3730   -1.9890    1.3600 h1        1 5AX      0.085200
     23 H12         2.2060   -1.1630    3.0020 h1        1 5AX      0.085200
     24 H2         -0.3090   -0.9440    2.6090 hx        1 5AX      0.122700
     25 H3          0.3200   -2.4920   -0.0420 h1        1 5AX      0.065700
     26 HN2         0.8050   -3.6880    2.3750 hn        1 5AX      0.468800
     27 HO3        -2.0620   -1.7790   -0.1300 ho        1 5AX      0.469000
     28 HO4         0.0890   -0.6780   -1.9350 ho        1 5AX      0.425000
     29 HO6         3.4280    1.8550    0.0260 ho        1 5AX      0.416000
     30 H22        -0.8410   -3.3850    2.4410 hn        1 5AX      0.468800
@<TRIPOS>BOND
     1    1    2 1   
     2    1    8 1   
     3    1   11 1   
     4    1   15 1   
     5    2    3 1   
     6    2   12 1   
     7    2   16 1   
     8    3   13 1   
     9    3   17 1   
    10    3   18 1   
    11    4    5 1   
    12    4    9 1   
    13    4   14 2   
    14    5   19 1   
    15    5   20 1   
    16    5   21 1   
    17    6    7 1   
    18    6   12 1   
    19    6   22 1   
    20    6   23 1   
    21    7    8 1   
    22    7    9 1   
    23    7   24 1   
    24    8   10 1   
    25    8   25 1   
    26    9   26 1   
    27    9   30 1   
    28   10   27 1   
    29   11   28 1   
    30   13   29 1   
@<TRIPOS>SUBSTRUCTURE
     1 5AX         1 TEMP              0 ****  ****    0 ROOT
