@<TRIPOS>MOLECULE
5AX
   30    30     1     0     0
SMALL
bcc


@<TRIPOS>ATOM
      1 C4          0.0770   -0.3270    0.0130 c3        1 5AX      0.102100
      2 C5          1.4890    0.2200    0.2810 c3        1 5AX      0.053100
      3 C6          1.5860    1.7140   -0.0700 c3        1 5AX      0.131400
      4 C7          0.0430   -2.9180    4.2530 c         1 5AX      0.557100
      5 C8         -1.3190   -2.7020    4.8120 c3        1 5AX     -0.187100
      6 C1          1.7680   -1.1750    2.1860 c3        1 5AX      0.118400
      7 C2          0.3170   -1.6980    2.0910 c3        1 5AX      0.072500
      8 C3         -0.0670   -1.7480    0.5940 c3        1 5AX      0.126100
      9 N2          0.1250   -3.0360    2.7400 n4        1 5AX     -0.678800
     10 O3         -1.4020   -2.2130    0.5300 oh        1 5AX     -0.633800
     11 O4         -0.1630   -0.4880   -1.3710 oh        1 5AX     -0.604800
     12 O5          1.7980    0.1410    1.6780 os        1 5AX     -0.372600
     13 O6          1.3290    1.8910   -1.4440 oh        1 5AX     -0.596800
     14 O7          1.1060   -3.0330    4.8410 o         1 5AX     -0.402100
     15 H4         -0.6950    0.3540    0.4680 h1        1 5AX      0.072700
     16 H5          2.2410   -0.3710   -0.3110 h1        1 5AX      0.070700
     17 H61         2.5940    2.1050    0.2260 h1        1 5AX      0.079200
     18 H62         0.7850    2.2950    0.4620 h1        1 5AX      0.079200
     19 H81        -1.2200   -2.4230    5.8960 hc        1 5AX      0.118033
     20 H82        -1.9160   -3.6480    4.7420 hc        1 5AX      0.118033
     21 H83        -1.8640   -1.8850    4.2750 hc        1 5AX      0.118033
     22 H11         2.1020   -1.0740    3.2550 h1        1 5AX      0.084700
     23 H12         2.4660   -1.8450    1.6180 h1        1 5AX      0.084700
     24 H2         -0.3770   -0.9720    2.6130 hx        1 5AX      0.123700
     25 H3          0.6030   -2.4550    0.0280 h1        1 5AX      0.077700
     26 HN2         0.9080   -3.6480    2.4820 hn        1 5AX      0.468800
     27 HO3        -1.7370   -2.0090   -0.3580 ho        1 5AX      0.470000
     28 HO4        -0.1190    0.3920   -1.7810 ho        1 5AX      0.459000
     29 HO6         2.1440    1.7090   -1.9280 ho        1 5AX      0.422000
     30 H22        -0.7500   -3.4390    2.3750 hn        1 5AX      0.468800
@<TRIPOS>BOND
     1    1    2 1   
     2    1    8 1   
     3    1   11 1   
     4    1   15 1   
     5    2    3 1   
     6    2   12 1   
     7    2   16 1   
     8    3   13 1   
     9    3   17 1   
    10    3   18 1   
    11    4    5 1   
    12    4    9 1   
    13    4   14 2   
    14    5   19 1   
    15    5   20 1   
    16    5   21 1   
    17    6    7 1   
    18    6   12 1   
    19    6   22 1   
    20    6   23 1   
    21    7    8 1   
    22    7    9 1   
    23    7   24 1   
    24    8   10 1   
    25    8   25 1   
    26    9   26 1   
    27    9   30 1   
    28   10   27 1   
    29   11   28 1   
    30   13   29 1   
@<TRIPOS>SUBSTRUCTURE
     1 5AX         1 TEMP              0 ****  ****    0 ROOT
