@<TRIPOS>MOLECULE
5AX
   29    29     1     0     0
SMALL
bcc


@<TRIPOS>ATOM
      1 C4          2.0550    0.8840    2.4090 c3        1 5AX      0.080100
      2 C5          1.6870    1.6920    1.1570 c3        1 5AX      0.062100
      3 C6          2.6680    2.8440    0.9180 c3        1 5AX      0.137400
      4 C7          0.6920   -3.3910    0.2830 c         1 5AX      0.651100
      5 C8          0.0120   -4.7140    0.5360 c3        1 5AX     -0.174100
      6 C1          0.9240   -0.2610    0.0280 c3        1 5AX      0.116400
      7 C2          1.3090   -1.1890    1.2030 c3        1 5AX      0.076700
      8 C3          1.1700   -0.3710    2.5100 c3        1 5AX      0.134100
      9 N2          0.5150   -2.3970    1.2350 n         1 5AX     -0.554900
     10 O3          1.5910   -1.1930    3.5840 oh        1 5AX     -0.605800
     11 O4          1.7960    1.6180    3.5960 oh        1 5AX     -0.604800
     12 O5          1.7830    0.8700   -0.0070 os        1 5AX     -0.414600
     13 O6          2.2740    3.6280   -0.1850 oh        1 5AX     -0.592800
     14 O7          1.3420   -3.1780   -0.7590 o         1 5AX     -0.606100
     15 H4          3.1390    0.5830    2.3710 h1        1 5AX      0.063700
     16 H5          0.6390    2.0890    1.2530 h1        1 5AX      0.068700
     17 H61         3.7030    2.4390    0.7610 h1        1 5AX      0.050700
     18 H62         2.6540    3.5460    1.7940 h1        1 5AX      0.050700
     19 H81         0.2070   -5.3890   -0.3330 hc        1 5AX      0.067700
     20 H82         0.4150   -5.1880    1.4620 hc        1 5AX      0.067700
     21 H83        -1.0910   -4.5740    0.6460 hc        1 5AX      0.067700
     22 H11         1.1110   -0.7770   -0.9540 h1        1 5AX      0.075200
     23 H12        -0.1440    0.0670    0.1060 h1        1 5AX      0.075200
     24 H2          2.4010   -1.4640    1.0740 h1        1 5AX      0.074700
     25 H3          0.1010   -0.0580    2.6740 h1        1 5AX      0.057700
     26 HN2         0.1790   -2.6630    2.1330 hn        1 5AX      0.316500
     27 HO3         1.6100   -0.6300    4.3700 ho        1 5AX      0.426000
     28 HO4         2.3900    2.3770    3.5960 ho        1 5AX      0.413000
     29 HO6         2.2190    3.0370   -0.9480 ho        1 5AX      0.419000
@<TRIPOS>BOND
     1    1    2 1   
     2    1    8 1   
     3    1   11 1   
     4    1   15 1   
     5    2    3 1   
     6    2   12 1   
     7    2   16 1   
     8    3   13 1   
     9    3   17 1   
    10    3   18 1   
    11    4    5 1   
    12    4    9 1   
    13    4   14 2   
    14    5   19 1   
    15    5   20 1   
    16    5   21 1   
    17    6    7 1   
    18    6   12 1   
    19    6   22 1   
    20    6   23 1   
    21    7    8 1   
    22    7    9 1   
    23    7   24 1   
    24    8   10 1   
    25    8   25 1   
    26    9   26 1   
    27   10   27 1   
    28   11   28 1   
    29   13   29 1   
@<TRIPOS>SUBSTRUCTURE
     1 5AX         1 TEMP              0 ****  ****    0 ROOT
