@<TRIPOS>MOLECULE
5AX
   30    30     1     0     0
SMALL
bcc


@<TRIPOS>ATOM
      1 C4         -0.1260   -0.3140   -0.0050 c3        1 5AX      0.089100
      2 C5          1.3350    0.1450    0.0720 c3        1 5AX      0.049100
      3 C6          1.4760    1.6210   -0.3320 c3        1 5AX      0.139400
      4 C7          0.2530   -2.9560    4.1880 c         1 5AX      0.557100
      5 C8         -1.0260   -2.7140    4.9120 c3        1 5AX     -0.187100
      6 C1          1.7770   -1.2490    1.9490 c3        1 5AX      0.115400
      7 C2          0.3070   -1.7220    2.0160 c3        1 5AX      0.074500
      8 C3         -0.2510   -1.7390    0.5740 c3        1 5AX      0.090100
      9 N2          0.1460   -3.0590    2.6760 n4        1 5AX     -0.678800
     10 O3         -1.5950   -2.1710    0.6540 oh        1 5AX     -0.629800
     11 O4         -0.6520   -0.3080   -1.3100 oh        1 5AX     -0.569800
     12 O5          1.7980    0.0630    1.4250 os        1 5AX     -0.377600
     13 O6          2.7920    1.8850   -0.7500 oh        1 5AX     -0.574800
     14 O7          1.3760   -3.1000    4.6410 o         1 5AX     -0.401100
     15 H4         -0.7940    0.3890    0.5730 h1        1 5AX      0.110700
     16 H5          1.9860   -0.4960   -0.5870 h1        1 5AX      0.074700
     17 H61         1.1670    2.2830    0.5190 h1        1 5AX      0.078200
     18 H62         0.8300    1.8130   -1.2330 h1        1 5AX      0.078200
     19 H81        -1.6110   -1.8770    4.4540 hc        1 5AX      0.118033
     20 H82        -1.6510   -3.6450    4.9040 hc        1 5AX      0.118033
     21 H83        -0.7880   -2.4530    5.9780 hc        1 5AX      0.118033
     22 H11         2.2280   -1.1540    2.9750 h1        1 5AX      0.085200
     23 H12         2.3870   -1.9460    1.3160 h1        1 5AX      0.085200
     24 H2         -0.2960   -0.9800    2.6220 hx        1 5AX      0.122700
     25 H3          0.3260   -2.4660   -0.0660 h1        1 5AX      0.065700
     26 HN2         0.8690   -3.6960    2.3210 hn        1 5AX      0.468800
     27 HO3        -2.0710   -1.8010   -0.1070 ho        1 5AX      0.469000
     28 HO4         0.0300   -0.6220   -1.9210 ho        1 5AX      0.425000
     29 HO6         3.3440    1.9440    0.0410 ho        1 5AX      0.416000
     30 H22        -0.7810   -3.4280    2.4170 hn        1 5AX      0.468800
@<TRIPOS>BOND
     1    1    2 1   
     2    1    8 1   
     3    1   11 1   
     4    1   15 1   
     5    2    3 1   
     6    2   12 1   
     7    2   16 1   
     8    3   13 1   
     9    3   17 1   
    10    3   18 1   
    11    4    5 1   
    12    4    9 1   
    13    4   14 2   
    14    5   19 1   
    15    5   20 1   
    16    5   21 1   
    17    6    7 1   
    18    6   12 1   
    19    6   22 1   
    20    6   23 1   
    21    7    8 1   
    22    7    9 1   
    23    7   24 1   
    24    8   10 1   
    25    8   25 1   
    26    9   26 1   
    27    9   30 1   
    28   10   27 1   
    29   11   28 1   
    30   13   29 1   
@<TRIPOS>SUBSTRUCTURE
     1 5AX         1 TEMP              0 ****  ****    0 ROOT
