@<TRIPOS>MOLECULE
5AZ
   12    12     1     0     0
SMALL
bcc


@<TRIPOS>ATOM
      1 C1          1.2680   -0.3330   -0.0020 c         1 5AZ      0.822900
      2 N2         -0.0150   -0.9970   -0.0030 n         1 5AZ     -0.533400
      3 C3         -1.1850   -0.2260    0.0140 cc        1 5AZ      0.725800
      4 N4         -1.1410    1.1450   -0.0060 nd        1 5AZ     -0.826000
      5 C5          0.1240    1.6960   -0.0070 cd        1 5AZ      0.704200
      6 N6          1.2990    1.0810   -0.0060 nc        1 5AZ     -0.674100
      7 N7         -2.4150   -0.8620    0.0890 nh        1 5AZ     -0.929800
      8 O8          2.2600   -1.0800   -0.0020 o         1 5AZ     -0.592500
      9 HN2        -0.0340   -1.9910    0.0300 hn        1 5AZ      0.337500
     10 H5          0.1360    2.8090   -0.0120 h5        1 5AZ      0.068800
     11 H1N7       -2.4840   -1.8300   -0.1070 hn        1 5AZ      0.448300
     12 H2N7       -3.2340   -0.3060    0.0080 hn        1 5AZ      0.448300
@<TRIPOS>BOND
     1    1    2 1   
     2    1    6 1   
     3    1    8 2   
     4    2    3 1   
     5    2    9 1   
     6    3    4 2   
     7    3    7 1   
     8    4    5 1   
     9    5    6 2   
    10    5   10 1   
    11    7   11 1   
    12    7   12 1   
@<TRIPOS>SUBSTRUCTURE
     1 5AZ         1 TEMP              0 ****  ****    0 ROOT
