@<TRIPOS>MOLECULE
5AZ
   13    13     1     0     0
SMALL
bcc


@<TRIPOS>ATOM
      1 C1         -0.1300    0.0030   -0.0460 c         1 5AZ      0.821900
      2 N2          1.3430    0.0010   -0.0390 n         1 5AZ     -0.517400
      3 C3          1.9730   -0.0010    1.1900 cc        1 5AZ      0.581800
      4 N4          1.3510   -0.0000    2.3690 nd        1 5AZ     -0.714000
      5 C5         -0.0600    0.0020    2.2980 cd        1 5AZ      0.706200
      6 N6         -0.7950    0.0030    1.2140 nc        1 5AZ     -0.549100
      7 N7          3.4780   -0.0030    1.2320 n4        1 5AZ     -0.818600
      8 O8         -0.6480    0.0050   -1.1590 o         1 5AZ     -0.462500
      9 HN2         1.8200    0.0010   -0.9160 hn        1 5AZ      0.364500
     10 H5         -0.5620    0.0020    3.2980 h5        1 5AZ      0.124800
     11 H1N7        3.7960   -0.0040    2.2160 hn        1 5AZ      0.488133
     12 H2N7        3.8390    0.8390    0.7650 hn        1 5AZ      0.488133
     13 H73         3.8370   -0.8440    0.7630 hn        1 5AZ      0.488133
@<TRIPOS>BOND
     1    1    2 1   
     2    1    6 1   
     3    1    8 2   
     4    2    3 1   
     5    2    9 1   
     6    3    4 2   
     7    3    7 1   
     8    4    5 1   
     9    5    6 2   
    10    5   10 1   
    11    7   11 1   
    12    7   12 1   
    13    7   13 1   
@<TRIPOS>SUBSTRUCTURE
     1 5AZ         1 TEMP              0 ****  ****    0 ROOT
