@<TRIPOS>MOLECULE
5AZ
   12    10     1     0     0
SMALL
bcc


@<TRIPOS>ATOM
      1 C1         -1.3820    0.0000   -1.0430 c1        1 5AZ      0.342000
      2 N2          0.0360    0.0000   -1.0430 n2        1 5AZ     -0.376000
      3 C3          0.7460    0.0000    0.1850 c2        1 5AZ      0.289000
      4 N4          0.0360    0.0000    1.4140 n1        1 5AZ     -0.322000
      5 C5         -1.3820    0.0000    1.4140 c1        1 5AZ      0.069000
      6 N6         -2.0920    0.0000    0.1850 n2        1 5AZ     -0.250000
      7 N7          2.1650   -0.0000    0.1850 n3        1 5AZ     -0.382000
      8 O8         -1.9900    0.0000   -2.0950 o         1 5AZ     -0.318000
      9 HN2         0.4920    0.0000   -1.8330 hn        1 5AZ      0.250000
     10 H5         -1.8700    0.0000    2.2590 ha        1 5AZ      0.197000
     11 H1N7        2.6210    0.0000    0.9750 hn        1 5AZ      0.250500
     12 H2N7        2.6210   -0.0000   -0.6040 hn        1 5AZ      0.250500
@<TRIPOS>BOND
     1    1    6 1   
     2    1    8 1   
     3    2    3 1   
     4    2    9 1   
     5    3    4 1   
     6    3    7 1   
     7    5    6 1   
     8    5   10 1   
     9    7   11 1   
    10    7   12 1   
@<TRIPOS>SUBSTRUCTURE
     1 5AZ         1 TEMP              0 ****  ****    0 ROOT
