@<TRIPOS>MOLECULE
5B0
   28    28     1     0     0
SMALL
bcc


@<TRIPOS>ATOM
      1 OAE         0.6860    1.3050    1.0450 o         1 5B0     -0.949167
      2 PAP         1.9880    0.6520    0.6560 p5        1 5B0      1.228700
      3 OAF         3.1910    1.2380    1.3930 o         1 5B0     -0.949167
      4 OAC         1.9950   -0.8510    0.5550 o         1 5B0     -0.949167
      5 CAJ         2.2160    1.2200   -1.0550 c3        1 5B0     -0.285600
      6 CAI         3.6770    1.3050   -1.3560 c3        1 5B0     -0.018100
      7 CAN         4.1320    2.6130   -1.9030 ca        1 5B0     -0.073600
      8 CAH         4.5070    2.7210   -3.2660 ca        1 5B0      0.321200
      9 NAK         5.0090    3.8200   -3.8460 nb        1 5B0     -0.682000
     10 CAL         5.2040    4.9120   -3.0680 ca        1 5B0      0.312600
     11 CAA         5.7770    6.1580   -3.6540 c3        1 5B0     -0.112400
     12 CAM         4.8580    4.8990   -1.6920 ca        1 5B0      0.008800
     13 OAD         5.1290    6.0480   -0.9760 oh        1 5B0     -0.535100
     14 CAO         4.2730    3.7600   -1.1040 ca        1 5B0     -0.124300
     15 C1          3.8000    3.7910    0.3210 c3        1 5B0      0.157700
     16 O2          4.8460    3.4730    1.2130 oh        1 5B0     -0.676800
     17 HAJ1        1.6980    2.1960   -1.1550 hc        1 5B0      0.029700
     18 HAJ2        1.7090    0.4870   -1.7160 hc        1 5B0      0.029700
     19 HAI1        3.9790    0.5020   -2.0860 hc        1 5B0      0.054700
     20 HAI2        4.2440    1.1230   -0.3880 hc        1 5B0      0.054700
     21 HAH         4.3840    1.8490   -3.9320 h4        1 5B0      0.003100
     22 HAA1        6.5050    6.6050   -2.9320 hc        1 5B0      0.027033
     23 HAA2        6.2970    5.9690   -4.6240 hc        1 5B0      0.027033
     24 HAA3        4.9570    6.8990   -3.8270 hc        1 5B0      0.027033
     25 HAD         5.0980    5.8100   -0.0350 ho        1 5B0      0.435000
     26 H11C        3.4560    4.8310    0.5820 h1        1 5B0      0.074700
     27 H12C        2.9410    3.0570    0.4670 h1        1 5B0      0.074700
     28 H2          4.6440    2.5670    1.5420 ho        1 5B0      0.489000
@<TRIPOS>BOND
     1    1    2 1   
     2    2    3 1   
     3    2    4 1   
     4    2    5 1   
     5    5    6 1   
     6    5   17 1   
     7    5   18 1   
     8    6    7 1   
     9    6   19 1   
    10    6   20 1   
    11    7    8 ar  
    12    7   14 ar  
    13    8    9 ar  
    14    8   21 1   
    15    9   10 ar  
    16   10   11 1   
    17   10   12 ar  
    18   11   22 1   
    19   11   23 1   
    20   11   24 1   
    21   12   13 1   
    22   12   14 ar  
    23   13   25 1   
    24   14   15 1   
    25   15   16 1   
    26   15   26 1   
    27   15   27 1   
    28   16   28 1   
@<TRIPOS>SUBSTRUCTURE
     1 5B0         1 TEMP              0 ****  ****    0 ROOT
