@<TRIPOS>MOLECULE
5B1
   17    18     1     0     0
SMALL
bcc


@<TRIPOS>ATOM
      1 C7          1.4420    0.2860    0.0320 ca        1 5B1     -0.234900
      2 C6          0.1190    0.7100    0.0310 ca        1 5B1     -0.027000
      3 C1          2.7610    0.9530    0.0590 cc        1 5B1      0.546800
      4 N1          2.9320    2.3290    0.1790 nh        1 5B1     -0.850800
      5 C5         -0.8800   -0.2610    0.0050 ca        1 5B1     -0.066900
      6 C4         -0.5640   -1.6350   -0.0070 ca        1 5B1     -0.068000
      7 BR1        -2.6790    0.2610   -0.0110 br        1 5B1     -0.088100
      8 C3          0.7480   -2.0830    0.0080 ca        1 5B1     -0.146000
      9 C2          1.7650   -1.1180    0.0260 ca        1 5B1     -0.033200
     10 N3          3.1650   -1.2120    0.1320 na        1 5B1      0.000900
     11 N2          3.7460    0.0050    0.0570 nd        1 5B1     -0.583100
     12 H6         -0.1220    1.7830    0.0580 ha        1 5B1      0.150000
     13 HN1         2.2320    2.8420   -0.3120 hn        1 5B1      0.399300
     14 HN1A        3.8580    2.6530   -0.0020 hn        1 5B1      0.399300
     15 H4         -1.3800   -2.3770   -0.0280 ha        1 5B1      0.148000
     16 H3          0.9810   -3.1560    0.0080 ha        1 5B1      0.146000
     17 HN3         3.6860   -1.9810   -0.2280 hn        1 5B1      0.307700
@<TRIPOS>BOND
     1    1    2 ar  
     2    1    3 1   
     3    1    9 ar  
     4    2    5 ar  
     5    2   12 1   
     6    3    4 1   
     7    3   11 2   
     8    4   13 1   
     9    4   14 1   
    10    5    6 ar  
    11    5    7 1   
    12    6    8 ar  
    13    6   15 1   
    14    8    9 ar  
    15    8   16 1   
    16    9   10 1   
    17   10   11 1   
    18   10   17 1   
@<TRIPOS>SUBSTRUCTURE
     1 5B1         1 TEMP              0 ****  ****    0 ROOT
