@<TRIPOS>MOLECULE
5B1
   17    18     1     0     0
SMALL
bcc


@<TRIPOS>ATOM
      1 C7          0.0450   -0.0180   -0.0290 ca        1 5B1     -0.230900
      2 C6          1.4320    0.0470   -0.0360 ca        1 5B1     -0.029000
      3 C1         -1.0120   -0.0770   -1.0610 cc        1 5B1      0.546800
      4 N1         -0.7560   -0.1770   -2.4250 nv        1 5B1     -0.849800
      5 C5          2.0930    0.0890    1.1910 ca        1 5B1     -0.063900
      6 C4          1.3790    0.0710    2.4060 ca        1 5B1     -0.069000
      7 Br1         3.9640    0.1700    1.2320 br        1 5B1     -0.087100
      8 C3         -0.0060    0.0130    2.4380 ca        1 5B1     -0.143000
      9 C2         -0.6840   -0.0340    1.2130 ca        1 5B1     -0.038200
     10 N3         -2.0560   -0.0080    0.8820 na        1 5B1      0.004900
     11 N2         -2.2350   -0.1130   -0.4540 nd        1 5B1     -0.585100
     12 H6          1.9850    0.0600   -0.9880 ha        1 5B1      0.151000
     13 HN1         0.0410    0.3560   -2.7010 hn        1 5B1      0.398300
     14 HN1A       -1.5500   -0.0230   -3.0110 hn        1 5B1      0.398300
     15 H4          1.9330    0.1030    3.3590 ha        1 5B1      0.149000
     16 H3         -0.5510    0.0060    3.3920 ha        1 5B1      0.147000
     17 HN3        -2.7430   -0.4510    1.4550 hn        1 5B1      0.302700
@<TRIPOS>BOND
     1    1    2 ar  
     2    1    3 1   
     3    1    9 ar  
     4    2    5 ar  
     5    2   12 1   
     6    3    4 1   
     7    3   11 2   
     8    4   13 1   
     9    4   14 1   
    10    5    6 ar  
    11    5    7 1   
    12    6    8 ar  
    13    6   15 1   
    14    8    9 ar  
    15    8   16 1   
    16    9   10 1   
    17   10   11 1   
    18   10   17 1   
@<TRIPOS>SUBSTRUCTURE
     1 5B1         1 TEMP              0 ****  ****    0 ROOT
