@<TRIPOS>MOLECULE
5B1
   18    19     1     0     0
SMALL
bcc


@<TRIPOS>ATOM
      1 C7          0.0400   -0.0020   -0.0290 ca        1 5B1     -0.173900
      2 C6          1.4330   -0.0770   -0.0430 ca        1 5B1     -0.081000
      3 C1         -1.0250    0.0490   -1.0200 cc        1 5B1      0.282800
      4 N1         -0.8400    0.0310   -2.4520 n4        1 5B1     -0.724600
      5 C5          2.0990   -0.1060    1.1770 ca        1 5B1     -0.007900
      6 C4          1.3890   -0.0600    2.4030 ca        1 5B1     -0.062000
      7 BR1         3.9630   -0.2060    1.2110 br        1 5B1     -0.012100
      8 C3          0.0080    0.0140    2.4490 ca        1 5B1     -0.098000
      9 C2         -0.6750    0.0440    1.2230 ca        1 5B1     -0.047200
     10 N3         -2.0450    0.1160    0.8940 na        1 5B1      0.056900
     11 N2         -2.2580    0.1190   -0.4010 nd        1 5B1     -0.426100
     12 H6          1.9870   -0.1130   -0.9930 ha        1 5B1      0.152000
     13 HN1         0.1680   -0.0300   -2.6410 hn        1 5B1      0.472133
     14 HN1A       -1.2180    0.8910   -2.8700 hn        1 5B1      0.472133
     15 H4          1.9550   -0.0850    3.3530 ha        1 5B1      0.181000
     16 H3         -0.5320    0.0490    3.4070 ha        1 5B1      0.174000
     17 HN3        -2.8180    0.1610    1.5300 hn        1 5B1      0.367700
     18 H13        -1.3190   -0.7820   -2.8620 hn        1 5B1      0.472133
@<TRIPOS>BOND
     1    1    2 ar  
     2    1    3 1   
     3    1    9 ar  
     4    2    5 ar  
     5    2   12 1   
     6    3    4 1   
     7    3   11 2   
     8    4   13 1   
     9    4   14 1   
    10    4   18 1   
    11    5    6 ar  
    12    5    7 1   
    13    6    8 ar  
    14    6   15 1   
    15    8    9 ar  
    16    8   16 1   
    17    9   10 1   
    18   10   11 1   
    19   10   17 1   
@<TRIPOS>SUBSTRUCTURE
     1 5B1         1 TEMP              0 ****  ****    0 ROOT
