@<TRIPOS>MOLECULE
5B1
   17    18     1     0     0
SMALL
bcc


@<TRIPOS>ATOM
      1 C7          0.0450    0.0220   -0.0280 ca        1 5B1     -0.230900
      2 C6          1.4310   -0.0430   -0.0380 ca        1 5B1     -0.029000
      3 C1         -1.0140    0.0900   -1.0590 cc        1 5B1      0.546800
      4 N1         -0.7600    0.2000   -2.4230 nh        1 5B1     -0.849800
      5 C5          2.0940   -0.0940    1.1870 ca        1 5B1     -0.063900
      6 C4          1.3830   -0.0850    2.4030 ca        1 5B1     -0.069000
      7 BR1         3.9650   -0.1770    1.2250 br        1 5B1     -0.087100
      8 C3         -0.0030   -0.0260    2.4380 ca        1 5B1     -0.143000
      9 C2         -0.6830    0.0310    1.2140 ca        1 5B1     -0.038200
     10 N3         -2.0550    0.0080    0.8850 na        1 5B1      0.004900
     11 N2         -2.2360    0.1220   -0.4500 nd        1 5B1     -0.585100
     12 H6          1.9820   -0.0500   -0.9910 ha        1 5B1      0.151000
     13 HN1        -1.5560    0.0510   -3.0080 hn        1 5B1      0.398300
     14 HN1A        0.0360   -0.3320   -2.7040 hn        1 5B1      0.398300
     15 H4          1.9380   -0.1240    3.3550 ha        1 5B1      0.149000
     16 H3         -0.5460   -0.0250    3.3930 ha        1 5B1      0.147000
     17 HN3        -2.7410    0.4470    1.4620 hn        1 5B1      0.302700
@<TRIPOS>BOND
     1    1    2 ar  
     2    1    3 1   
     3    1    9 ar  
     4    2    5 ar  
     5    2   12 1   
     6    3    4 1   
     7    3   11 2   
     8    4   13 1   
     9    4   14 1   
    10    5    6 ar  
    11    5    7 1   
    12    6    8 ar  
    13    6   15 1   
    14    8    9 ar  
    15    8   16 1   
    16    9   10 1   
    17   10   11 1   
    18   10   17 1   
@<TRIPOS>SUBSTRUCTURE
     1 5B1         1 TEMP              0 ****  ****    0 ROOT
