@<TRIPOS>MOLECULE
5B1
   17    11     1     0     0
SMALL
bcc


@<TRIPOS>ATOM
      1 C7         -0.0250    0.0060   -0.3960 c1        1 5B1     -0.070000
      2 C6          1.3830    0.0060   -0.3960 c1        1 5B1     -0.029000
      3 C1         -0.9520    0.0060   -1.4230 c1        1 5B1      0.023000
      4 N1         -1.1130   -0.0160   -2.8330 n2        1 5B1     -0.288000
      5 C5          2.0750    0.0060    0.8030 c1        1 5B1     -0.204000
      6 C4          1.3840    0.0060    2.0020 c1        1 5B1     -0.106000
      7 BR1         3.9870   -0.0160    0.8410 br        1 5B1      0.053000
      8 C3         -0.0010    0.0060    2.0020 c1        1 5B1     -0.106000
      9 C2         -0.7050    0.0060    0.7830 c1        1 5B1     -0.070000
     10 N3         -2.0440    0.0060    0.4980 n1        1 5B1     -0.170000
     11 N2         -2.1880    0.0060   -0.8710 n2        1 5B1     -0.118000
     12 H6          1.8710    0.0060   -1.2420 ha        1 5B1      0.151000
     13 HN1        -1.7850   -0.5050   -3.2080 hn        1 5B1      0.193500
     14 HN1A       -0.5470    0.4630   -3.3640 hn        1 5B1      0.193500
     15 H4          1.8720    0.0060    2.8470 ha        1 5B1      0.148000
     16 H3         -0.4890    0.0060    2.8480 ha        1 5B1      0.148000
     17 HN3        -2.7220    0.0060    1.1080 DU        1 5B1      0.253000
@<TRIPOS>BOND
     1    1    9 1   
     2    2    5 1   
     3    2   12 1   
     4    3   11 1   
     5    4   13 1   
     6    4   14 1   
     7    5    7 1   
     8    6    8 1   
     9    6   15 1   
    10    8   16 1   
    11   10   11 1   
@<TRIPOS>SUBSTRUCTURE
     1 5B1         1 TEMP              0 ****  ****    0 ROOT
