@<TRIPOS>MOLECULE
5B2
   28    30     1     0     0
SMALL
bcc


@<TRIPOS>ATOM
      1 C7          0.0260    0.0250   -0.0260 ca        1 5B2     -0.164900
      2 C6          1.4180    0.0990   -0.0340 ca        1 5B2     -0.112000
      3 C1         -1.0470    0.1800   -0.9980 cc        1 5B2      0.273800
      4 N1         -0.8690    0.4910   -2.3960 n4        1 5B2     -0.722600
      5 C5          2.1000   -0.1150    1.1630 cp        1 5B2      0.025000
      6 C4          1.3890   -0.4040    2.3580 ca        1 5B2     -0.081000
      7 C3          0.0090   -0.4890    2.3980 ca        1 5B2     -0.099000
      8 C2         -0.6820   -0.2710    1.1950 ca        1 5B2     -0.061200
      9 N3         -2.0550   -0.2720    0.8690 na        1 5B2      0.058900
     10 N2         -2.2770   -0.0110   -0.3980 nd        1 5B2     -0.434100
     11 C8          3.5590   -0.0430    1.1990 cp        1 5B2     -0.085000
     12 C13         4.2080    0.6100    2.2570 ca        1 5B2     -0.108500
     13 C12         5.5990    0.6800    2.2870 ca        1 5B2     -0.123000
     14 C11         6.3540    0.0950    1.2700 ca        1 5B2     -0.100000
     15 C10         5.7140   -0.5590    0.2170 ca        1 5B2     -0.123000
     16 C9          4.3230   -0.6270    0.1780 ca        1 5B2     -0.108500
     17 H6          1.9730    0.3250   -0.9560 ha        1 5B2      0.143000
     18 HN1         0.1310    0.6620   -2.5560 hn        1 5B2      0.469800
     19 HN1A       -1.1830   -0.2970   -2.9760 hn        1 5B2      0.469800
     20 H4          1.9680   -0.5750    3.2830 ha        1 5B2      0.170000
     21 H3         -0.5260   -0.7180    3.3320 ha        1 5B2      0.168000
     22 HN3        -2.8230   -0.4450    1.4880 hn        1 5B2      0.363700
     23 H13         3.6190    1.0780    3.0600 ha        1 5B2      0.132500
     24 H12         6.1030    1.1980    3.1180 ha        1 5B2      0.147500
     25 H11         7.4540    0.1480    1.2990 ha        1 5B2      0.150000
     26 H10         6.3080   -1.0280   -0.5820 ha        1 5B2      0.147500
     27 H9          3.8230   -1.1550   -0.6470 ha        1 5B2      0.132500
     28 H131       -1.4070    1.3310   -2.6460 hn        1 5B2      0.469800
@<TRIPOS>BOND
     1    1    2 ar  
     2    1    3 1   
     3    1    8 ar  
     4    2    5 ar  
     5    2   17 1   
     6    3    4 1   
     7    3   10 2   
     8    4   18 1   
     9    4   19 1   
    10    4   28 1   
    11    5    6 ar  
    12    5   11 1   
    13    6    7 ar  
    14    6   20 1   
    15    7    8 ar  
    16    7   21 1   
    17    8    9 1   
    18    9   10 1   
    19    9   22 1   
    20   11   12 ar  
    21   11   16 ar  
    22   12   13 ar  
    23   12   23 1   
    24   13   14 ar  
    25   13   24 1   
    26   14   15 ar  
    27   14   25 1   
    28   15   16 ar  
    29   15   26 1   
    30   16   27 1   
@<TRIPOS>SUBSTRUCTURE
     1 5B2         1 TEMP              0 ****  ****    0 ROOT
