@<TRIPOS>MOLECULE
5B2
   27    29     1     0     0
SMALL
bcc


@<TRIPOS>ATOM
      1 C7          0.0300    0.0320   -0.0280 ca        1 5B2     -0.224900
      2 C6          1.4140    0.1180   -0.0270 ca        1 5B2     -0.049000
      3 C1         -1.0360    0.1850   -1.0430 cc        1 5B2      0.542800
      4 N1         -0.7880    0.3960   -2.3970 nv        1 5B2     -0.848800
      5 C5          2.0960   -0.0970    1.1750 cp        1 5B2     -0.070000
      6 C4          1.3820   -0.3910    2.3580 ca        1 5B2     -0.084000
      7 C3         -0.0030   -0.4780    2.3840 ca        1 5B2     -0.142000
      8 C2         -0.6890   -0.2670    1.1820 ca        1 5B2     -0.051200
      9 N3         -2.0690   -0.1870    0.8740 na        1 5B2      0.006900
     10 N2         -2.2530   -0.0030   -0.4550 nd        1 5B2     -0.590100
     11 C8          3.5550   -0.0200    1.2120 cp        1 5B2     -0.034000
     12 C13         4.2070    0.6150    2.2790 ca        1 5B2     -0.121500
     13 C12         5.5980    0.6880    2.3090 ca        1 5B2     -0.129000
     14 C11         6.3540    0.1290    1.2780 ca        1 5B2     -0.128000
     15 C10         5.7120   -0.5040    0.2140 ca        1 5B2     -0.129000
     16 C9          4.3210   -0.5790    0.1790 ca        1 5B2     -0.121500
     17 H6          1.9640    0.3540   -0.9500 ha        1 5B2      0.141000
     18 HN1        -1.5900    0.6640   -2.9280 hn        1 5B2      0.395300
     19 HN1A       -0.0070    1.0000   -2.5450 hn        1 5B2      0.395300
     20 H4          1.9480   -0.5640    3.2870 ha        1 5B2      0.138000
     21 H3         -0.5400   -0.7050    3.3140 ha        1 5B2      0.142000
     22 HN3        -2.7270   -0.7920    1.3200 hn        1 5B2      0.294700
     23 H13         3.6160    1.0630    3.0910 ha        1 5B2      0.134500
     24 H12         6.1010    1.1910    3.1490 ha        1 5B2      0.132000
     25 H11         7.4510    0.1870    1.3050 ha        1 5B2      0.132000
     26 H10         6.3040   -0.9490   -0.5990 ha        1 5B2      0.132000
     27 H9          3.8190   -1.0860   -0.6590 ha        1 5B2      0.134500
@<TRIPOS>BOND
     1    1    2 ar  
     2    1    3 1   
     3    1    8 ar  
     4    2    5 ar  
     5    2   17 1   
     6    3    4 1   
     7    3   10 2   
     8    4   18 1   
     9    4   19 1   
    10    5    6 ar  
    11    5   11 1   
    12    6    7 ar  
    13    6   20 1   
    14    7    8 ar  
    15    7   21 1   
    16    8    9 1   
    17    9   10 1   
    18    9   22 1   
    19   11   12 ar  
    20   11   16 ar  
    21   12   13 ar  
    22   12   23 1   
    23   13   14 ar  
    24   13   24 1   
    25   14   15 ar  
    26   14   25 1   
    27   15   16 ar  
    28   15   26 1   
    29   16   27 1   
@<TRIPOS>SUBSTRUCTURE
     1 5B2         1 TEMP              0 ****  ****    0 ROOT
