@<TRIPOS>MOLECULE
5B2
   27    29     1     0     0
SMALL
bcc


@<TRIPOS>ATOM
      1 C7          1.7670    0.2800    0.1160 ca        1 5B2     -0.228900
      2 C6          0.4220    0.6160    0.1730 ca        1 5B2     -0.047000
      3 C1          3.0440    0.9970    0.3240 cc        1 5B2      0.543800
      4 N1          3.1270    2.3200    0.7490 nh        1 5B2     -0.850800
      5 C5         -0.5270   -0.3780   -0.0870 cp        1 5B2     -0.072000
      6 C4         -0.1160   -1.6950   -0.3900 ca        1 5B2     -0.083000
      7 C3          1.2210   -2.0600   -0.4420 ca        1 5B2     -0.144000
      8 C2          2.1750   -1.0670   -0.1880 ca        1 5B2     -0.047200
      9 N3          3.5820   -1.1070   -0.0620 na        1 5B2      0.004900
     10 N2          4.0850    0.1330    0.1390 nd        1 5B2     -0.589100
     11 C8         -1.9530   -0.0580   -0.0420 cp        1 5B2     -0.032000
     12 C13        -2.8620   -0.9450    0.5530 ca        1 5B2     -0.121500
     13 C12        -4.2200   -0.6370    0.5960 ca        1 5B2     -0.129000
     14 C11        -4.6860    0.5560    0.0450 ca        1 5B2     -0.128000
     15 C10        -3.7880    1.4430   -0.5490 ca        1 5B2     -0.129000
     16 C9         -2.4290    1.1400   -0.5920 ca        1 5B2     -0.121500
     17 H6          0.1080    1.6380    0.4310 ha        1 5B2      0.141000
     18 HN1         2.4010    2.8860    0.3650 hn        1 5B2      0.396300
     19 HN1A        4.0330    2.7310    0.6590 hn        1 5B2      0.396300
     20 H4         -0.8880   -2.4540   -0.5980 ha        1 5B2      0.138000
     21 H3          1.5200   -3.0910   -0.6720 ha        1 5B2      0.142000
     22 HN3         4.1410   -1.7190   -0.6190 hn        1 5B2      0.298700
     23 H13        -2.4970   -1.8840    0.9970 ha        1 5B2      0.133500
     24 H12        -4.9240   -1.3370    1.0680 ha        1 5B2      0.132000
     25 H11        -5.7590    0.7980    0.0790 ha        1 5B2      0.132000
     26 H10        -4.1530    2.3850   -0.9860 ha        1 5B2      0.132000
     27 H9         -1.7250    1.8400   -1.0670 ha        1 5B2      0.133500
@<TRIPOS>BOND
     1    1    2 ar  
     2    1    3 1   
     3    1    8 ar  
     4    2    5 ar  
     5    2   17 1   
     6    3    4 1   
     7    3   10 2   
     8    4   18 1   
     9    4   19 1   
    10    5    6 ar  
    11    5   11 1   
    12    6    7 ar  
    13    6   20 1   
    14    7    8 ar  
    15    7   21 1   
    16    8    9 1   
    17    9   10 1   
    18    9   22 1   
    19   11   12 ar  
    20   11   16 ar  
    21   12   13 ar  
    22   12   23 1   
    23   13   14 ar  
    24   13   24 1   
    25   14   15 ar  
    26   14   25 1   
    27   15   16 ar  
    28   15   26 1   
    29   16   27 1   
@<TRIPOS>SUBSTRUCTURE
     1 5B2         1 TEMP              0 ****  ****    0 ROOT
