@<TRIPOS>MOLECULE
5B2
   27    18     1     0     0
SMALL
bcc


@<TRIPOS>ATOM
      1 C7         -1.9400    0.0150   -0.7600 c1        1 5B2     -0.073500
      2 C6         -0.5320    0.0090   -0.7600 c1        1 5B2     -0.085000
      3 C1         -2.8670    0.0300   -1.7870 c1        1 5B2      0.019000
      4 N1         -3.0120   -0.0770   -3.1940 n2        1 5B2     -0.287000
      5 C5          0.1600   -0.0110    0.4400 c1        1 5B2     -0.052000
      6 C4         -0.5320   -0.0260    1.6380 c1        1 5B2     -0.122333
      7 C3         -1.9170   -0.0200    1.6380 c1        1 5B2     -0.122333
      8 C2         -2.6210    0.0010    0.4190 c1        1 5B2     -0.073500
      9 N3         -3.9590    0.0070    0.1340 n1        1 5B2     -0.168000
     10 N2         -4.1030    0.0250   -1.2350 n2        1 5B2     -0.123000
     11 C8          1.5430    0.0070    0.5420 c1        1 5B2     -0.052000
     12 C13         2.2530   -1.1830    0.5580 c1        1 5B2     -0.122333
     13 C12         3.6380   -1.1640    0.6130 c1        1 5B2     -0.122333
     14 C11         4.3130    0.0460    0.6520 c1        1 5B2     -0.122333
     15 C10         3.6030    1.2360    0.6360 c1        1 5B2     -0.122333
     16 C9          2.2180    1.2170    0.5810 c1        1 5B2     -0.085000
     17 H6         -0.0440    0.0190   -1.6050 ha        1 5B2      0.137500
     18 HN1        -2.3700    0.2640   -3.7480 hn        1 5B2      0.190500
     19 HN1A       -3.7470   -0.4910   -3.5480 hn        1 5B2      0.190500
     20 H4         -0.0440   -0.0400    2.4830 ha        1 5B2      0.135167
     21 H3         -2.4050   -0.0300    2.4830 ha        1 5B2      0.135167
     22 HN3        -4.6370   -0.0000    0.7440 DU        1 5B2      0.245000
     23 H13         1.7770   -2.0350    0.5300 ha        1 5B2      0.135167
     24 H12         4.1380   -2.0020    0.6240 ha        1 5B2      0.135167
     25 H11         5.2880    0.0590    0.6910 ha        1 5B2      0.135167
     26 H10         4.0790    2.0880    0.6640 ha        1 5B2      0.135167
     27 H9          1.7190    2.0560    0.5700 ha        1 5B2      0.137500
@<TRIPOS>BOND
     1    1    8 1   
     2    2    5 1   
     3    2   17 1   
     4    3   10 1   
     5    4   18 1   
     6    4   19 1   
     7    6    7 1   
     8    6   20 1   
     9    7   21 1   
    10    9   10 1   
    11   11   16 1   
    12   12   13 1   
    13   12   23 1   
    14   13   24 1   
    15   14   15 1   
    16   14   25 1   
    17   15   26 1   
    18   16   27 1   
@<TRIPOS>SUBSTRUCTURE
     1 5B2         1 TEMP              0 ****  ****    0 ROOT
