@<TRIPOS>MOLECULE
5B2
   27    29     1     0     0
SMALL
bcc


@<TRIPOS>ATOM
      1 C7          0.0290   -0.1440   -0.0140 ca        1 5B2     -0.224900
      2 C6          1.4160   -0.1670   -0.0200 ca        1 5B2     -0.049000
      3 C1         -1.0350   -0.3720   -1.0170 cc        1 5B2      0.542800
      4 N1         -0.7900   -0.7940   -2.3210 nh        1 5B2     -0.848800
      5 C5          2.0940    0.1080    1.1720 cp        1 5B2     -0.070000
      6 C4          1.3740    0.4100    2.3490 ca        1 5B2     -0.084000
      7 C3         -0.0130    0.4500    2.3790 ca        1 5B2     -0.142000
      8 C2         -0.6960    0.1680    1.1900 ca        1 5B2     -0.051200
      9 N3         -2.0690    0.2080    0.8470 na        1 5B2      0.006900
     10 N2         -2.2550   -0.1930   -0.4330 nd        1 5B2     -0.590100
     11 C8          3.5550    0.0830    1.2050 cp        1 5B2     -0.033000
     12 C13         4.2320   -0.4990    2.2870 ca        1 5B2     -0.121500
     13 C12         5.6250   -0.5230    2.3140 ca        1 5B2     -0.129000
     14 C11         6.3570    0.0350    1.2670 ca        1 5B2     -0.128000
     15 C10         5.6910    0.6170    0.1880 ca        1 5B2     -0.129000
     16 C9          4.2980    0.6410    0.1550 ca        1 5B2     -0.121500
     17 H6          1.9710   -0.4070   -0.9390 ha        1 5B2      0.141000
     18 HN1         0.0380   -0.3850   -2.7000 hn        1 5B2      0.395800
     19 HN1A       -1.5740   -0.7230   -2.9350 hn        1 5B2      0.395800
     20 H4          1.9370    0.6260    3.2720 ha        1 5B2      0.138000
     21 H3         -0.5540    0.6970    3.3010 ha        1 5B2      0.143000
     22 HN3        -2.7660   -0.0900    1.4970 hn        1 5B2      0.294700
     23 H13         3.6590   -0.9480    3.1120 ha        1 5B2      0.133000
     24 H12         6.1470   -0.9850    3.1650 ha        1 5B2      0.132000
     25 H11         7.4560    0.0170    1.2910 ha        1 5B2      0.132000
     26 H10         6.2650    1.0600   -0.6380 ha        1 5B2      0.132000
     27 H9          3.7770    1.1070   -0.6940 ha        1 5B2      0.133000
@<TRIPOS>BOND
     1    1    2 ar  
     2    1    3 1   
     3    1    8 ar  
     4    2    5 ar  
     5    2   17 1   
     6    3    4 1   
     7    3   10 2   
     8    4   18 1   
     9    4   19 1   
    10    5    6 ar  
    11    5   11 1   
    12    6    7 ar  
    13    6   20 1   
    14    7    8 ar  
    15    7   21 1   
    16    8    9 1   
    17    9   10 1   
    18    9   22 1   
    19   11   12 ar  
    20   11   16 ar  
    21   12   13 ar  
    22   12   23 1   
    23   13   14 ar  
    24   13   24 1   
    25   14   15 ar  
    26   14   25 1   
    27   15   16 ar  
    28   15   26 1   
    29   16   27 1   
@<TRIPOS>SUBSTRUCTURE
     1 5B2         1 TEMP              0 ****  ****    0 ROOT
