@<TRIPOS>MOLECULE
5B3
   46    48     1     0     0
SMALL
bcc


@<TRIPOS>ATOM
      1 O1          0.7300   -0.2360   -0.6370 o         1 5B3     -0.562800
      2 C7          1.9380    3.1040   -3.0150 ca        1 5B3     -0.142500
      3 O2          2.5240    0.2240    0.9280 o         1 5B3     -0.562800
      4 C6          1.7050    1.8970   -2.3710 ca        1 5B3      0.013500
      5 C1          2.1150   -2.8550    0.1340 c3        1 5B3     -0.136433
      6 N1          3.0590   -1.0210   -1.2840 n4        1 5B3     -0.718900
      7 C5          2.4150    1.5380   -1.2070 ca        1 5B3     -0.513500
      8 C4          4.4840   -2.1140    0.4640 c3        1 5B3     -0.136433
      9 C3          3.8410   -3.3690   -1.5910 c3        1 5B3     -0.136433
     10 C2          3.3720   -2.3310   -0.5650 c3        1 5B3      0.160200
     11 S1          2.0030    0.2170   -0.3490 sy        1 5B3      1.474200
     12 C10         3.3930    2.4360   -0.7350 ca        1 5B3      0.013500
     13 C9          3.6310    3.6460   -1.3730 ca        1 5B3     -0.142500
     14 C8          2.8910    4.0070   -2.5110 cp        1 5B3      0.071000
     15 C11         3.0680    5.3170   -3.1410 cp        1 5B3     -0.052000
     16 C17         4.3380    5.8680   -3.3030 ca        1 5B3     -0.071000
     17 C16         4.4440    7.1240   -3.9020 ca        1 5B3     -0.174900
     18 C15         5.5140    8.0460   -4.2650 cc        1 5B3      0.286800
     19 N4          6.9280    7.8440   -4.0500 n4        1 5B3     -0.726600
     20 N3          4.9910    9.1820   -4.8510 nd        1 5B3     -0.405100
     21 N2          3.6870    9.0470   -4.8840 na        1 5B3      0.062900
     22 C14         3.2550    7.8250   -4.3290 ca        1 5B3     -0.037200
     23 C13         1.9780    7.2680   -4.1560 ca        1 5B3     -0.086000
     24 C12         1.9080    6.0190   -3.5660 ca        1 5B3     -0.073000
     25 H7          1.3630    3.3570   -3.9230 ha        1 5B3      0.168500
     26 H6          0.9210    1.2190   -2.7610 ha        1 5B3      0.174000
     27 H1          2.3380   -3.8750    0.5370 hc        1 5B3      0.079700
     28 H1A         1.8280   -2.2040    0.9970 hc        1 5B3      0.079700
     29 H1B         1.2520   -2.9420   -0.5700 hc        1 5B3      0.079700
     30 HN1         2.5690   -1.2780   -2.1420 hn        1 5B3      0.445300
     31 H4          4.6900   -3.0940    0.9640 hc        1 5B3      0.079700
     32 H4A         4.1800   -1.3830    1.2540 hc        1 5B3      0.079700
     33 H4B         5.4260   -1.7690   -0.0250 hc        1 5B3      0.079700
     34 H3          3.0330   -3.6080   -2.3250 hc        1 5B3      0.079700
     35 H3A         4.1040   -4.3120   -1.0490 hc        1 5B3      0.079700
     36 H3B         4.7490   -3.0190   -2.1380 hc        1 5B3      0.079700
     37 H10         3.9580    2.1880    0.1850 ha        1 5B3      0.174000
     38 H9          4.3800    4.3410   -0.9600 ha        1 5B3      0.168500
     39 H17         5.2330    5.3210   -2.9730 ha        1 5B3      0.142000
     40 HN4         7.2150    8.3170   -3.1810 hn        1 5B3      0.475467
     41 HN4A        7.1050    6.8370   -3.9710 hn        1 5B3      0.475467
     42 HN2         3.1140    9.7730   -5.2750 hn        1 5B3      0.377700
     43 H13         1.0700    7.8030   -4.4750 ha        1 5B3      0.184000
     44 H12         0.9170    5.5580   -3.4070 ha        1 5B3      0.170000
     45 H121        3.9510   -0.6150   -1.5560 hn        1 5B3      0.445300
     46 H43         7.4740    8.2290   -4.8350 hn        1 5B3      0.475467
@<TRIPOS>BOND
     1    1   11 2   
     2    2    4 ar  
     3    2   14 ar  
     4    2   25 1   
     5    3   11 2   
     6    4    7 ar  
     7    4   26 1   
     8    5   10 1   
     9    5   27 1   
    10    5   28 1   
    11    5   29 1   
    12    6   10 1   
    13    6   11 1   
    14    6   30 1   
    15    6   45 1   
    16    7   11 1   
    17    7   12 ar  
    18    8   10 1   
    19    8   31 1   
    20    8   32 1   
    21    8   33 1   
    22    9   10 1   
    23    9   34 1   
    24    9   35 1   
    25    9   36 1   
    26   12   13 ar  
    27   12   37 1   
    28   13   14 ar  
    29   13   38 1   
    30   14   15 1   
    31   15   16 ar  
    32   15   24 ar  
    33   16   17 ar  
    34   16   39 1   
    35   17   18 1   
    36   17   22 ar  
    37   18   19 1   
    38   18   20 2   
    39   19   40 1   
    40   19   41 1   
    41   19   46 1   
    42   20   21 1   
    43   21   22 1   
    44   21   42 1   
    45   22   23 ar  
    46   23   24 ar  
    47   23   43 1   
    48   24   44 1   
@<TRIPOS>SUBSTRUCTURE
     1 5B3         1 TEMP              0 ****  ****    0 ROOT
