@<TRIPOS>MOLECULE
5B3
   45    47     1     0     0
SMALL
bcc


@<TRIPOS>ATOM
      1 O1          0.6770   -0.2350   -0.3680 o         1 5B3     -0.582300
      2 C7          1.6380    3.1770   -2.7960 ca        1 5B3     -0.170500
      3 O2          2.5590    0.2420    1.0550 o         1 5B3     -0.582300
      4 C6          1.4180    2.0040   -2.1040 ca        1 5B3      0.019500
      5 C1          2.3720   -2.8330    0.2000 c3        1 5B3     -0.130767
      6 N1          2.9780   -0.9000   -1.2600 ny        1 5B3     -0.701900
      7 C5          2.2490    1.6080   -1.0270 ca        1 5B3     -0.590500
      8 C4          4.6750   -1.8640    0.3050 c3        1 5B3     -0.130767
      9 C3          3.9520   -3.1500   -1.7010 c3        1 5B3     -0.130767
     10 C2          3.4890   -2.1720   -0.6130 c3        1 5B3      0.158200
     11 S1          1.9390    0.2970   -0.1780 sy        1 5B3      1.499200
     12 C10         3.3120    2.4780   -0.6830 ca        1 5B3      0.019500
     13 C9          3.5400    3.6520   -1.3710 ca        1 5B3     -0.170500
     14 C8          2.7070    4.0340   -2.4470 cp        1 5B3      0.153000
     15 C11         2.9420    5.2650   -3.1720 cp        1 5B3     -0.169000
     16 C17         4.2450    5.7690   -3.3030 ca        1 5B3      0.013000
     17 C16         4.4410    6.9330   -4.0240 ca        1 5B3     -0.254900
     18 C15         5.6090    7.7480   -4.4140 cc        1 5B3      0.551800
     19 N4          6.9260    7.4020   -4.1380 nv        1 5B3     -0.847800
     20 N3          5.1800    8.8140   -5.1640 nd        1 5B3     -0.553100
     21 N2          3.8440    8.7260   -5.2850 na        1 5B3      0.005900
     22 C14         3.3200    7.6240   -4.6290 ca        1 5B3      0.006800
     23 C13         2.0100    7.1260   -4.4760 ca        1 5B3     -0.148000
     24 C12         1.8480    5.9590   -3.7590 ca        1 5B3     -0.057000
     25 H7          0.9770    3.4450   -3.6370 ha        1 5B3      0.168500
     26 H6          0.5640    1.3590   -2.3820 ha        1 5B3      0.161000
     27 H1          2.0930   -2.2100    1.0850 hc        1 5B3      0.073922
     28 H1A         2.7450   -3.8180    0.5750 hc        1 5B3      0.073922
     29 H1B         1.4630   -3.0180   -0.4230 hc        1 5B3      0.073922
     30 HN1         2.3930   -1.1860   -2.0430 hn        1 5B3      0.438300
     31 H4          4.3810   -1.1840    1.1420 hc        1 5B3      0.073922
     32 H4A         5.5200   -1.4100   -0.2660 hc        1 5B3      0.073922
     33 H4B         5.0320   -2.8270    0.7500 hc        1 5B3      0.073922
     34 H3          3.1030   -3.4520   -2.3610 hc        1 5B3      0.073922
     35 H3A         4.7650   -2.7060   -2.3250 hc        1 5B3      0.073922
     36 H3B         4.3540   -4.0700   -1.2080 hc        1 5B3      0.073922
     37 H10         3.9580    2.2150    0.1760 ha        1 5B3      0.161000
     38 H9          4.3640    4.3140   -1.0600 ha        1 5B3      0.168500
     39 H17         5.1060    5.2400   -2.8660 ha        1 5B3      0.140000
     40 HN4         7.0470    7.0640   -3.2080 hn        1 5B3      0.405300
     41 HN4A        7.6030    8.0910   -4.3960 hn        1 5B3      0.405300
     42 HN2         3.3560    9.3980   -5.8320 hn        1 5B3      0.341700
     43 H13         1.1500    7.6520   -4.9140 ha        1 5B3      0.158000
     44 H12         0.8290    5.5630   -3.6170 ha        1 5B3      0.140000
     45 H121        3.7840   -0.4120   -1.6430 hn        1 5B3      0.438300
@<TRIPOS>BOND
     1    1   11 2   
     2    2    4 ar  
     3    2   14 ar  
     4    2   25 1   
     5    3   11 2   
     6    4    7 ar  
     7    4   26 1   
     8    5   10 1   
     9    5   27 1   
    10    5   28 1   
    11    5   29 1   
    12    6   10 1   
    13    6   11 1   
    14    6   30 1   
    15    6   45 1   
    16    7   11 1   
    17    7   12 ar  
    18    8   10 1   
    19    8   31 1   
    20    8   32 1   
    21    8   33 1   
    22    9   10 1   
    23    9   34 1   
    24    9   35 1   
    25    9   36 1   
    26   12   13 ar  
    27   12   37 1   
    28   13   14 ar  
    29   13   38 1   
    30   14   15 1   
    31   15   16 ar  
    32   15   24 ar  
    33   16   17 ar  
    34   16   39 1   
    35   17   18 1   
    36   17   22 ar  
    37   18   19 1   
    38   18   20 2   
    39   19   40 1   
    40   19   41 1   
    41   20   21 1   
    42   21   22 1   
    43   21   42 1   
    44   22   23 ar  
    45   23   24 ar  
    46   23   43 1   
    47   24   44 1   
@<TRIPOS>SUBSTRUCTURE
     1 5B3         1 TEMP              0 ****  ****    0 ROOT
