@<TRIPOS>MOLECULE
5B3
   44    46     1     0     0
SMALL
bcc


@<TRIPOS>ATOM
      1 O1         -4.0010   -2.0570   -0.0880 o         1 5B3     -0.658800
      2 C7          0.2020   -1.8560    0.4560 ca        1 5B3     -0.154000
      3 O2         -3.9310   -0.1400   -1.5380 o         1 5B3     -0.658800
      4 C6         -1.1870   -1.8140    0.4050 ca        1 5B3     -0.016000
      5 C1         -5.9370    1.5240    0.2930 c3        1 5B3     -0.116100
      6 N1         -3.9600    0.1790    0.9440 n3        1 5B3     -0.919100
      7 C5         -1.8560   -0.7590   -0.2290 ca        1 5B3     -0.379500
      8 C4         -3.6580    2.4930    0.0870 c3        1 5B3     -0.116100
      9 C3         -4.6390    2.1010    2.3330 c3        1 5B3     -0.116100
     10 C2         -4.5250    1.5230    0.9100 c3        1 5B3      0.263200
     11 S1         -3.5460   -0.7390   -0.3180 sy        1 5B3      1.518200
     12 C10        -1.0910    0.2530   -0.8200 ca        1 5B3     -0.016000
     13 C9          0.2990    0.2230   -0.7750 ca        1 5B3     -0.154000
     14 C8          0.9620   -0.8340   -0.1340 cp        1 5B3      0.037000
     15 C11         2.4220   -0.8710   -0.0820 cp        1 5B3     -0.093000
     16 C17         3.1440    0.3050    0.1490 ca        1 5B3     -0.038000
     17 C16         4.5280    0.2320    0.2040 ca        1 5B3     -0.229900
     18 C15         5.6270    1.1960    0.4260 cc        1 5B3      0.542800
     19 N4          5.4280    2.5360    0.7490 nh        1 5B3     -0.848800
     20 N3          6.8240    0.5430    0.3550 nd        1 5B3     -0.584100
     21 N2          6.5900   -0.7500    0.0350 na        1 5B3      0.003900
     22 C14         5.2060   -1.0240    0.0140 ca        1 5B3     -0.039200
     23 C13         4.4790   -2.1970   -0.2280 ca        1 5B3     -0.144000
     24 C12         3.0960   -2.1000   -0.2660 ca        1 5B3     -0.076000
     25 H7          0.7070   -2.6910    0.9640 ha        1 5B3      0.142000
     26 H6         -1.7770   -2.6320    0.8550 ha        1 5B3      0.153000
     27 H1         -6.6260    0.8740    0.8810 hc        1 5B3      0.048144
     28 H1A        -6.3360    2.5660    0.3000 hc        1 5B3      0.048144
     29 H1B        -5.9040    1.1620   -0.7640 hc        1 5B3      0.048144
     30 HN1        -3.8920   -0.1800    1.8670 hn        1 5B3      0.445800
     31 H4         -4.1010    3.5150    0.1490 hc        1 5B3      0.048144
     32 H4A        -2.6160    2.5330    0.4840 hc        1 5B3      0.048144
     33 H4B        -3.6320    2.1840   -0.9880 hc        1 5B3      0.048144
     34 H3         -5.3020    1.4650    2.9670 hc        1 5B3      0.048144
     35 H3A        -3.6350    2.1720    2.8130 hc        1 5B3      0.048144
     36 H3B        -5.0800    3.1240    2.2750 hc        1 5B3      0.048144
     37 H10        -1.6050    1.0800   -1.3410 ha        1 5B3      0.153000
     38 H9          0.8810    1.0220   -1.2570 ha        1 5B3      0.142000
     39 H17         2.6250    1.2640    0.2960 ha        1 5B3      0.142000
     40 HN4         4.6540    2.9300    0.2570 hn        1 5B3      0.396300
     41 HN4A        6.2490    3.1020    0.6970 hn        1 5B3      0.396300
     42 HN2         7.2540   -1.4150    0.3720 hn        1 5B3      0.302700
     43 H13         4.9850   -3.1590   -0.3850 ha        1 5B3      0.146000
     44 H12         2.4990   -3.0070   -0.4540 ha        1 5B3      0.141000
@<TRIPOS>BOND
     1    1   11 2   
     2    2    4 ar  
     3    2   14 ar  
     4    2   25 1   
     5    3   11 2   
     6    4    7 ar  
     7    4   26 1   
     8    5   10 1   
     9    5   27 1   
    10    5   28 1   
    11    5   29 1   
    12    6   10 1   
    13    6   11 1   
    14    6   30 1   
    15    7   11 1   
    16    7   12 ar  
    17    8   10 1   
    18    8   31 1   
    19    8   32 1   
    20    8   33 1   
    21    9   10 1   
    22    9   34 1   
    23    9   35 1   
    24    9   36 1   
    25   12   13 ar  
    26   12   37 1   
    27   13   14 ar  
    28   13   38 1   
    29   14   15 1   
    30   15   16 ar  
    31   15   24 ar  
    32   16   17 ar  
    33   16   39 1   
    34   17   18 1   
    35   17   22 ar  
    36   18   19 1   
    37   18   20 2   
    38   19   40 1   
    39   19   41 1   
    40   20   21 1   
    41   21   22 1   
    42   21   42 1   
    43   22   23 ar  
    44   23   24 ar  
    45   23   43 1   
    46   24   44 1   
@<TRIPOS>SUBSTRUCTURE
     1 5B3         1 TEMP              0 ****  ****    0 ROOT
