@<TRIPOS>MOLECULE
5B3
   45    47     1     0     0
SMALL
bcc


@<TRIPOS>ATOM
      1 O1          0.6410   -0.2380   -0.4290 o         1 5B3     -0.582300
      2 C7          1.6530    3.1870   -2.8180 ca        1 5B3     -0.170500
      3 O2          2.5010    0.2250    1.0270 o         1 5B3     -0.582300
      4 C6          1.4180    2.0110   -2.1380 ca        1 5B3      0.019500
      5 C1          2.3180   -2.8450    0.1480 c3        1 5B3     -0.130767
      6 N1          2.9550   -0.9030   -1.2870 n4        1 5B3     -0.701900
      7 C5          2.2290    1.6050   -1.0500 ca        1 5B3     -0.590500
      8 C4          4.6220   -1.8840    0.2990 c3        1 5B3     -0.130767
      9 C3          3.9290   -3.1530   -1.7280 c3        1 5B3     -0.130767
     10 C2          3.4500   -2.1820   -0.6420 c3        1 5B3      0.158200
     11 S1          1.9020    0.2890   -0.2150 sy        1 5B3      1.499200
     12 C10         3.2900    2.4690   -0.6830 ca        1 5B3      0.019500
     13 C9          3.5310    3.6470   -1.3590 ca        1 5B3     -0.170500
     14 C8          2.7180    4.0390   -2.4470 cp        1 5B3      0.153000
     15 C11         2.9690    5.2740   -3.1600 cp        1 5B3     -0.169000
     16 C17         4.2750    5.7740   -3.2660 ca        1 5B3      0.013000
     17 C16         4.4870    6.9420   -3.9770 ca        1 5B3     -0.254900
     18 C15         5.6630    7.7550   -4.3410 cc        1 5B3      0.551800
     19 N4          6.9750    7.4040   -4.0460 nh        1 5B3     -0.847800
     20 N3          5.2510    8.8280   -5.0920 nd        1 5B3     -0.553100
     21 N2          3.9170    8.7450   -5.2360 na        1 5B3      0.005900
     22 C14         3.3780    7.6400   -4.5960 ca        1 5B3      0.006800
     23 C13         2.0650    7.1450   -4.4680 ca        1 5B3     -0.148000
     24 C12         1.8870    5.9750   -3.7600 ca        1 5B3     -0.057000
     25 H7          1.0060    3.4630   -3.6690 ha        1 5B3      0.168500
     26 H6          0.5660    1.3700   -2.4340 ha        1 5B3      0.161000
     27 H1          2.0260   -2.2260    1.0330 hc        1 5B3      0.073922
     28 H1A         2.6820   -3.8330    0.5230 hc        1 5B3      0.073922
     29 H1B         1.4190   -3.0220   -0.4920 hc        1 5B3      0.073922
     30 HN1         2.3830   -1.1820   -2.0830 hn        1 5B3      0.438300
     31 H4          5.4790   -1.4290   -0.2550 hc        1 5B3      0.073922
     32 H4A         4.9680   -2.8510    0.7430 hc        1 5B3      0.073922
     33 H4B         4.3160   -1.2090    1.1360 hc        1 5B3      0.073922
     34 H3          4.3190   -4.0780   -1.2350 hc        1 5B3      0.073922
     35 H3A         3.0900   -3.4480   -2.4040 hc        1 5B3      0.073922
     36 H3B         4.7540   -2.7080   -2.3350 hc        1 5B3      0.073922
     37 H10         3.9200    2.1990    0.1850 ha        1 5B3      0.161000
     38 H9          4.3530    4.3050   -1.0300 ha        1 5B3      0.168500
     39 H17         5.1270    5.2400   -2.8180 ha        1 5B3      0.140000
     40 HN4         7.6580    8.0920   -4.2880 hn        1 5B3      0.405300
     41 HN4A        7.0790    7.0590   -3.1150 hn        1 5B3      0.405300
     42 HN2         3.4400    9.4220   -5.7870 hn        1 5B3      0.341700
     43 H13         1.2140    7.6770   -4.9170 ha        1 5B3      0.158000
     44 H12         0.8650    5.5810   -3.6380 ha        1 5B3      0.140000
     45 H121        3.7690   -0.4150   -1.6540 hn        1 5B3      0.438300
@<TRIPOS>BOND
     1    1   11 2   
     2    2    4 ar  
     3    2   14 ar  
     4    2   25 1   
     5    3   11 2   
     6    4    7 ar  
     7    4   26 1   
     8    5   10 1   
     9    5   27 1   
    10    5   28 1   
    11    5   29 1   
    12    6   10 1   
    13    6   11 1   
    14    6   30 1   
    15    6   45 1   
    16    7   11 1   
    17    7   12 ar  
    18    8   10 1   
    19    8   31 1   
    20    8   32 1   
    21    8   33 1   
    22    9   10 1   
    23    9   34 1   
    24    9   35 1   
    25    9   36 1   
    26   12   13 ar  
    27   12   37 1   
    28   13   14 ar  
    29   13   38 1   
    30   14   15 1   
    31   15   16 ar  
    32   15   24 ar  
    33   16   17 ar  
    34   16   39 1   
    35   17   18 1   
    36   17   22 ar  
    37   18   19 1   
    38   18   20 2   
    39   19   40 1   
    40   19   41 1   
    41   20   21 1   
    42   21   22 1   
    43   21   42 1   
    44   22   23 ar  
    45   23   24 ar  
    46   23   43 1   
    47   24   44 1   
@<TRIPOS>SUBSTRUCTURE
     1 5B3         1 TEMP              0 ****  ****    0 ROOT
