@<TRIPOS>MOLECULE
5B3
   44    36     1     0     0
SMALL
bcc


@<TRIPOS>ATOM
      1 O1          0.5330    3.2300    1.7420 o         1 5B3     -0.945000
      2 C7         -0.7300   -0.5500   -1.2930 c1        1 5B3     -0.085000
      3 O2         -1.3580    3.4940    0.6100 o         1 5B3     -0.945000
      4 C6         -1.1840    0.3510   -0.3420 c1        1 5B3     -0.085000
      5 C1         -1.2710    3.7670    4.4040 c3        1 5B3     -0.236000
      6 N1         -1.5160    2.0810    2.7200 n3        1 5B3     -0.899000
      7 C5         -0.2770    1.0750    0.4150 c1        1 5B3     -0.830000
      8 C4         -2.8180    4.0810    2.5030 c3        1 5B3     -0.236000
      9 C3         -3.3300    2.4090    4.2500 c3        1 5B3     -0.236000
     10 C2         -2.2220    3.0680    3.4570 c3        1 5B3      0.099000
     11 S1         -0.6580    2.5090    1.3870 s6        1 5B3      2.874000
     12 C10         1.0840    0.8990    0.2210 c1        1 5B3     -0.014000
     13 C9          1.5390   -0.0010   -0.7290 c1        1 5B3     -0.088667
     14 C8          0.6310   -0.7260   -1.4860 c1        1 5B3     -0.067667
     15 C11         1.0860   -1.6250   -2.4390 c1        1 5B3     -0.067667
     16 C17         1.1350   -2.9850   -2.1800 c1        1 5B3     -0.088667
     17 C16         1.9770   -3.8160   -2.9430 c1        1 5B3     -0.067667
     18 C15         2.2300   -5.1760   -2.8930 c1        1 5B3      0.019000
     19 N4          1.7980   -6.4530   -2.4560 n2        1 5B3     -0.287000
     20 N3          3.1440   -5.4660   -3.8490 n2        1 5B3     -0.116000
     21 N2          3.4670   -4.2980   -4.5000 n2        1 5B3     -0.171000
     22 C14         2.7420   -3.2840   -3.9350 c1        1 5B3      0.007000
     23 C13         2.6910   -1.9020   -4.1980 c1        1 5B3     -0.144000
     24 C12         1.8640   -1.0840   -3.4470 c1        1 5B3     -0.088667
     25 H7         -1.3690   -1.0610   -1.8260 ha        1 5B3      0.149500
     26 H6         -2.1430    0.4740   -0.2060 ha        1 5B3      0.149500
     27 H1         -1.7840    4.2760    5.0660 hc        1 5B3      0.088222
     28 H1A        -0.6950    4.3770    3.8970 hc        1 5B3      0.088222
     29 H1B        -0.7180    3.1000    4.8630 hc        1 5B3      0.088222
     30 HN1        -1.5210    1.2130    3.0000 hn        1 5B3      0.240000
     31 H4         -3.2470    3.6120    1.7560 hc        1 5B3      0.088222
     32 H4A        -2.1080    4.6620    2.1580 hc        1 5B3      0.088222
     33 H4B        -3.4840    4.6230    2.9750 hc        1 5B3      0.088222
     34 H3         -3.9850    2.0210    3.6340 hc        1 5B3      0.088222
     35 H3A        -2.9520    1.7020    4.8140 hc        1 5B3      0.088222
     36 H3B        -3.7690    3.0780    4.8160 hc        1 5B3      0.088222
     37 H10         1.7230    1.4100    0.7550 ha        1 5B3      0.156000
     38 H9          2.4970   -0.1250   -0.8650 ha        1 5B3      0.142333
     39 H17         0.5640   -3.3710   -1.4890 ha        1 5B3      0.142333
     40 HN4         0.9740   -6.5500   -2.0720 hn        1 5B3      0.192500
     41 HN4A        2.3460   -7.1780   -2.5520 hn        1 5B3      0.192500
     42 HN2         4.0600   -4.2140   -5.1870 DU        1 5B3      0.254000
     43 H13         3.2400   -1.5200   -4.9090 ha        1 5B3      0.146000
     44 H12         1.8120   -0.1290   -3.6440 ha        1 5B3      0.142333
@<TRIPOS>BOND
     1    1   11 1   
     2    2    4 1   
     3    2   25 1   
     4    3   11 1   
     5    4   26 1   
     6    5   10 1   
     7    5   27 1   
     8    5   28 1   
     9    5   29 1   
    10    6   10 1   
    11    6   11 1   
    12    6   30 1   
    13    7   11 1   
    14    7   12 1   
    15    8   10 1   
    16    8   31 1   
    17    8   32 1   
    18    8   33 1   
    19    9   10 1   
    20    9   34 1   
    21    9   35 1   
    22    9   36 1   
    23   12   37 1   
    24   13   14 1   
    25   13   38 1   
    26   15   24 1   
    27   16   17 1   
    28   16   39 1   
    29   18   20 1   
    30   19   40 1   
    31   19   41 1   
    32   20   21 1   
    33   21   22 1   
    34   22   23 1   
    35   23   43 1   
    36   24   44 1   
@<TRIPOS>SUBSTRUCTURE
     1 5B3         1 TEMP              0 ****  ****    0 ROOT
