@<TRIPOS>MOLECULE
5B5
   91    93     1     0     0
SMALL
bcc


@<TRIPOS>ATOM
      1 C2       -167.3480 -214.2660-1331.9470 ca        1 5B5      0.311100
      2 C3       -168.6850 -214.6790-1332.2350 ca        1 5B5     -0.214500
      3 C4       -168.9310 -215.4440-1333.3400 ca        1 5B5      0.071500
      4 C5       -167.8890 -215.8550-1334.2370 ca        1 5B5     -0.708500
      5 C6       -166.5630 -215.4210-1333.9140 ca        1 5B5      0.071500
      6 C7       -166.2910 -214.6540-1332.8120 ca        1 5B5     -0.214500
      7 S8       -168.1830 -216.7070-1335.4630 s4        1 5B5      1.663300
      8 O9       -167.1560 -217.0610-1336.2700 o         1 5B5     -0.403900
      9 O10      -169.4600 -217.0820-1335.7080 o         1 5B5     -0.403900
     10 N11        39.8720   52.2920  336.1920 n7        1 5B5     -0.841200
     11 C12        41.0960   51.9550  335.5050 c3        1 5B5      0.167800
     12 C13        41.1560   52.3520  334.0220 c3        1 5B5     -0.063700
     13 C14        42.5200   51.9800  333.4770 c3        1 5B5     -0.096100
     14 C15        40.0630   51.6770  333.2220 c3        1 5B5     -0.096100
     15 C16        39.4680   53.6530  336.2660 c3        1 5B5      0.172800
     16 C17        40.3350   54.5970  337.1430 c3        1 5B5      0.067100
     17 O18        41.6040   54.8950  336.5870 oh        1 5B5     -0.656800
     18 C19        39.5840   55.9260  337.4030 c3        1 5B5      0.117500
     19 N20        40.5040   56.9140  338.1100 ny        1 5B5     -0.660800
     20 C21        40.7940   56.5140  339.5070 c         1 5B5      0.621100
     21 O22        39.9090   56.3130  340.3290 o         1 5B5     -0.378000
     22 O23        42.0600   56.4050  339.9810 os        1 5B5     -0.426900
     23 C24        43.2240   56.2320  339.1260 c3        1 5B5      0.138100
     24 C25        45.1520   57.3850  338.0660 c3        1 5B5      0.131400
     25 O26        46.0360   56.8180  339.0190 os        1 5B5     -0.399600
     26 C27        45.6630   55.5240  339.4510 c3        1 5B5      0.338900
     27 O28        46.4990   55.3300  340.5780 os        1 5B5     -0.350600
     28 C29        45.9180   55.9900  341.7040 c3        1 5B5      0.111400
     29 C30        44.3830   56.0520  341.4420 c3        1 5B5      0.090500
     30 C31        44.2110   55.4750  340.0120 c3        1 5B5     -0.154700
     31 C32        39.0560   56.5610  336.1100 c3        1 5B5     -0.054100
     32 C33        39.3490   59.0470  336.0990 ca        1 5B5     -0.137000
     33 C34        38.8400   60.3360  336.2470 ca        1 5B5     -0.109000
     34 C35        37.5080   60.5230  336.6240 ca        1 5B5     -0.090000
     35 C36        36.6860   59.4190  336.8480 ca        1 5B5     -0.109000
     36 C37        37.1910   58.1270  336.6980 ca        1 5B5     -0.137000
     37 C38        38.5260   57.9340  336.3260 ca        1 5B5     -0.174300
     38 O39      -167.2030 -213.5190-1330.8420 os        1 5B5     -0.262900
     39 C40      -165.8840 -213.0640-1330.4880 c3        1 5B5      0.096700
     40 C51        43.7640   57.5780  338.6700 c3        1 5B5     -0.155400
     41 N52        43.5700   55.3210  342.4600 ny        1 5B5     -0.761000
     42 C53        43.5790   56.0020  343.7980 c3        1 5B5      0.111800
     43 C54        42.8370   55.2080  344.8500 c3        1 5B5     -0.143100
     44 H1       -169.4950 -214.3690-1331.5510 ha        1 5B5      0.193500
     45 H2       -169.9700 -215.7640-1333.5610 ha        1 5B5      0.179500
     46 H3       -165.7340 -215.7210-1334.5870 ha        1 5B5      0.179500
     47 H4       -165.2560 -214.3380-1332.5960 ha        1 5B5      0.193500
     48 H5         41.9930   52.4080  336.0260 h1        1 5B5      0.039700
     49 H6         41.1990   50.8320  335.5650 h1        1 5B5      0.039700
     50 H7         41.0320   53.4680  333.9280 hc        1 5B5      0.013700
     51 H8         42.6840   50.8770  333.5460 hc        1 5B5      0.048367
     52 H9         43.3300   52.4950  334.0480 hc        1 5B5      0.048367
     53 H10        42.5970   52.2780  332.4030 hc        1 5B5      0.048367
     54 H11        40.1260   50.5670  333.3320 hc        1 5B5      0.048367
     55 H12        40.1700   51.9300  332.1390 hc        1 5B5      0.048367
     56 H13        39.0550   52.0100  333.5670 hc        1 5B5      0.048367
     57 H14        39.4460   54.0800  335.2210 h1        1 5B5      0.079700
     58 H15        38.4220   53.6810  336.6870 h1        1 5B5      0.079700
     59 H16        40.5510   54.1100  338.1390 h1        1 5B5      0.061700
     60 H17        41.6310   54.5810  335.6700 ho        1 5B5      0.461000
     61 H18        38.7210   55.7300  338.1100 hx        1 5B5      0.129700
     62 H19        40.0260   57.8380  338.1180 hn        1 5B5      0.486300
     63 H20        42.9550   55.5790  338.2450 h1        1 5B5      0.111700
     64 H21        45.1030   56.7430  337.1470 h1        1 5B5      0.092700
     65 H22        45.6230   58.3770  337.8170 h1        1 5B5      0.092700
     66 H23        45.9050   54.7340  338.6940 h2        1 5B5      0.135700
     67 H24        46.2240   55.3870  342.5970 h1        1 5B5      0.104200
     68 H25        46.3290   57.0320  341.7690 h1        1 5B5      0.104200
     69 H26        44.0400   57.1280  341.4660 hx        1 5B5      0.122700
     70 H27        43.8980   54.3960  340.0510 hc        1 5B5      0.095700
     71 H28        38.2320   55.8920  335.7300 hc        1 5B5      0.097200
     72 H29        39.8700   56.5670  335.3350 hc        1 5B5      0.097200
     73 H32        37.1030   61.5440  336.7270 ha        1 5B5      0.168000
     74 H33        35.6290   59.5650  337.1270 ha        1 5B5      0.163000
     75 H34        36.5290   57.2600  336.8510 ha        1 5B5      0.135000
     76 H35      -166.0760 -212.4820-1329.5480 h1        1 5B5      0.082700
     77 H36      -165.4770 -212.4080-1331.2930 h1        1 5B5      0.082700
     78 H37      -165.2190 -213.9390-1330.2910 h1        1 5B5      0.082700
     79 H38        43.8270   58.2840  339.5400 hc        1 5B5      0.073700
     80 H39        43.1000   58.0440  337.9000 hc        1 5B5      0.073700
     81 H40        43.9360   54.3660  342.5710 hn        1 5B5      0.454800
     82 H42        43.1060   57.0170  343.6670 hx        1 5B5      0.109700
     83 H43        44.6570   56.1420  344.1020 hx        1 5B5      0.109700
     84 H44        42.8910   55.7800  345.8140 hc        1 5B5      0.088367
     85 H45        41.7580   55.0730  344.5890 hc        1 5B5      0.088367
     86 H46        43.3000   54.2050  345.0220 hc        1 5B5      0.088367
     87 H30        40.3800   58.9080  335.7410 ha        1 5B5      0.135000
     88 H111       39.7820   51.8040  337.0590 hn        1 5B5      0.395800
     89 H202       41.3670   56.9860  337.5540 hn        1 5B5      0.486300
     90 H522       42.6010   55.2580  342.1230 hn        1 5B5      0.454800
     91 H31        39.4820   61.2090  336.0450 ha        1 5B5      0.163000
@<TRIPOS>BOND
     1    1    2 ar  
     2    1    6 ar  
     3    1   38 1   
     4    2    3 ar  
     5    2   44 1   
     6    3    4 ar  
     7    3   45 1   
     8    4    5 ar  
     9    4    7 1   
    10    5    6 ar  
    11    5   46 1   
    12    6   47 1   
    13    7    8 1   
    14    7    9 1   
    15   10   11 1   
    16   10   15 1   
    17   10   88 1   
    18   11   12 1   
    19   11   48 1   
    20   11   49 1   
    21   12   13 1   
    22   12   14 1   
    23   12   50 1   
    24   13   51 1   
    25   13   52 1   
    26   13   53 1   
    27   14   54 1   
    28   14   55 1   
    29   14   56 1   
    30   15   16 1   
    31   15   57 1   
    32   15   58 1   
    33   16   17 1   
    34   16   18 1   
    35   16   59 1   
    36   17   60 1   
    37   18   19 1   
    38   18   31 1   
    39   18   61 1   
    40   19   20 1   
    41   19   62 1   
    42   19   89 1   
    43   20   21 2   
    44   20   22 1   
    45   22   23 1   
    46   23   30 1   
    47   23   40 1   
    48   23   63 1   
    49   24   25 1   
    50   24   40 1   
    51   24   64 1   
    52   24   65 1   
    53   25   26 1   
    54   26   27 1   
    55   26   30 1   
    56   26   66 1   
    57   27   28 1   
    58   28   29 1   
    59   28   67 1   
    60   28   68 1   
    61   29   30 1   
    62   29   41 1   
    63   29   69 1   
    64   30   70 1   
    65   31   37 1   
    66   31   71 1   
    67   31   72 1   
    68   32   33 ar  
    69   32   37 ar  
    70   32   87 1   
    71   33   34 ar  
    72   33   91 1   
    73   34   35 ar  
    74   34   73 1   
    75   35   36 ar  
    76   35   74 1   
    77   36   37 ar  
    78   36   75 1   
    79   38   39 1   
    80   39   76 1   
    81   39   77 1   
    82   39   78 1   
    83   40   79 1   
    84   40   80 1   
    85   41   42 1   
    86   41   81 1   
    87   41   90 1   
    88   42   43 1   
    89   42   82 1   
    90   42   83 1   
    91   43   84 1   
    92   43   85 1   
    93   43   86 1   
@<TRIPOS>SUBSTRUCTURE
     1 5B5         1 TEMP              0 ****  ****    0 ROOT
