@<TRIPOS>MOLECULE
5B7
   86    88     1     0     0
SMALL
bcc


@<TRIPOS>ATOM
      1 C2         -0.3410    0.0200    0.0190 ca        1 5B7      0.307100
      2 C3          0.5940   -0.6570    0.8450 ca        1 5B7     -0.213500
      3 C4          0.7010   -0.3190    2.1700 ca        1 5B7      0.063500
      4 C5         -0.1050    0.6990    2.7680 ca        1 5B7     -0.693500
      5 C6         -1.0320    1.3670    1.9020 ca        1 5B7      0.063500
      6 C7         -1.1560    1.0520    0.5780 ca        1 5B7     -0.213500
      7 S8         -0.0370    1.0230    4.2620 s4        1 5B7      1.690300
      8 O9         -0.9510    1.8870    4.7870 o         1 5B7     -0.455900
      9 O10         0.7480    0.2620    5.0760 o         1 5B7     -0.455900
     10 N11         1.6250    2.8250    4.2820 n7        1 5B7     -0.908200
     11 C12         3.0010    2.3250    4.2490 c3        1 5B7      0.106800
     12 C13         3.5020    1.9300    2.8520 c3        1 5B7     -0.070700
     13 C14         3.6580    3.1390    1.9550 c3        1 5B7     -0.105100
     14 C15         4.8260    1.2080    3.0040 c3        1 5B7     -0.105100
     15 C16         1.3560    3.7240    5.4060 c3        1 5B7      0.093800
     16 C17         1.5770    3.1070    6.8030 c3        1 5B7      0.118100
     17 O18         2.9130    3.2860    7.2410 oh        1 5B7     -0.610800
     18 C19         0.6880    3.8480    7.8390 c3        1 5B7      0.142500
     19 N20         0.9420    3.3220    9.2290 ny        1 5B7     -0.637800
     20 C21         0.4900    1.9130    9.4120 c         1 5B7      0.640100
     21 O22        -0.3820    1.3960    8.7260 o         1 5B7     -0.445000
     22 O23         1.2040    1.2980   10.3760 os        1 5B7     -0.402900
     23 C24         0.4840    0.2480   11.1190 c3        1 5B7      0.181100
     24 C25         1.5490   -0.4520   11.9450 c3        1 5B7     -0.127400
     25 O26        -0.0190   -0.6460   13.7940 os        1 5B7     -0.407600
     26 C27        -1.0860   -0.0080   13.1080 c3        1 5B7      0.341900
     27 O28        -1.6030    0.8510   14.1070 os        1 5B7     -0.368600
     28 C29        -0.9990    2.1500   14.0020 c3        1 5B7      0.101400
     29 C30        -0.1530    2.1730   12.7150 c3        1 5B7      0.118100
     30 C31        -0.5950    0.9040   11.9570 c3        1 5B7     -0.177700
     31 C32         0.9330    5.3630    7.7970 c3        1 5B7     -0.052100
     32 C33         0.9370    6.9890    9.6910 ca        1 5B7     -0.127500
     33 C34         0.2660    7.7630   10.6390 ca        1 5B7     -0.116000
     34 C35        -1.1180    7.6580   10.7750 ca        1 5B7     -0.099000
     35 C36        -1.8330    6.7760    9.9620 ca        1 5B7     -0.116000
     36 C37        -1.1670    6.0050    9.0120 ca        1 5B7     -0.127500
     37 C38         0.2240    6.1050    8.8730 ca        1 5B7     -0.174300
     38 O39        -0.5410   -0.2270   -1.2840 os        1 5B7     -0.260900
     39 C40         0.2260   -1.2700   -1.9130 c3        1 5B7      0.096700
     40 O41        -0.3960    3.2960   11.8670 os        1 5B7     -0.483600
     41 C42        -0.1510    4.5440   12.5060 c3        1 5B7      0.098700
     42 C44         0.8570   -1.3720   12.9460 c3        1 5B7      0.132400
     43 H1          1.2260   -1.4570    0.4220 ha        1 5B7      0.194000
     44 H2          1.4280   -0.8570    2.8110 ha        1 5B7      0.172000
     45 H3         -1.6770    2.1580    2.3350 ha        1 5B7      0.172000
     46 H4         -1.8790    1.5690   -0.0780 ha        1 5B7      0.194000
     47 H5          3.0330    1.4180    4.9210 h1        1 5B7      0.068700
     48 H6          3.7180    3.0940    4.6620 h1        1 5B7      0.068700
     49 H7          2.7610    1.2200    2.3820 hc        1 5B7      0.033700
     50 H8          4.1380    2.8360    0.9910 hc        1 5B7      0.053867
     51 H9          4.3090    3.9080    2.4370 hc        1 5B7      0.053867
     52 H10         2.6720    3.6030    1.7160 hc        1 5B7      0.053867
     53 H11         5.2000    0.8850    2.0020 hc        1 5B7      0.053867
     54 H12         5.5920    1.8820    3.4610 hc        1 5B7      0.053867
     55 H13         4.7150    0.3040    3.6490 hc        1 5B7      0.053867
     56 H14         0.2710    4.0280    5.3180 h1        1 5B7      0.092200
     57 H15         1.9970    4.6530    5.3440 h1        1 5B7      0.092200
     58 H16         1.3080    2.0100    6.8030 h1        1 5B7      0.070700
     59 H17         3.4790    2.6830    6.7400 ho        1 5B7      0.442000
     60 H18        -0.3960    3.6210    7.5990 hx        1 5B7      0.129700
     61 H19         1.9500    3.3860    9.4350 hn        1 5B7      0.497300
     62 H20         0.0290   -0.4500   10.3620 h1        1 5B7      0.091700
     63 H21         2.2230   -1.0500   11.2800 hc        1 5B7      0.082200
     64 H22         2.1750    0.3020   12.4890 hc        1 5B7      0.082200
     65 H23        -1.8860   -0.7380   12.8240 h2        1 5B7      0.107700
     66 H24        -0.3690    2.3050   14.9140 h1        1 5B7      0.080700
     67 H25        -1.8450    2.8830   13.9710 h1        1 5B7      0.080700
     68 H26         0.9440    2.1410   12.9590 h1        1 5B7      0.068700
     69 H27        -1.4690    1.1620   11.2990 hc        1 5B7      0.097700
     70 H28         2.0400    5.5590    7.8370 hc        1 5B7      0.091700
     71 H29         0.5600    5.7320    6.8010 hc        1 5B7      0.091700
     72 H32        -1.6500    8.2810   11.5130 ha        1 5B7      0.164000
     73 H33        -2.9280    6.7010   10.0600 ha        1 5B7      0.161000
     74 H34        -1.7430    5.3400    8.3510 ha        1 5B7      0.138000
     75 H35         0.0100   -2.2510   -1.4260 h1        1 5B7      0.084367
     76 H36         1.3130   -1.0200   -1.8780 h1        1 5B7      0.084367
     77 H37        -0.1610   -1.2480   -2.9670 h1        1 5B7      0.084367
     78 H38         0.9200    4.6140   12.8200 h1        1 5B7      0.054033
     79 H39        -0.8190    4.6760   13.3920 h1        1 5B7      0.054033
     80 H40        -0.3930    5.3110   11.7230 h1        1 5B7      0.054033
     81 H41         0.2970   -2.1860   12.4130 h1        1 5B7      0.077700
     82 H42         1.6080   -1.8210   13.6510 h1        1 5B7      0.077700
     83 H30         2.0270    7.0980    9.5740 ha        1 5B7      0.138000
     84 H111        1.4500    3.3500    3.4340 hn        1 5B7      0.401800
     85 H202        0.4220    3.9070    9.9180 hn        1 5B7      0.497300
     86 H31         0.8310    8.4690   11.2690 ha        1 5B7      0.161000
@<TRIPOS>BOND
     1    1    2 ar  
     2    1    6 ar  
     3    1   38 1   
     4    2    3 ar  
     5    2   43 1   
     6    3    4 ar  
     7    3   44 1   
     8    4    5 ar  
     9    4    7 1   
    10    5    6 ar  
    11    5   45 1   
    12    6   46 1   
    13    7    8 1   
    14    7    9 1   
    15   10   11 1   
    16   10   15 1   
    17   10   84 1   
    18   11   12 1   
    19   11   47 1   
    20   11   48 1   
    21   12   13 1   
    22   12   14 1   
    23   12   49 1   
    24   13   50 1   
    25   13   51 1   
    26   13   52 1   
    27   14   53 1   
    28   14   54 1   
    29   14   55 1   
    30   15   16 1   
    31   15   56 1   
    32   15   57 1   
    33   16   17 1   
    34   16   18 1   
    35   16   58 1   
    36   17   59 1   
    37   18   19 1   
    38   18   31 1   
    39   18   60 1   
    40   19   20 1   
    41   19   61 1   
    42   19   85 1   
    43   20   21 2   
    44   20   22 1   
    45   22   23 1   
    46   23   24 1   
    47   23   30 1   
    48   23   62 1   
    49   24   42 1   
    50   24   63 1   
    51   24   64 1   
    52   25   26 1   
    53   25   42 1   
    54   26   27 1   
    55   26   30 1   
    56   26   65 1   
    57   27   28 1   
    58   28   29 1   
    59   28   66 1   
    60   28   67 1   
    61   29   30 1   
    62   29   40 1   
    63   29   68 1   
    64   30   69 1   
    65   31   37 1   
    66   31   70 1   
    67   31   71 1   
    68   32   33 ar  
    69   32   37 ar  
    70   32   83 1   
    71   33   34 ar  
    72   33   86 1   
    73   34   35 ar  
    74   34   72 1   
    75   35   36 ar  
    76   35   73 1   
    77   36   37 ar  
    78   36   74 1   
    79   38   39 1   
    80   39   75 1   
    81   39   76 1   
    82   39   77 1   
    83   40   41 1   
    84   41   78 1   
    85   41   79 1   
    86   41   80 1   
    87   42   81 1   
    88   42   82 1   
@<TRIPOS>SUBSTRUCTURE
     1 5B7         1 TEMP              0 ****  ****    0 ROOT
