@<TRIPOS>MOLECULE
5B8
  105   109     1     0     0
SMALL
bcc


@<TRIPOS>ATOM
      1 CAW        -2.0590   -1.3360    2.0100 c3        1 5B8     -0.076400
      2 CAO        -1.6810   -2.5890    2.7700 c3        1 5B8     -0.074900
      3 CAN        -1.1340   -2.2540    4.1410 c3        1 5B8     -0.077400
      4 CAP         0.0360   -1.2990    4.0360 c3        1 5B8     -0.074900
      5 CAX        -0.3310   -0.0460    3.2670 c3        1 5B8     -0.076400
      6 CBS        -0.8760   -0.3810    1.8850 c3        1 5B8     -0.055700
      7 CBU        -1.3060    0.8800    1.1330 c3        1 5B8     -0.150700
      8 CBQ        -0.1850    1.9340    1.0370 c3        1 5B8      0.150100
      9 CAC         1.0810    1.4100    0.3900 c3        1 5B8     -0.138100
     10 OAF        -0.6600    3.0990    0.3820 oh        1 5B8     -0.611800
     11 CBK        -1.7560    0.5020   -0.2760 c         1 5B8      0.665100
     12 OAE        -1.1430   -0.3600   -0.9390 o         1 5B8     -0.608100
     13 N          -2.8750    1.1200   -0.8380 n         1 5B8     -0.461800
     14 CBA        -3.6070    2.1550   -0.1380 c3        1 5B8      0.083000
     15 CAR        -4.5400    2.9600   -1.0410 c3        1 5B8     -0.093400
     16 CAQ        -5.4090    2.0510   -1.8780 c3        1 5B8     -0.080400
     17 CB         -4.5960    1.0300   -2.6500 c3        1 5B8     -0.077400
     18 CA         -3.1110    0.9680   -2.2570 c3        1 5B8      0.066700
     19 C          -2.3120    1.9820   -3.0860 c         1 5B8      0.616100
     20 O          -1.5960    2.9060   -2.6950 o         1 5B8     -0.551000
     21 OBI        -2.4420    1.7560   -4.4260 os        1 5B8     -0.439900
     22 CBR        -1.7110    2.6030   -5.3410 c3        1 5B8      0.190400
     23 CAZ        -2.6360    2.8230   -6.5380 c3        1 5B8     -0.078400
     24 CAV        -3.8250    3.6860   -6.1660 c3        1 5B8     -0.034100
     25 CBL        -4.7520    3.8730   -7.3160 ca        1 5B8     -0.078300
     26 CAM        -5.5310    2.7940   -7.7610 ca        1 5B8     -0.178000
     27 CAJ        -4.8650    5.1110   -7.9450 ca        1 5B8     -0.125000
     28 CAK        -5.7440    5.2910   -9.0160 ca        1 5B8     -0.178000
     29 CBO        -6.5210    4.2240   -9.4660 ca        1 5B8      0.101100
     30 OBE        -7.4210    4.2840  -10.5110 os        1 5B8     -0.303900
     31 CAA        -7.5350    5.5440  -11.1610 c3        1 5B8      0.110700
     32 CBP        -6.4110    2.9580   -8.8280 ca        1 5B8      0.104100
     33 OBF        -7.2230    1.9670   -9.3430 os        1 5B8     -0.304900
     34 CAB        -7.0990    0.6850   -8.7380 c3        1 5B8      0.110700
     35 CBN        -0.4480    1.9130   -5.7650 ca        1 5B8     -0.081300
     36 CAL         0.7230    2.6570   -5.9000 ca        1 5B8     -0.139000
     37 CAI        -0.4430    0.5390   -6.0390 ca        1 5B8     -0.140000
     38 CAG         0.7290   -0.0870   -6.4510 ca        1 5B8     -0.098000
     39 CAH         1.9090    0.6420   -6.6030 ca        1 5B8     -0.197000
     40 CBM         1.9010    2.0140   -6.3270 ca        1 5B8      0.126100
     41 OBH         2.9930    2.8480   -6.4650 os        1 5B8     -0.326900
     42 CAU         4.2520    2.1970   -6.6690 c3        1 5B8      0.129400
     43 CBD         5.3090    3.3090   -6.6020 c3        1 5B8      0.171800
     44 NBV         5.7960    3.5520   -5.2550 n3        1 5B8     -0.731600
     45 CBB         6.1680    4.9420   -5.0280 c3        1 5B8      0.137300
     46 CAS         6.7170    5.1750   -3.6150 c3        1 5B8      0.126400
     47 OBG         7.7740    4.2740   -3.3040 os        1 5B8     -0.416600
     48 CAT         7.3780    2.9160   -3.4470 c3        1 5B8      0.126400
     49 CBC         6.8490    2.6280   -4.8570 c3        1 5B8      0.137300
     50 H1         -2.4160   -1.6150    0.9830 hc        1 5B8      0.041950
     51 H2         -2.9030   -0.8180    2.5370 hc        1 5B8      0.041950
     52 H3         -2.5830   -3.2470    2.8740 hc        1 5B8      0.041450
     53 H4         -0.9120   -3.1620    2.1880 hc        1 5B8      0.041450
     54 H5         -1.9420   -1.7900    4.7650 hc        1 5B8      0.039200
     55 H6         -0.8080   -3.1940    4.6580 hc        1 5B8      0.039200
     56 H7          0.8910   -1.8130    3.5230 hc        1 5B8      0.041450
     57 H8          0.3830   -1.0140    5.0640 hc        1 5B8      0.041450
     58 H9         -1.0970    0.5380    3.8390 hc        1 5B8      0.041950
     59 H10         0.5850    0.5950    3.1690 hc        1 5B8      0.041950
     60 H11        -0.0690   -0.8910    1.2860 hc        1 5B8      0.076700
     61 H12        -2.1540    1.3470    1.7090 hc        1 5B8      0.072700
     62 H13         0.0360    2.2990    2.0830 h1        1 5B8      0.073700
     63 H14         1.5960    0.6960    1.0760 hc        1 5B8      0.054367
     64 H15         1.7690    2.2630    0.1730 hc        1 5B8      0.054367
     65 H16         0.8500    0.8800   -0.5670 hc        1 5B8      0.054367
     66 H17        -0.6680    2.9320   -0.5720 ho        1 5B8      0.425000
     67 H18        -2.8870    2.8740    0.3530 h1        1 5B8      0.057200
     68 H19        -4.2180    1.6570    0.6690 h1        1 5B8      0.057200
     69 H20        -5.1760    3.6140   -0.3910 hc        1 5B8      0.058700
     70 H21        -3.9300    3.6270   -1.7070 hc        1 5B8      0.058700
     71 H22        -6.0140    2.6680   -2.5920 hc        1 5B8      0.046700
     72 H23        -6.1350    1.5180   -1.2080 hc        1 5B8      0.046700
     73 H24        -5.0340    0.0100   -2.4860 hc        1 5B8      0.061700
     74 H25        -4.6500    1.2420   -3.7510 hc        1 5B8      0.061700
     75 H26        -2.7090   -0.0480   -2.5710 h1        1 5B8      0.117700
     76 H27        -1.4740    3.5830   -4.8400 h1        1 5B8      0.085700
     77 H28        -2.0410    3.3130   -7.3520 hc        1 5B8      0.062200
     78 H29        -2.9910    1.8300   -6.9190 hc        1 5B8      0.062200
     79 H30        -3.4630    4.6840   -5.7980 hc        1 5B8      0.050700
     80 H31        -4.3780    3.1980   -5.3170 hc        1 5B8      0.050700
     81 H32        -5.4350    1.8210   -7.2580 ha        1 5B8      0.140000
     82 H33        -4.2590    5.9620   -7.6010 ha        1 5B8      0.134000
     83 H34        -5.8160    6.2770   -9.4960 ha        1 5B8      0.139000
     84 H35        -7.8920    6.3270  -10.4480 h1        1 5B8      0.043367
     85 H36        -8.3000    5.3560  -11.9560 h1        1 5B8      0.043367
     86 H37        -6.5600    5.8460  -11.6160 h1        1 5B8      0.043367
     87 H38        -6.0590    0.2930   -8.8480 h1        1 5B8      0.043033
     88 H39        -7.3900    0.7270   -7.6600 h1        1 5B8      0.043033
     89 H40        -7.8220    0.0560   -9.3170 h1        1 5B8      0.043033
     90 H41         0.7480    3.7330   -5.6760 ha        1 5B8      0.152000
     91 H42        -1.3720   -0.0380   -5.9140 ha        1 5B8      0.142000
     92 H43         0.7300   -1.1670   -6.6590 ha        1 5B8      0.133000
     93 H44         2.8250    0.1350   -6.9340 ha        1 5B8      0.135000
     94 H45         4.4070    1.4040   -5.8930 h1        1 5B8      0.044200
     95 H46         4.2600    1.7360   -7.6920 h1        1 5B8      0.044200
     96 H47         6.1440    3.0190   -7.3040 h1        1 5B8      0.049200
     97 H48         4.8360    4.2530   -6.9990 h1        1 5B8      0.049200
     98 H50         5.2440    5.5710   -5.1590 h1        1 5B8      0.039200
     99 H51         6.9410    5.2920   -5.7730 h1        1 5B8      0.039200
    100 H52         7.1860    6.1910   -3.5470 h1        1 5B8      0.054950
    101 H53         5.9000    5.0740   -2.8520 h1        1 5B8      0.054950
    102 H54         8.3150    2.3290   -3.2590 h1        1 5B8      0.054950
    103 H55         6.6030    2.6660   -2.6750 h1        1 5B8      0.054950
    104 H56         7.7210    2.6560   -5.5750 h1        1 5B8      0.039200
    105 H57         6.4200    1.5880   -4.8740 h1        1 5B8      0.039200
@<TRIPOS>BOND
     1    1    2 1   
     2    1    6 1   
     3    1   50 1   
     4    1   51 1   
     5    2    3 1   
     6    2   52 1   
     7    2   53 1   
     8    3    4 1   
     9    3   54 1   
    10    3   55 1   
    11    4    5 1   
    12    4   56 1   
    13    4   57 1   
    14    5    6 1   
    15    5   58 1   
    16    5   59 1   
    17    6    7 1   
    18    6   60 1   
    19    7    8 1   
    20    7   11 1   
    21    7   61 1   
    22    8    9 1   
    23    8   10 1   
    24    8   62 1   
    25    9   63 1   
    26    9   64 1   
    27    9   65 1   
    28   10   66 1   
    29   11   12 2   
    30   11   13 1   
    31   13   14 1   
    32   13   18 1   
    33   14   15 1   
    34   14   67 1   
    35   14   68 1   
    36   15   16 1   
    37   15   69 1   
    38   15   70 1   
    39   16   17 1   
    40   16   71 1   
    41   16   72 1   
    42   17   18 1   
    43   17   73 1   
    44   17   74 1   
    45   18   19 1   
    46   18   75 1   
    47   19   20 2   
    48   19   21 1   
    49   21   22 1   
    50   22   23 1   
    51   22   35 1   
    52   22   76 1   
    53   23   24 1   
    54   23   77 1   
    55   23   78 1   
    56   24   25 1   
    57   24   79 1   
    58   24   80 1   
    59   25   26 ar  
    60   25   27 ar  
    61   26   32 ar  
    62   26   81 1   
    63   27   28 ar  
    64   27   82 1   
    65   28   29 ar  
    66   28   83 1   
    67   29   30 1   
    68   29   32 ar  
    69   30   31 1   
    70   31   84 1   
    71   31   85 1   
    72   31   86 1   
    73   32   33 1   
    74   33   34 1   
    75   34   87 1   
    76   34   88 1   
    77   34   89 1   
    78   35   36 ar  
    79   35   37 ar  
    80   36   40 ar  
    81   36   90 1   
    82   37   38 ar  
    83   37   91 1   
    84   38   39 ar  
    85   38   92 1   
    86   39   40 ar  
    87   39   93 1   
    88   40   41 1   
    89   41   42 1   
    90   42   43 1   
    91   42   94 1   
    92   42   95 1   
    93   43   44 1   
    94   43   96 1   
    95   43   97 1   
    96   44   45 1   
    97   44   49 1   
    98   45   46 1   
    99   45   98 1   
   100   45   99 1   
   101   46   47 1   
   102   46  100 1   
   103   46  101 1   
   104   47   48 1   
   105   48   49 1   
   106   48  102 1   
   107   48  103 1   
   108   49  104 1   
   109   49  105 1   
@<TRIPOS>SUBSTRUCTURE
     1 5B8         1 TEMP              0 ****  ****    0 ROOT
