@<TRIPOS>MOLECULE
5B8
  105   109     1     0     0
SMALL
bcc


@<TRIPOS>ATOM
      1 CAW        -2.0300   -1.3650    1.9910 c3        1 5B8     -0.076400
      2 CAO        -1.6430   -2.6200    2.7450 c3        1 5B8     -0.074900
      3 CAN        -1.0970   -2.2870    4.1180 c3        1 5B8     -0.077400
      4 CAP         0.0670   -1.3230    4.0160 c3        1 5B8     -0.074900
      5 CAX        -0.3090   -0.0700    3.2530 c3        1 5B8     -0.076400
      6 CBS        -0.8530   -0.4020    1.8700 c3        1 5B8     -0.055700
      7 CBU        -1.2930    0.8590    1.1240 c3        1 5B8     -0.150700
      8 CBQ        -0.1800    1.9220    1.0320 c3        1 5B8      0.150100
      9 CAC         1.0900    1.4090    0.3810 c3        1 5B8     -0.138100
     10 OAF        -0.6630    3.0860    0.3830 oh        1 5B8     -0.611800
     11 CBK        -1.7420    0.4840   -0.2860 c         1 5B8      0.665100
     12 OAE        -1.1230   -0.3700   -0.9540 o         1 5B8     -0.608100
     13 N          -2.8650    1.0970   -0.8450 n         1 5B8     -0.461800
     14 CBA        -3.6040    2.1240   -0.1400 c3        1 5B8      0.083000
     15 CAR        -4.5430    2.9250   -1.0380 c3        1 5B8     -0.093400
     16 CAQ        -5.4060    2.0140   -1.8790 c3        1 5B8     -0.080400
     17 CB         -4.5870    1.0020   -2.6550 c3        1 5B8     -0.077400
     18 CA         -3.1010    0.9500   -2.2640 c3        1 5B8      0.066700
     19 C          -2.3110    1.9730   -3.0900 c         1 5B8      0.616100
     20 O          -1.6000    2.9000   -2.6950 o         1 5B8     -0.551000
     21 OBI        -2.4400    1.7520   -4.4300 os        1 5B8     -0.439900
     22 CBR        -1.7160    2.6080   -5.3430 c3        1 5B8      0.190400
     23 CAZ        -2.6440    2.8270   -6.5370 c3        1 5B8     -0.078400
     24 CAV        -3.8380    3.6810   -6.1600 c3        1 5B8     -0.034100
     25 CBL        -4.7690    3.8660   -7.3080 ca        1 5B8     -0.078300
     26 CAM        -5.5420    2.7840   -7.7550 ca        1 5B8     -0.178000
     27 CAJ        -4.8900    5.1060   -7.9330 ca        1 5B8     -0.125000
     28 CAK        -5.7720    5.2840   -9.0010 ca        1 5B8     -0.178000
     29 CBO        -6.5430    4.2140   -9.4540 ca        1 5B8      0.101100
     30 OBE        -7.4450    4.2710  -10.4970 os        1 5B8     -0.303900
     31 CAA        -7.5690    5.5340  -11.1410 c3        1 5B8      0.110700
     32 CBP        -6.4240    2.9460   -8.8200 ca        1 5B8      0.104100
     33 OBF        -7.2320    1.9520   -9.3360 os        1 5B8     -0.304900
     34 CAB        -7.0980    0.6690   -8.7360 c3        1 5B8      0.110700
     35 CBN        -0.4480    1.9290   -5.7710 ca        1 5B8     -0.081300
     36 CAL         0.7180    2.6810   -5.9010 ca        1 5B8     -0.139000
     37 CAI        -0.4360    0.5560   -6.0530 ca        1 5B8     -0.140000
     38 CAG         0.7410   -0.0590   -6.4690 ca        1 5B8     -0.098000
     39 CAH         1.9160    0.6780   -6.6170 ca        1 5B8     -0.197000
     40 CBM         1.8990    2.0480   -6.3310 ca        1 5B8      0.126100
     41 OBH         2.9870    2.8890   -6.4640 os        1 5B8     -0.326900
     42 CAU         4.2500    2.2470   -6.6680 c3        1 5B8      0.129400
     43 CBD         5.3010    3.3650   -6.5890 c3        1 5B8      0.171800
     44 NBV         5.7820    3.6010   -5.2390 n3        1 5B8     -0.731600
     45 CBB         6.1480    4.9900   -5.0020 c3        1 5B8      0.137300
     46 CAS         6.6900    5.2170   -3.5850 c3        1 5B8      0.126400
     47 OBG         7.7490    4.3180   -3.2760 os        1 5B8     -0.416600
     48 CAT         7.3590    2.9590   -3.4290 c3        1 5B8      0.126400
     49 CBC         6.8370    2.6780   -4.8430 c3        1 5B8      0.137300
     50 H1         -2.3860   -1.6430    0.9640 hc        1 5B8      0.041950
     51 H2         -2.8770   -0.8560    2.5220 hc        1 5B8      0.041950
     52 H3         -2.5400   -3.2840    2.8470 hc        1 5B8      0.041450
     53 H4         -0.8700   -3.1840    2.1600 hc        1 5B8      0.041450
     54 H5         -1.9080   -1.8310    4.7440 hc        1 5B8      0.039200
     55 H6         -0.7630   -3.2270    4.6300 hc        1 5B8      0.039200
     56 H7          0.4120   -1.0400    5.0450 hc        1 5B8      0.041450
     57 H8          0.9250   -1.8290    3.5000 hc        1 5B8      0.041450
     58 H9         -1.0800    0.5070    3.8290 hc        1 5B8      0.041950
     59 H10         0.6010    0.5780    3.1570 hc        1 5B8      0.041950
     60 H11        -0.0430   -0.9040    1.2680 hc        1 5B8      0.076700
     61 H12        -2.1430    1.3180    1.7020 hc        1 5B8      0.072700
     62 H13         0.0400    2.2840    2.0790 h1        1 5B8      0.073700
     63 H14         0.8620    0.8820   -0.5780 hc        1 5B8      0.054367
     64 H15         1.7720    2.2680    0.1670 hc        1 5B8      0.054367
     65 H16         1.6100    0.6950    1.0630 hc        1 5B8      0.054367
     66 H17        -0.6710    2.9230   -0.5730 ho        1 5B8      0.425000
     67 H18        -4.2110    1.6180    0.6660 h1        1 5B8      0.057200
     68 H19        -2.8880    2.8460    0.3540 h1        1 5B8      0.057200
     69 H20        -5.1840    3.5720   -0.3850 hc        1 5B8      0.058700
     70 H21        -3.9390    3.6000   -1.7020 hc        1 5B8      0.058700
     71 H22        -6.1280    1.4730   -1.2100 hc        1 5B8      0.046700
     72 H23        -6.0170    2.6300   -2.5890 hc        1 5B8      0.046700
     73 H24        -5.0180   -0.0220   -2.4950 hc        1 5B8      0.061700
     74 H25        -4.6440    1.2190   -3.7550 hc        1 5B8      0.061700
     75 H26        -2.6920   -0.0630   -2.5830 h1        1 5B8      0.117700
     76 H27        -1.4860    3.5880   -4.8370 h1        1 5B8      0.085700
     77 H28        -2.0530    3.3250   -7.3500 hc        1 5B8      0.062200
     78 H29        -2.9930    1.8330   -6.9220 hc        1 5B8      0.062200
     79 H30        -4.3860    3.1860   -5.3120 hc        1 5B8      0.050700
     80 H31        -3.4820    4.6790   -5.7890 hc        1 5B8      0.050700
     81 H32        -5.4390    1.8100   -7.2550 ha        1 5B8      0.140000
     82 H33        -4.2880    5.9590   -7.5860 ha        1 5B8      0.134000
     83 H34        -5.8500    6.2710   -9.4780 ha        1 5B8      0.139000
     84 H35        -7.9290    6.3110  -10.4240 h1        1 5B8      0.043367
     85 H36        -6.5970    5.8430  -11.5970 h1        1 5B8      0.043367
     86 H37        -8.3350    5.3440  -11.9350 h1        1 5B8      0.043367
     87 H38        -7.8180    0.0370   -9.3170 h1        1 5B8      0.043033
     88 H39        -6.0560    0.2840   -8.8500 h1        1 5B8      0.043033
     89 H40        -7.3870    0.7050   -7.6580 h1        1 5B8      0.043033
     90 H41         0.7360    3.7550   -5.6690 ha        1 5B8      0.152000
     91 H42        -1.3610   -0.0270   -5.9320 ha        1 5B8      0.142000
     92 H43         0.7480   -1.1380   -6.6840 ha        1 5B8      0.133000
     93 H44         2.8350    0.1780   -6.9510 ha        1 5B8      0.135000
     94 H45         4.4070    1.4490   -5.8970 h1        1 5B8      0.044200
     95 H46         4.2640    1.7930   -7.6940 h1        1 5B8      0.044200
     96 H47         6.1400    3.0840   -7.2910 h1        1 5B8      0.049200
     97 H48         4.8240    4.3090   -6.9810 h1        1 5B8      0.049200
     98 H50         6.9220    5.3480   -5.7410 h1        1 5B8      0.039200
     99 H51         5.2220    5.6170   -5.1320 h1        1 5B8      0.039200
    100 H52         7.1550    6.2340   -3.5090 h1        1 5B8      0.054950
    101 H53         5.8710    5.1070   -2.8260 h1        1 5B8      0.054950
    102 H54         8.2970    2.3750   -3.2410 h1        1 5B8      0.054950
    103 H55         6.5820    2.7010   -2.6620 h1        1 5B8      0.054950
    104 H56         6.4120    1.6370   -4.8690 h1        1 5B8      0.039200
    105 H57         7.7110    2.7150   -5.5580 h1        1 5B8      0.039200
@<TRIPOS>BOND
     1    1    2 1   
     2    1    6 1   
     3    1   50 1   
     4    1   51 1   
     5    2    3 1   
     6    2   52 1   
     7    2   53 1   
     8    3    4 1   
     9    3   54 1   
    10    3   55 1   
    11    4    5 1   
    12    4   56 1   
    13    4   57 1   
    14    5    6 1   
    15    5   58 1   
    16    5   59 1   
    17    6    7 1   
    18    6   60 1   
    19    7    8 1   
    20    7   11 1   
    21    7   61 1   
    22    8    9 1   
    23    8   10 1   
    24    8   62 1   
    25    9   63 1   
    26    9   64 1   
    27    9   65 1   
    28   10   66 1   
    29   11   12 2   
    30   11   13 1   
    31   13   14 1   
    32   13   18 1   
    33   14   15 1   
    34   14   67 1   
    35   14   68 1   
    36   15   16 1   
    37   15   69 1   
    38   15   70 1   
    39   16   17 1   
    40   16   71 1   
    41   16   72 1   
    42   17   18 1   
    43   17   73 1   
    44   17   74 1   
    45   18   19 1   
    46   18   75 1   
    47   19   20 2   
    48   19   21 1   
    49   21   22 1   
    50   22   23 1   
    51   22   35 1   
    52   22   76 1   
    53   23   24 1   
    54   23   77 1   
    55   23   78 1   
    56   24   25 1   
    57   24   79 1   
    58   24   80 1   
    59   25   26 ar  
    60   25   27 ar  
    61   26   32 ar  
    62   26   81 1   
    63   27   28 ar  
    64   27   82 1   
    65   28   29 ar  
    66   28   83 1   
    67   29   30 1   
    68   29   32 ar  
    69   30   31 1   
    70   31   84 1   
    71   31   85 1   
    72   31   86 1   
    73   32   33 1   
    74   33   34 1   
    75   34   87 1   
    76   34   88 1   
    77   34   89 1   
    78   35   36 ar  
    79   35   37 ar  
    80   36   40 ar  
    81   36   90 1   
    82   37   38 ar  
    83   37   91 1   
    84   38   39 ar  
    85   38   92 1   
    86   39   40 ar  
    87   39   93 1   
    88   40   41 1   
    89   41   42 1   
    90   42   43 1   
    91   42   94 1   
    92   42   95 1   
    93   43   44 1   
    94   43   96 1   
    95   43   97 1   
    96   44   45 1   
    97   44   49 1   
    98   45   46 1   
    99   45   98 1   
   100   45   99 1   
   101   46   47 1   
   102   46  100 1   
   103   46  101 1   
   104   47   48 1   
   105   48   49 1   
   106   48  102 1   
   107   48  103 1   
   108   49  104 1   
   109   49  105 1   
@<TRIPOS>SUBSTRUCTURE
     1 5B8         1 TEMP              0 ****  ****    0 ROOT
