@<TRIPOS>MOLECULE
5B9
   34    36     1     0     0
SMALL
bcc


@<TRIPOS>ATOM
      1 C1          0.0120    0.0970   -0.0690 ca        1 5B9     -0.026000
      2 C2          1.4300    0.1980   -0.2050 ca        1 5B9     -0.105300
      3 C3         -0.5410   -0.1190    1.2220 ca        1 5B9     -0.046000
      4 C11         1.6850   -0.1580    2.1800 ca        1 5B9     -0.111000
      5 C12        -2.7820   -0.1110    0.2840 ca        1 5B9     -0.150000
      6 C13         4.2790    0.3680   -2.2880 ca        1 5B9      0.115100
      7 C14         5.5620    0.0810   -1.7870 ca        1 5B9     -0.107600
      8 C15         3.9710    0.1900   -3.6450 ca        1 5B9     -0.202000
      9 C16         6.5290   -0.3690   -2.6910 ca        1 5B9     -0.101000
     10 C17         5.9510    0.2350   -0.3230 c         1 5B9      0.923200
     11 C18         4.9500   -0.2810   -4.5160 ca        1 5B9     -0.142000
     12 C19         6.2300   -0.5580   -4.0400 ca        1 5B9     -0.169000
     13 C4         -0.8770    0.1920   -1.1760 ca        1 5B9     -0.118000
     14 C5          2.0190    0.4340   -1.5590 c3        1 5B9      0.179700
     15 C6          2.2460    0.0610    0.8990 ca        1 5B9     -0.081000
     16 C7          0.3250   -0.2410    2.3430 ca        1 5B9     -0.147000
     17 C8         -1.9510   -0.2160    1.3720 ca        1 5B9     -0.116000
     18 C9         -2.2360    0.0930   -1.0040 ca        1 5B9     -0.145000
     19 O10         3.3540    0.9330   -1.4190 os        1 5B9     -0.313900
     20 O20         6.9030    1.0160   -0.0520 o         1 5B9     -0.825300
     21 O21         5.3330   -0.4580    0.5350 o         1 5B9     -0.825300
     22 H1          2.3670   -0.2610    3.0380 ha        1 5B9      0.139000
     23 H2         -3.8720   -0.1850    0.3990 ha        1 5B9      0.116000
     24 H3          2.9650    0.4270   -4.0180 ha        1 5B9      0.113000
     25 H4          7.5420   -0.5700   -2.3100 ha        1 5B9      0.140000
     26 H5          4.7110   -0.4280   -5.5780 ha        1 5B9      0.105000
     27 H6          7.0050   -0.9220   -4.7290 ha        1 5B9      0.107000
     28 H7         -0.4610    0.3430   -2.1830 ha        1 5B9      0.127000
     29 H8          1.4440    1.2310   -2.1080 h1        1 5B9      0.039200
     30 H9          1.9920   -0.5190   -2.1510 h1        1 5B9      0.039200
     31 H10         3.3550    0.1100    0.7860 ha        1 5B9      0.235000
     32 H11        -0.1180   -0.4060    3.3350 ha        1 5B9      0.117000
     33 H12        -2.3610   -0.3780    2.3800 ha        1 5B9      0.119000
     34 H13        -2.9150    0.1690   -1.8660 ha        1 5B9      0.117000
@<TRIPOS>BOND
     1    1    2 ar  
     2    1    3 ar  
     3    1   13 ar  
     4    2   14 1   
     5    2   15 ar  
     6    3   16 ar  
     7    3   17 ar  
     8    4   15 ar  
     9    4   16 ar  
    10    4   22 1   
    11    5   17 ar  
    12    5   18 ar  
    13    5   23 1   
    14    6    7 ar  
    15    6    8 ar  
    16    6   19 1   
    17    7    9 ar  
    18    7   10 1   
    19    8   11 ar  
    20    8   24 1   
    21    9   12 ar  
    22    9   25 1   
    23   10   20 1   
    24   10   21 1   
    25   11   12 ar  
    26   11   26 1   
    27   12   27 1   
    28   13   18 ar  
    29   13   28 1   
    30   14   19 1   
    31   14   29 1   
    32   14   30 1   
    33   15   31 1   
    34   16   32 1   
    35   17   33 1   
    36   18   34 1   
@<TRIPOS>SUBSTRUCTURE
     1 5B9         1 TEMP              0 ****  ****    0 ROOT
