@<TRIPOS>MOLECULE
5BA
   62    64     1     0     0
SMALL
bcc


@<TRIPOS>ATOM
      1 CAO        -5.9130    1.1910    0.3170 c3        1 5BA      0.163300
      2 CAM        -6.8960    1.9730   -0.5720 c3        1 5BA      0.168800
      3 NBD        -7.8740    1.1160   -1.2280 n3        1 5BA     -0.733600
      4 CAD        -8.7790    1.8590   -2.0760 c3        1 5BA      0.157100
      5 CAN        -7.2450    0.0050   -1.9260 c3        1 5BA      0.168800
      6 CAP        -6.2640   -0.7830   -1.0370 c3        1 5BA      0.163300
      7 N          -5.2860    0.0740   -0.3790 n3        1 5BA     -0.718600
      8 CA         -4.3850   -0.6900    0.4660 c3        1 5BA      0.082800
      9 C          -3.0780    0.0130    0.7980 c         1 5BA      0.584700
     10 O          -2.9490    1.2380    0.8600 o         1 5BA     -0.514100
     11 CAV        -1.9400   -0.8930    1.0760 ca        1 5BA     -0.215600
     12 CAJ        -0.6410   -0.4420    0.8060 ca        1 5BA      0.007000
     13 CAH        -2.1260   -2.1730    1.6080 ca        1 5BA     -0.039000
     14 CAI        -1.0370   -2.9980    1.8660 ca        1 5BA     -0.224000
     15 CAW         0.2640   -2.5490    1.5880 ca        1 5BA      0.182100
     16 OAT         1.3920   -3.2990    1.8190 os        1 5BA     -0.338900
     17 CAL         1.1890   -4.6650    2.2200 c3        1 5BA      0.131400
     18 CAK         2.5760   -5.2810    2.2830 c3        1 5BA     -0.089400
     19 CAA         2.4890   -6.7200    2.7180 c3        1 5BA     -0.094100
     20 CAY         0.4670   -1.2560    1.0520 ca        1 5BA     -0.198900
     21 CAZ         1.8220   -0.7380    0.7230 cc        1 5BA      0.575500
     22 NAR         2.0050   -0.1240   -0.4480 nd        1 5BA     -0.641300
     23 NAS         2.8230   -0.8880    1.6690 n         1 5BA     -0.458400
     24 CBB         4.1330   -0.4180    1.4200 c         1 5BA      0.702700
     25 OAF         4.9840   -0.6230    2.3020 o         1 5BA     -0.611500
     26 CAX         4.3290    0.2680    0.1350 cc        1 5BA     -0.231500
     27 BR          6.0310    0.9350   -0.2250 br        1 5BA     -0.024700
     28 CBA         3.2630    0.3800   -0.7420 cd        1 5BA      0.231400
     29 CBC         3.4040    1.0640   -2.0850 c3        1 5BA     -0.027500
     30 CAC         3.1080    0.0970   -3.2140 c3        1 5BA     -0.085600
     31 CAB         2.5030    2.2800   -2.1640 c3        1 5BA     -0.085600
     32 H1         -5.0960    1.8990    0.6350 h1        1 5BA      0.043200
     33 H2         -6.4600    0.8440    1.2430 h1        1 5BA      0.043200
     34 H3         -7.4580    2.6910    0.0890 h1        1 5BA      0.039200
     35 H4         -6.3050    2.5790   -1.3190 h1        1 5BA      0.039200
     36 H6         -8.2680    2.3630   -2.9420 h1        1 5BA      0.032700
     37 H7         -9.5540    1.1560   -2.4790 h1        1 5BA      0.032700
     38 H8         -9.2890    2.6430   -1.4580 h1        1 5BA      0.032700
     39 H9         -8.0580   -0.7030   -2.2490 h1        1 5BA      0.039200
     40 H10        -6.6960    0.3490   -2.8510 h1        1 5BA      0.039200
     41 H11        -6.8580   -1.3880   -0.2910 h1        1 5BA      0.043200
     42 H12        -5.7060   -1.5010   -1.7010 h1        1 5BA      0.043200
     43 H14        -4.8560   -0.9710    1.4570 h1        1 5BA      0.053700
     44 H15        -4.1280   -1.6450   -0.0770 h1        1 5BA      0.053700
     45 H16        -0.5040    0.5740    0.3920 ha        1 5BA      0.178000
     46 H17        -3.1400   -2.5370    1.8390 ha        1 5BA      0.140000
     47 H18        -1.2060   -3.9990    2.2880 ha        1 5BA      0.148000
     48 H19         0.6910   -4.6820    3.2240 h1        1 5BA      0.045700
     49 H20         0.5460   -5.1860    1.4630 h1        1 5BA      0.045700
     50 H21         3.0610   -5.2070    1.2740 hc        1 5BA      0.062700
     51 H22         3.2110   -4.6950    2.9990 hc        1 5BA      0.062700
     52 H23         2.0260   -6.8020    3.7310 hc        1 5BA      0.040367
     53 H24         1.8750   -7.3160    2.0000 hc        1 5BA      0.040367
     54 H25         3.5120   -7.1660    2.7610 hc        1 5BA      0.040367
     55 H27         4.4730    1.4110   -2.1900 hc        1 5BA      0.071700
     56 H28         2.0340   -0.2090   -3.2090 hc        1 5BA      0.043033
     57 H29         3.3300    0.5900   -4.1920 hc        1 5BA      0.043033
     58 H30         3.7420   -0.8170   -3.1230 hc        1 5BA      0.043033
     59 H31         2.6970    2.9680   -1.3060 hc        1 5BA      0.043033
     60 H32         2.7050    2.8310   -3.1150 hc        1 5BA      0.043033
     61 H33         1.4270    1.9840   -2.1490 hc        1 5BA      0.043033
     62 H5          2.6510   -1.4180    2.4980 hn        1 5BA      0.348500
@<TRIPOS>BOND
     1    1    2 1   
     2    1    7 1   
     3    1   32 1   
     4    1   33 1   
     5    2    3 1   
     6    2   34 1   
     7    2   35 1   
     8    3    4 1   
     9    3    5 1   
    10    4   36 1   
    11    4   37 1   
    12    4   38 1   
    13    5    6 1   
    14    5   39 1   
    15    5   40 1   
    16    6    7 1   
    17    6   41 1   
    18    6   42 1   
    19    7    8 1   
    20    8    9 1   
    21    8   43 1   
    22    8   44 1   
    23    9   10 2   
    24    9   11 1   
    25   11   12 ar  
    26   11   13 ar  
    27   12   20 ar  
    28   12   45 1   
    29   13   14 ar  
    30   13   46 1   
    31   14   15 ar  
    32   14   47 1   
    33   15   16 1   
    34   15   20 ar  
    35   16   17 1   
    36   17   18 1   
    37   17   48 1   
    38   17   49 1   
    39   18   19 1   
    40   18   50 1   
    41   18   51 1   
    42   19   52 1   
    43   19   53 1   
    44   19   54 1   
    45   20   21 1   
    46   21   22 2   
    47   21   23 1   
    48   22   28 1   
    49   23   24 1   
    50   23   62 1   
    51   24   25 2   
    52   24   26 1   
    53   26   27 1   
    54   26   28 2   
    55   28   29 1   
    56   29   30 1   
    57   29   31 1   
    58   29   55 1   
    59   30   56 1   
    60   30   57 1   
    61   30   58 1   
    62   31   59 1   
    63   31   60 1   
    64   31   61 1   
@<TRIPOS>SUBSTRUCTURE
     1 5BA         1 TEMP              0 ****  ****    0 ROOT
