@<TRIPOS>MOLECULE
5BA
   62    54     1     0     0
SMALL
bcc


@<TRIPOS>ATOM
      1 CAO         3.5930   -3.2920    0.8610 c3        1 5BA     -0.074000
      2 CAM         5.0110   -3.7960    1.0390 c3        1 5BA     -0.068000
      3 NBD         5.1680   -4.5660    2.2250 n3        1 5BA     -0.259000
      4 CAD         6.5810   -4.8840    2.4110 c3        1 5BA     -0.119000
      5 CAN         4.6880   -3.9050    3.3670 c3        1 5BA     -0.068000
      6 CAP         3.2660   -3.3980    3.1890 c3        1 5BA     -0.074000
      7 N           3.1110   -2.6280    2.0070 n3        1 5BA     -0.253000
      8 CA          1.7240   -2.3000    1.8270 c3        1 5BA     -0.114000
      9 C           1.5840   -0.7320    1.4610 c1        1 5BA      0.278000
     10 O           2.5850   -0.0090    1.4670 o         1 5BA     -0.287000
     11 CAV         0.1950   -0.1070    1.3010 c1        1 5BA     -0.156000
     12 CAJ        -0.3060    0.1630    0.0220 c1        1 5BA     -0.009000
     13 CAH        -0.5010    0.3320    2.4290 c1        1 5BA     -0.009000
     14 CAI        -1.6940    1.0380    2.2840 c1        1 5BA     -0.231000
     15 CAW        -2.1940    1.3070    1.0120 c1        1 5BA      0.140000
     16 OAT        -3.4340    1.9770    0.8650 os        1 5BA     -0.223000
     17 CAL        -3.5720    3.1680    1.7090 c3        1 5BA     -0.019000
     18 CAK        -5.0080    3.2840    2.1890 c3        1 5BA     -0.168000
     19 CAA        -5.1860    4.6210    2.9650 c3        1 5BA     -0.212000
     20 CAY        -1.4940    0.8670   -0.1240 c1        1 5BA     -0.156000
     21 CAZ        -2.0490    1.1410   -1.5110 c1        1 5BA      0.198000
     22 NAR        -1.1860    1.7200   -2.5430 n1        1 5BA     -0.221000
     23 NAS        -3.4200    0.7280   -1.8460 n2        1 5BA     -0.299000
     24 CBB        -3.8600    0.7560   -3.1910 c1        1 5BA      0.338000
     25 OAF        -4.9450    0.3210   -3.4800 o         1 5BA     -0.337000
     26 CAX        -3.0020    1.3310   -4.2300 c1        1 5BA     -0.115500
     27 BR         -3.5780    1.3320   -6.0500 br        1 5BA      0.101000
     28 CBA        -1.6460    1.8160   -3.8800 c1        1 5BA     -0.115500
     29 CBC        -0.6980    2.2870   -4.9820 c2        1 5BA     -0.068000
     30 CAC        -1.3210    3.4880   -5.7100 c3        1 5BA     -0.214000
     31 CAB        -0.4600    1.1070   -6.0120 c3        1 5BA     -0.214000
     32 H1          3.0000   -4.0640    0.6640 h1        1 5BA      0.083250
     33 H2          3.5710   -2.6950    0.1290 h1        1 5BA      0.083250
     34 H3          5.6210   -3.0240    1.0770 h1        1 5BA      0.077500
     35 H4          5.2530   -4.3600    0.2560 h1        1 5BA      0.077500
     36 H6          7.1000   -4.0420    2.5150 h1        1 5BA      0.072667
     37 H7          6.9030   -5.3660    1.6470 h1        1 5BA      0.072667
     38 H8          6.6940   -5.4590    3.2490 h1        1 5BA      0.072667
     39 H9          5.2750   -3.1440    3.5640 h1        1 5BA      0.077500
     40 H10         4.7100   -4.5200    4.1150 h1        1 5BA      0.077500
     41 H11         2.6620   -4.1630    3.1490 h1        1 5BA      0.083250
     42 H12         3.0320   -2.8570    3.9470 h1        1 5BA      0.083250
     43 H14         1.2230   -2.4930    2.6740 h1        1 5BA      0.095000
     44 H15         1.3600   -2.8310    1.1090 h1        1 5BA      0.095000
     45 H16         0.1830   -0.1440   -0.7730 ha        1 5BA      0.167500
     46 H17        -0.1580    0.1460    3.3030 ha        1 5BA      0.167500
     47 H18        -2.1830    1.3440    3.0790 ha        1 5BA      0.148000
     48 H19        -2.9670    3.0910    2.4940 h1        1 5BA      0.085000
     49 H20        -3.3410    3.9460    1.2030 h1        1 5BA      0.085000
     50 H21        -5.6140    3.2710    1.4160 hc        1 5BA      0.102000
     51 H22        -5.2110    2.5500    2.7660 hc        1 5BA      0.102000
     52 H23        -4.4830    4.6990    3.6500 hc        1 5BA      0.079333
     53 H24        -6.0650    4.6340    3.3960 hc        1 5BA      0.079333
     54 H25        -5.1150    5.3880    2.3270 hc        1 5BA      0.079333
     55 H27         0.1950    2.5650   -4.5680 ha        1 5BA      0.118000
     56 H28        -0.6080    4.1170   -5.9790 hc        1 5BA      0.083833
     57 H29        -1.9300    3.9310   -5.1290 hc        1 5BA      0.083833
     58 H30        -1.7990    3.1760   -6.5070 hc        1 5BA      0.083833
     59 H31        -1.3020    0.6490   -6.1830 hc        1 5BA      0.083833
     60 H32         0.1720    0.4870   -5.6460 hc        1 5BA      0.083833
     61 H33        -0.1170    1.4660   -6.8400 hc        1 5BA      0.083833
     62 H5         -4.0170    0.5350   -1.1730 hn        1 5BA      0.262000
@<TRIPOS>BOND
     1    1    2 1   
     2    1    7 1   
     3    1   32 1   
     4    1   33 1   
     5    2    3 1   
     6    2   34 1   
     7    2   35 1   
     8    3    4 1   
     9    3    5 1   
    10    4   36 1   
    11    4   37 1   
    12    4   38 1   
    13    5    6 1   
    14    5   39 1   
    15    5   40 1   
    16    6    7 1   
    17    6   41 1   
    18    6   42 1   
    19    7    8 1   
    20    8    9 1   
    21    8   43 1   
    22    8   44 1   
    23    9   10 1   
    24   11   13 1   
    25   12   20 1   
    26   12   45 1   
    27   13   46 1   
    28   14   15 1   
    29   14   47 1   
    30   15   16 1   
    31   16   17 1   
    32   17   18 1   
    33   17   48 1   
    34   17   49 1   
    35   18   19 1   
    36   18   50 1   
    37   18   51 1   
    38   19   52 1   
    39   19   53 1   
    40   19   54 1   
    41   21   22 1   
    42   23   24 1   
    43   23   62 1   
    44   24   25 1   
    45   26   28 1   
    46   29   30 1   
    47   29   31 1   
    48   29   55 1   
    49   30   56 1   
    50   30   57 1   
    51   30   58 1   
    52   31   59 1   
    53   31   60 1   
    54   31   61 1   
@<TRIPOS>SUBSTRUCTURE
     1 5BA         1 TEMP              0 ****  ****    0 ROOT
