@<TRIPOS>MOLECULE
5BA
   62    64     1     0     0
SMALL
bcc


@<TRIPOS>ATOM
      1 CAO         0.0300   -0.5560    0.0690 c3        1 5BA      0.163300
      2 CAM         1.5690   -0.5230    0.1000 c3        1 5BA      0.168800
      3 NBD         2.1000   -0.0020    1.3520 n3        1 5BA     -0.733600
      4 CAD         3.5440    0.0440    1.3640 c3        1 5BA      0.157100
      5 CAN         1.5010    1.2760    1.7090 c3        1 5BA      0.168800
      6 CAP        -0.0390    1.2440    1.6830 c3        1 5BA      0.163300
      7 N          -0.5710    0.7210    0.4310 n3        1 5BA     -0.718600
      8 CA         -2.0240    0.6850    0.4390 c3        1 5BA      0.082800
      9 C          -2.6660    0.6120   -0.9360 c         1 5BA      0.583700
     10 O          -2.1190    0.1210   -1.9280 o         1 5BA     -0.516100
     11 CAV        -4.0370    1.1670   -1.0160 ca        1 5BA     -0.214600
     12 CAJ        -4.5050    1.6140   -2.2590 ca        1 5BA     -0.021000
     13 CAH        -4.8780    1.2380    0.1000 ca        1 5BA     -0.039000
     14 CAI        -6.1600    1.7660   -0.0070 ca        1 5BA     -0.224000
     15 CAW        -6.6220    2.2340   -1.2480 ca        1 5BA      0.204100
     16 OAT        -7.8410    2.8300   -1.4410 os        1 5BA     -0.312900
     17 CAL        -8.8010    2.6770   -0.3820 c3        1 5BA      0.128400
     18 CAK       -10.1130    3.1930   -0.9470 c3        1 5BA     -0.088400
     19 CAA       -11.2130    3.0550    0.0720 c3        1 5BA     -0.094100
     20 CAY        -5.7870    2.1470   -2.3850 ca        1 5BA     -0.202900
     21 CAZ        -6.2740    2.5900   -3.7180 cc        1 5BA      0.574500
     22 NAR        -7.3120    1.9710   -4.2760 nd        1 5BA     -0.620300
     23 NAS        -5.5910    3.6400   -4.3150 n         1 5BA     -0.471400
     24 CBB        -5.9880    4.1310   -5.5800 c         1 5BA      0.702700
     25 OAF        -5.3330    5.0760   -6.0510 o         1 5BA     -0.608500
     26 CAX        -7.1430    3.4560   -6.1900 cc        1 5BA     -0.227500
     27 BR         -7.7100    4.0770   -7.8530 br        1 5BA     -0.023700
     28 CBA        -7.7520    2.4110   -5.5180 cd        1 5BA      0.227400
     29 CBC        -8.9500    1.6830   -6.0890 c3        1 5BA     -0.027500
     30 CAC        -8.7020    0.1900   -6.1620 c3        1 5BA     -0.085600
     31 CAB       -10.1870    1.9870   -5.2680 c3        1 5BA     -0.085600
     32 H1         -0.3270   -1.3860    0.7460 h1        1 5BA      0.042950
     33 H2         -0.2880   -0.7990   -0.9850 h1        1 5BA      0.042950
     34 H3          1.9360   -1.5810   -0.0140 h1        1 5BA      0.039450
     35 H4          1.9360    0.0700   -0.7880 h1        1 5BA      0.039450
     36 H6          3.9380   -0.9860    1.1630 h1        1 5BA      0.032700
     37 H7          3.9760    0.7470    0.5980 h1        1 5BA      0.032700
     38 H8          3.8870    0.3710    2.3800 h1        1 5BA      0.032700
     39 H9          1.8550    2.1080    1.0320 h1        1 5BA      0.039450
     40 H10         1.8200    1.5250    2.7600 h1        1 5BA      0.039450
     41 H11        -0.4040    0.6500    2.5720 h1        1 5BA      0.042950
     42 H12        -0.4030    2.3030    1.8000 h1        1 5BA      0.042950
     43 H14        -2.3880    1.6320    0.9350 h1        1 5BA      0.053700
     44 H15        -2.4300   -0.1930    1.0280 h1        1 5BA      0.053700
     45 H16        -3.8490    1.5230   -3.1430 ha        1 5BA      0.167000
     46 H17        -4.5340    0.8670    1.0790 ha        1 5BA      0.140000
     47 H18        -6.8050    1.8140    0.8820 ha        1 5BA      0.149000
     48 H19        -8.4690    3.2850    0.5000 h1        1 5BA      0.044200
     49 H20        -8.8810    1.5970   -0.0930 h1        1 5BA      0.044200
     50 H21       -10.3640    2.6180   -1.8770 hc        1 5BA      0.062200
     51 H22        -9.9900    4.2670   -1.2450 hc        1 5BA      0.062200
     52 H23       -12.1730    3.4410   -0.3500 hc        1 5BA      0.039367
     53 H24       -11.3600    1.9840    0.3560 hc        1 5BA      0.039367
     54 H25       -10.9750    3.6350    0.9960 hc        1 5BA      0.039367
     55 H27        -9.1200    2.0610   -7.1400 hc        1 5BA      0.071700
     56 H28        -9.5400   -0.2980   -6.7160 hc        1 5BA      0.042700
     57 H29        -8.6440   -0.2590   -5.1420 hc        1 5BA      0.042700
     58 H30        -7.7470   -0.0220   -6.7010 hc        1 5BA      0.042700
     59 H31       -10.3730    3.0880   -5.2330 hc        1 5BA      0.042700
     60 H32       -10.0770    1.6110   -4.2220 hc        1 5BA      0.042700
     61 H33       -11.0730    1.4900   -5.7330 hc        1 5BA      0.042700
     62 H5         -4.8230    4.0720   -3.8490 hn        1 5BA      0.342500
@<TRIPOS>BOND
     1    1    2 1   
     2    1    7 1   
     3    1   32 1   
     4    1   33 1   
     5    2    3 1   
     6    2   34 1   
     7    2   35 1   
     8    3    4 1   
     9    3    5 1   
    10    4   36 1   
    11    4   37 1   
    12    4   38 1   
    13    5    6 1   
    14    5   39 1   
    15    5   40 1   
    16    6    7 1   
    17    6   41 1   
    18    6   42 1   
    19    7    8 1   
    20    8    9 1   
    21    8   43 1   
    22    8   44 1   
    23    9   10 2   
    24    9   11 1   
    25   11   12 ar  
    26   11   13 ar  
    27   12   20 ar  
    28   12   45 1   
    29   13   14 ar  
    30   13   46 1   
    31   14   15 ar  
    32   14   47 1   
    33   15   16 1   
    34   15   20 ar  
    35   16   17 1   
    36   17   18 1   
    37   17   48 1   
    38   17   49 1   
    39   18   19 1   
    40   18   50 1   
    41   18   51 1   
    42   19   52 1   
    43   19   53 1   
    44   19   54 1   
    45   20   21 1   
    46   21   22 2   
    47   21   23 1   
    48   22   28 1   
    49   23   24 1   
    50   23   62 1   
    51   24   25 2   
    52   24   26 1   
    53   26   27 1   
    54   26   28 2   
    55   28   29 1   
    56   29   30 1   
    57   29   31 1   
    58   29   55 1   
    59   30   56 1   
    60   30   57 1   
    61   30   58 1   
    62   31   59 1   
    63   31   60 1   
    64   31   61 1   
@<TRIPOS>SUBSTRUCTURE
     1 5BA         1 TEMP              0 ****  ****    0 ROOT
