@<TRIPOS>MOLECULE
5BA
   62    64     1     0     0
SMALL
bcc


@<TRIPOS>ATOM
      1 CAO         0.0310   -0.5660    0.0550 c3        1 5BA      0.163300
      2 CAM         1.5700   -0.5320    0.0870 c3        1 5BA      0.168800
      3 NBD         2.1000   -0.0180    1.3430 n3        1 5BA     -0.733600
      4 CAD         3.5450    0.0290    1.3540 c3        1 5BA      0.157100
      5 CAN         1.5000    1.2560    1.7080 c3        1 5BA      0.168800
      6 CAP        -0.0400    1.2230    1.6820 c3        1 5BA      0.163300
      7 N          -0.5720    0.7080    0.4260 n3        1 5BA     -0.718600
      8 CA         -2.0240    0.6700    0.4340 c3        1 5BA      0.082800
      9 C          -2.6660    0.6070   -0.9420 c         1 5BA      0.583700
     10 O          -2.1190    0.1220   -1.9370 o         1 5BA     -0.516100
     11 CAV        -4.0370    1.1610   -1.0180 ca        1 5BA     -0.214600
     12 CAJ        -4.5050    1.6180   -2.2580 ca        1 5BA     -0.021000
     13 CAH        -4.8790    1.2230    0.0980 ca        1 5BA     -0.039000
     14 CAI        -6.1610    1.7510   -0.0060 ca        1 5BA     -0.224000
     15 CAW        -6.6220    2.2290   -1.2440 ca        1 5BA      0.204100
     16 OAT        -7.8420    2.8250   -1.4330 os        1 5BA     -0.312900
     17 CAL        -8.8020    2.6640   -0.3750 c3        1 5BA      0.128400
     18 CAK       -10.1140    3.1840   -0.9370 c3        1 5BA     -0.088400
     19 CAA       -11.2150    3.0370    0.0800 c3        1 5BA     -0.094100
     20 CAY        -5.7870    2.1510   -2.3800 ca        1 5BA     -0.202900
     21 CAZ        -6.2740    2.6040   -3.7100 cc        1 5BA      0.574500
     22 NAR        -7.3110    1.9890   -4.2730 nd        1 5BA     -0.620300
     23 NAS        -5.5910    3.6600   -4.2980 ns        1 5BA     -0.471400
     24 CBB        -5.9880    4.1610   -5.5600 c         1 5BA      0.702700
     25 OAF        -5.3320    5.1090   -6.0230 o         1 5BA     -0.608500
     26 CAX        -7.1410    3.4890   -6.1760 cc        1 5BA     -0.227500
     27 Br         -7.7090    4.1230   -7.8350 br        1 5BA     -0.023700
     28 CBA        -7.7500    2.4390   -5.5120 cd        1 5BA      0.227400
     29 CBC        -8.9470    1.7150   -6.0900 c3        1 5BA     -0.027500
     30 CAC        -8.6990    0.2220   -6.1750 c3        1 5BA     -0.085600
     31 CAB       -10.1860    2.0120   -5.2680 c3        1 5BA     -0.085600
     32 H1         -0.3260   -1.4010    0.7270 h1        1 5BA      0.042950
     33 H2         -0.2870   -0.8020   -1.0000 h1        1 5BA      0.042950
     34 H3          1.9370    0.0680   -0.7970 h1        1 5BA      0.039450
     35 H4          1.9380   -1.5890   -0.0340 h1        1 5BA      0.039450
     36 H6          3.9400   -1.0000    1.1470 h1        1 5BA      0.032700
     37 H7          3.9750    0.7370    0.5930 h1        1 5BA      0.032700
     38 H8          3.8870    0.3500    2.3730 h1        1 5BA      0.032700
     39 H9          1.8190    1.4980    2.7600 h1        1 5BA      0.039450
     40 H10         1.8530    2.0930    1.0370 h1        1 5BA      0.039450
     41 H11        -0.4050    2.2810    1.8060 h1        1 5BA      0.042950
     42 H12        -0.4040    0.6230    2.5660 h1        1 5BA      0.042950
     43 H14        -2.3890    1.6130    0.9360 h1        1 5BA      0.053700
     44 H15        -2.4300   -0.2120    1.0160 h1        1 5BA      0.053700
     45 H16        -3.8490    1.5340   -3.1420 ha        1 5BA      0.167000
     46 H17        -4.5350    0.8450    1.0740 ha        1 5BA      0.140000
     47 H18        -6.8060    1.7920    0.8830 ha        1 5BA      0.149000
     48 H19        -8.4710    3.2660    0.5120 h1        1 5BA      0.044200
     49 H20        -8.8820    1.5820   -0.0950 h1        1 5BA      0.044200
     50 H21        -9.9920    4.2600   -1.2270 hc        1 5BA      0.062200
     51 H22       -10.3650    2.6160   -1.8720 hc        1 5BA      0.062200
     52 H23       -12.1750    3.4260   -0.3390 hc        1 5BA      0.039367
     53 H24       -10.9780    3.6100    1.0090 hc        1 5BA      0.039367
     54 H25       -11.3610    1.9640    0.3560 hc        1 5BA      0.039367
     55 H27        -9.1170    2.1000   -7.1380 hc        1 5BA      0.071700
     56 H28        -9.5370   -0.2620   -6.7330 hc        1 5BA      0.042700
     57 H29        -7.7440    0.0150   -6.7140 hc        1 5BA      0.042700
     58 H30        -8.6410   -0.2340   -5.1580 hc        1 5BA      0.042700
     59 H31       -10.3720    3.1120   -5.2250 hc        1 5BA      0.042700
     60 H32       -11.0710    1.5180   -5.7370 hc        1 5BA      0.042700
     61 H33       -10.0760    1.6280   -4.2250 hc        1 5BA      0.042700
     62 H5         -4.8230    4.0890   -3.8290 hn        1 5BA      0.342500
@<TRIPOS>BOND
     1    1    2 1   
     2    1    7 1   
     3    1   32 1   
     4    1   33 1   
     5    2    3 1   
     6    2   34 1   
     7    2   35 1   
     8    3    4 1   
     9    3    5 1   
    10    4   36 1   
    11    4   37 1   
    12    4   38 1   
    13    5    6 1   
    14    5   39 1   
    15    5   40 1   
    16    6    7 1   
    17    6   41 1   
    18    6   42 1   
    19    7    8 1   
    20    8    9 1   
    21    8   43 1   
    22    8   44 1   
    23    9   10 2   
    24    9   11 1   
    25   11   12 ar  
    26   11   13 ar  
    27   12   20 ar  
    28   12   45 1   
    29   13   14 ar  
    30   13   46 1   
    31   14   15 ar  
    32   14   47 1   
    33   15   16 1   
    34   15   20 ar  
    35   16   17 1   
    36   17   18 1   
    37   17   48 1   
    38   17   49 1   
    39   18   19 1   
    40   18   50 1   
    41   18   51 1   
    42   19   52 1   
    43   19   53 1   
    44   19   54 1   
    45   20   21 1   
    46   21   22 2   
    47   21   23 1   
    48   22   28 1   
    49   23   24 1   
    50   23   62 1   
    51   24   25 2   
    52   24   26 1   
    53   26   27 1   
    54   26   28 2   
    55   28   29 1   
    56   29   30 1   
    57   29   31 1   
    58   29   55 1   
    59   30   56 1   
    60   30   57 1   
    61   30   58 1   
    62   31   59 1   
    63   31   60 1   
    64   31   61 1   
@<TRIPOS>SUBSTRUCTURE
     1 5BA         1 TEMP              0 ****  ****    0 ROOT
