@<TRIPOS>MOLECULE
5BA
   62    64     1     0     0
SMALL
bcc


@<TRIPOS>ATOM
      1 CAO         0.0930    0.5100   -0.2260 c3        1 5BA      0.163300
      2 CAM         1.4470    1.2280   -0.0740 c3        1 5BA      0.168800
      3 NBD         1.7060    1.6700    1.2890 n3        1 5BA     -0.733600
      4 CAD         2.9690    2.3610    1.4150 c3        1 5BA      0.157100
      5 CAN         0.5960    2.4390    1.8330 c3        1 5BA      0.168800
      6 CAP        -0.7590    1.7210    1.6880 c3        1 5BA      0.163300
      7 N          -1.0180    1.2760    0.3240 n3        1 5BA     -0.718600
      8 CA         -2.2920    0.5870    0.2170 c3        1 5BA      0.082800
      9 C          -2.8600    0.5180   -1.1920 c         1 5BA      0.584700
     10 O          -2.1700    0.5160   -2.2150 o         1 5BA     -0.514100
     11 CAV        -4.3360    0.4270   -1.2620 ca        1 5BA     -0.215600
     12 CAJ        -4.9880    0.9410   -2.3910 ca        1 5BA      0.007000
     13 CAH        -5.0900   -0.1670   -0.2450 ca        1 5BA     -0.039000
     14 CAI        -6.4750   -0.2450   -0.3430 ca        1 5BA     -0.224000
     15 CAW        -7.1280    0.2770   -1.4700 ca        1 5BA      0.182100
     16 OAT        -8.4900    0.2340   -1.6460 os        1 5BA     -0.338900
     17 CAL        -9.2710   -0.2350   -0.5330 c3        1 5BA      0.131400
     18 CAK       -10.7210   -0.0610   -0.9510 c3        1 5BA     -0.089400
     19 CAA       -11.6400   -0.5450    0.1390 c3        1 5BA     -0.094100
     20 CAY        -6.3790    0.8770   -2.5080 ca        1 5BA     -0.198900
     21 CAZ        -7.0210    1.4620   -3.7150 cc        1 5BA      0.575500
     22 NAR        -6.6200    2.6630   -4.1360 nd        1 5BA     -0.641300
     23 NAS        -7.9860    0.7090   -4.3670 n         1 5BA     -0.458400
     24 CBB        -8.6360    1.2060   -5.5200 c         1 5BA      0.702700
     25 OAF        -9.5160    0.4880   -6.0250 o         1 5BA     -0.611500
     26 CAX        -8.1850    2.5230   -5.9870 cc        1 5BA     -0.231500
     27 BR         -8.9890    3.2050   -7.5230 br        1 5BA     -0.024700
     28 CBA        -7.2050    3.1950   -5.2760 cd        1 5BA      0.231400
     29 CBC        -6.7060    4.5600   -5.6990 c3        1 5BA     -0.027500
     30 CAC        -6.9770    5.5890   -4.6200 c3        1 5BA     -0.085600
     31 CAB        -5.2290    4.5090   -6.0390 c3        1 5BA     -0.085600
     32 H1          0.1700   -0.5090    0.2560 h1        1 5BA      0.043200
     33 H2         -0.1000    0.3660   -1.3260 h1        1 5BA      0.043200
     34 H3          1.4840    2.0870   -0.8060 h1        1 5BA      0.039200
     35 H4          2.2550    0.4970   -0.3570 h1        1 5BA      0.039200
     36 H6          3.1450    2.5960    2.4980 h1        1 5BA      0.032700
     37 H7          3.7870    1.6830    1.0560 h1        1 5BA      0.032700
     38 H8          3.0160    3.3190    0.8290 h1        1 5BA      0.032700
     39 H9          0.5170    3.4580    1.3520 h1        1 5BA      0.039200
     40 H10         0.7870    2.5890    2.9320 h1        1 5BA      0.039200
     41 H11        -1.5640    2.4540    1.9730 h1        1 5BA      0.043200
     42 H12        -0.7940    0.8620    2.4200 h1        1 5BA      0.043200
     43 H14        -3.0390    1.1410    0.8570 h1        1 5BA      0.053700
     44 H15        -2.2390   -0.4800    0.5920 h1        1 5BA      0.053700
     45 H16        -4.3830    1.4010   -3.1940 ha        1 5BA      0.178000
     46 H17        -4.5900   -0.5890    0.6420 ha        1 5BA      0.140000
     47 H18        -7.0470   -0.7200    0.4670 ha        1 5BA      0.148000
     48 H19        -9.0330    0.3770    0.3760 h1        1 5BA      0.045700
     49 H20        -9.0290   -1.3140   -0.3440 h1        1 5BA      0.045700
     50 H21       -10.9150    1.0210   -1.1740 hc        1 5BA      0.062700
     51 H22       -10.9050   -0.6320   -1.8990 hc        1 5BA      0.062700
     52 H23       -12.7040   -0.4130   -0.1750 hc        1 5BA      0.040367
     53 H24       -11.4680   -1.6280    0.3530 hc        1 5BA      0.040367
     54 H25       -11.4770    0.0310    1.0820 hc        1 5BA      0.040367
     55 H27        -7.2700    4.8660   -6.6270 hc        1 5BA      0.071700
     56 H28        -6.3720    5.3810   -3.7050 hc        1 5BA      0.043033
     57 H29        -6.7060    6.6040   -4.9990 hc        1 5BA      0.043033
     58 H30        -8.0580    5.5890   -4.3420 hc        1 5BA      0.043033
     59 H31        -4.9100    5.4960   -6.4550 hc        1 5BA      0.043033
     60 H32        -4.6160    4.2930   -5.1320 hc        1 5BA      0.043033
     61 H33        -5.0300    3.7190   -6.8030 hc        1 5BA      0.043033
     62 H5         -8.3000   -0.1510   -3.9690 hn        1 5BA      0.348500
@<TRIPOS>BOND
     1    1    2 1   
     2    1    7 1   
     3    1   32 1   
     4    1   33 1   
     5    2    3 1   
     6    2   34 1   
     7    2   35 1   
     8    3    4 1   
     9    3    5 1   
    10    4   36 1   
    11    4   37 1   
    12    4   38 1   
    13    5    6 1   
    14    5   39 1   
    15    5   40 1   
    16    6    7 1   
    17    6   41 1   
    18    6   42 1   
    19    7    8 1   
    20    8    9 1   
    21    8   43 1   
    22    8   44 1   
    23    9   10 2   
    24    9   11 1   
    25   11   12 ar  
    26   11   13 ar  
    27   12   20 ar  
    28   12   45 1   
    29   13   14 ar  
    30   13   46 1   
    31   14   15 ar  
    32   14   47 1   
    33   15   16 1   
    34   15   20 ar  
    35   16   17 1   
    36   17   18 1   
    37   17   48 1   
    38   17   49 1   
    39   18   19 1   
    40   18   50 1   
    41   18   51 1   
    42   19   52 1   
    43   19   53 1   
    44   19   54 1   
    45   20   21 1   
    46   21   22 2   
    47   21   23 1   
    48   22   28 1   
    49   23   24 1   
    50   23   62 1   
    51   24   25 2   
    52   24   26 1   
    53   26   27 1   
    54   26   28 2   
    55   28   29 1   
    56   29   30 1   
    57   29   31 1   
    58   29   55 1   
    59   30   56 1   
    60   30   57 1   
    61   30   58 1   
    62   31   59 1   
    63   31   60 1   
    64   31   61 1   
@<TRIPOS>SUBSTRUCTURE
     1 5BA         1 TEMP              0 ****  ****    0 ROOT
