@<TRIPOS>MOLECULE
5BB
   72    74     1     0     0
SMALL
bcc


@<TRIPOS>ATOM
      1 CAU        -1.7480    1.1840   -1.9680 c3        1 5BB      0.222300
      2 CAS        -1.8460    1.7380   -3.4050 c3        1 5BB      0.156800
      3 NBG        -2.5510    3.0100   -3.4740 n3        1 5BB     -0.730600
      4 CAC        -2.6620    3.5060   -4.8280 c3        1 5BB      0.156100
      5 CAT        -3.8340    2.9760   -2.7880 c3        1 5BB      0.156800
      6 CAV        -3.7320    2.4200   -1.3520 c3        1 5BB      0.222300
      7 NBH        -3.0100    1.1750   -1.2710 n3        1 5BB     -0.819500
      8 SBI        -3.5700   -0.1250   -0.4790 sy        1 5BB      1.514200
      9 OAE        -4.9740   -0.0360   -0.3410 o         1 5BB     -0.652300
     10 OAF        -3.0560   -1.3020   -1.0650 o         1 5BB     -0.652300
     11 CAZ        -2.8910    0.0250    1.0640 ca        1 5BB     -0.417500
     12 CAJ        -1.6020   -0.4480    1.3270 ca        1 5BB      0.068000
     13 CAH        -3.6240    0.5930    2.1130 ca        1 5BB      0.040000
     14 CAI        -3.0910    0.7000    3.3900 ca        1 5BB     -0.241000
     15 CBA        -1.7930    0.2260    3.6450 ca        1 5BB      0.217100
     16 OAY        -1.1900    0.2880    4.8730 os        1 5BB     -0.336900
     17 CAL        -1.9130    0.9590    5.9230 c3        1 5BB      0.130400
     18 CAB        -0.9980    0.9380    7.1240 c3        1 5BB     -0.105100
     19 CBD        -1.0370   -0.3610    2.6010 ca        1 5BB     -0.216900
     20 CBE         0.3480   -0.8630    2.8070 cc        1 5BB      0.579500
     21 NAW         1.2790   -0.5550    1.9010 nd        1 5BB     -0.649300
     22 NAX         0.5940   -1.6560    3.9160 n         1 5BB     -0.457400
     23 CBF         1.8910   -2.1620    4.1720 c         1 5BB      0.705700
     24 OAD         2.0400   -2.8340    5.2070 o         1 5BB     -0.609500
     25 CBC         2.9090   -1.8300    3.1700 cc        1 5BB     -0.241500
     26 BR          4.6290   -2.4900    3.4310 br        1 5BB     -0.023700
     27 CBB         2.5640   -1.0410    2.0830 cd        1 5BB      0.232400
     28 CAR         3.6040   -0.6860    1.0580 c3        1 5BB     -0.043200
     29 CAQ         3.1280    0.1790   -0.0900 c3        1 5BB     -0.069400
     30 CAP         4.2720    0.4660   -1.0420 c3        1 5BB     -0.082400
     31 CAO         3.8140    1.3270   -2.2000 c3        1 5BB     -0.077400
     32 CAN         4.9550    1.6200   -3.1510 c3        1 5BB     -0.079400
     33 CAM         4.4970    2.4790   -4.3090 c3        1 5BB     -0.079400
     34 CAK         5.6380    2.7750   -5.2600 c3        1 5BB     -0.080400
     35 CAA         5.1870    3.6300   -6.4160 c3        1 5BB     -0.092100
     36 H1         -1.3530    0.1290   -2.0310 h1        1 5BB      0.059200
     37 H2         -1.0100    1.8120   -1.3900 h1        1 5BB      0.059200
     38 H3         -0.7970    1.9070   -3.7770 h1        1 5BB      0.041950
     39 H4         -2.3270    0.9570   -4.0640 h1        1 5BB      0.041950
     40 H6         -3.2810    2.8450   -5.4960 h1        1 5BB      0.035033
     41 H7         -3.1310    4.5240   -4.8010 h1        1 5BB      0.035033
     42 H8         -1.6330    3.5920   -5.2650 h1        1 5BB      0.035033
     43 H9         -4.2140    4.0330   -2.7170 h1        1 5BB      0.041950
     44 H10        -4.5980    2.3700   -3.3580 h1        1 5BB      0.041950
     45 H11        -3.2180    3.1890   -0.7050 h1        1 5BB      0.059200
     46 H12        -4.7810    2.2670   -0.9660 h1        1 5BB      0.059200
     47 H13        -1.0240   -0.9160    0.5060 ha        1 5BB      0.172000
     48 H14        -4.6530    0.9490    1.9200 ha        1 5BB      0.162000
     49 H15        -3.6920    1.1510    4.1930 ha        1 5BB      0.152000
     50 H16        -2.1430    2.0080    5.5990 h1        1 5BB      0.047700
     51 H17        -2.8660    0.4010    6.1230 h1        1 5BB      0.047700
     52 H18        -1.5120    1.4400    7.9780 hc        1 5BB      0.057367
     53 H19        -0.7490   -0.1120    7.4110 hc        1 5BB      0.057367
     54 H20        -0.0450    1.4760    6.9010 hc        1 5BB      0.057367
     55 H21        -0.1220   -1.8010    4.5960 hn        1 5BB      0.348500
     56 H22         4.4430   -0.1580    1.5920 hc        1 5BB      0.071700
     57 H23         4.0190   -1.6480    0.6450 hc        1 5BB      0.071700
     58 H24         2.3020   -0.3370   -0.6440 hc        1 5BB      0.052200
     59 H25         5.1010    0.9850   -0.4920 hc        1 5BB      0.040200
     60 H26         2.9890    0.8050   -2.7520 hc        1 5BB      0.039700
     61 H27         5.7800    2.1420   -2.5980 hc        1 5BB      0.040200
     62 H28         3.6740    1.9560   -4.8630 hc        1 5BB      0.039200
     63 H29         4.0740    3.4420   -3.9200 hc        1 5BB      0.039200
     64 H30         6.4610    3.2970   -4.7040 hc        1 5BB      0.038700
     65 H31         6.0620    1.8110   -5.6470 hc        1 5BB      0.038700
     66 H32         4.3840    3.1160   -6.9970 hc        1 5BB      0.032367
     67 H33         4.7840    4.6060   -6.0510 hc        1 5BB      0.032367
     68 H34         6.0430    3.8370   -7.1030 hc        1 5BB      0.032367
     69 H5          2.7170    1.1460    0.3010 hc        1 5BB      0.052200
     70 H35         4.6890   -0.4990   -1.4340 hc        1 5BB      0.040200
     71 H36         3.3930    2.2900   -1.8090 hc        1 5BB      0.039700
     72 H37         5.3770    0.6560   -3.5400 hc        1 5BB      0.040200
@<TRIPOS>BOND
     1    1    2 1   
     2    1    7 1   
     3    1   36 1   
     4    1   37 1   
     5    2    3 1   
     6    2   38 1   
     7    2   39 1   
     8    3    4 1   
     9    3    5 1   
    10    4   40 1   
    11    4   41 1   
    12    4   42 1   
    13    5    6 1   
    14    5   43 1   
    15    5   44 1   
    16    6    7 1   
    17    6   45 1   
    18    6   46 1   
    19    7    8 1   
    20    8    9 2   
    21    8   10 2   
    22    8   11 1   
    23   11   12 ar  
    24   11   13 ar  
    25   12   19 ar  
    26   12   47 1   
    27   13   14 ar  
    28   13   48 1   
    29   14   15 ar  
    30   14   49 1   
    31   15   16 1   
    32   15   19 ar  
    33   16   17 1   
    34   17   18 1   
    35   17   50 1   
    36   17   51 1   
    37   18   52 1   
    38   18   53 1   
    39   18   54 1   
    40   19   20 1   
    41   20   21 2   
    42   20   22 1   
    43   21   27 1   
    44   22   23 1   
    45   22   55 1   
    46   23   24 2   
    47   23   25 1   
    48   25   26 1   
    49   25   27 2   
    50   27   28 1   
    51   28   29 1   
    52   28   56 1   
    53   28   57 1   
    54   29   30 1   
    55   29   58 1   
    56   29   69 1   
    57   30   31 1   
    58   30   59 1   
    59   30   70 1   
    60   31   32 1   
    61   31   60 1   
    62   31   71 1   
    63   32   33 1   
    64   32   61 1   
    65   32   72 1   
    66   33   34 1   
    67   33   62 1   
    68   33   63 1   
    69   34   35 1   
    70   34   64 1   
    71   34   65 1   
    72   35   66 1   
    73   35   67 1   
    74   35   68 1   
@<TRIPOS>SUBSTRUCTURE
     1 5BB         1 TEMP              0 ****  ****    0 ROOT
