@<TRIPOS>MOLECULE
5BB
   72    74     1     0     0
SMALL
bcc


@<TRIPOS>ATOM
      1 CAU        -2.6610   -1.5140    1.9410 c3        1 5BB      0.222300
      2 CAS        -1.7540   -2.4380    2.7810 c3        1 5BB      0.156800
      3 NBG        -0.9260   -1.7070    3.7310 n3        1 5BB     -0.730600
      4 CAC        -0.0600   -2.5790    4.4910 c3        1 5BB      0.156100
      5 CAT        -0.2010   -0.6080    3.1090 c3        1 5BB      0.156800
      6 CAV        -1.1120    0.3130    2.2690 c3        1 5BB      0.222300
      7 NBH        -1.9560   -0.4050    1.3480 n3        1 5BB     -0.819500
      8 SBI        -2.0940   -0.0120   -0.2200 sy        1 5BB      1.514200
      9 OAE        -0.9720    0.7460   -0.6260 o         1 5BB     -0.652300
     10 OAF        -2.4000   -1.1620   -0.9790 o         1 5BB     -0.652300
     11 CAZ        -3.4440    1.0080   -0.2580 ca        1 5BB     -0.417500
     12 CAJ        -4.7370    0.4790   -0.3260 ca        1 5BB      0.068000
     13 CAH        -3.2880    2.3990   -0.2570 ca        1 5BB      0.040000
     14 CAI        -4.3850    3.2470   -0.3120 ca        1 5BB     -0.241000
     15 CBA        -5.6810    2.7070   -0.3750 ca        1 5BB      0.217100
     16 OAY        -6.8180    3.4690   -0.4340 os        1 5BB     -0.336900
     17 CAL        -6.6540    4.8970   -0.3360 c3        1 5BB      0.130400
     18 CAB        -8.0520    5.4690   -0.3590 c3        1 5BB     -0.105100
     19 CBD        -5.8620    1.3030   -0.3860 ca        1 5BB     -0.215900
     20 CBE        -7.2080    0.6730   -0.4310 cc        1 5BB      0.578500
     21 NAW        -7.4620   -0.3510    0.3870 nd        1 5BB     -0.650300
     22 NAX        -8.1270    1.1620   -1.3460 n         1 5BB     -0.458400
     23 CBF        -9.4250    0.6080   -1.4390 c         1 5BB      0.703700
     24 OAD       -10.2040    1.1270   -2.2560 o         1 5BB     -0.608500
     25 CBC        -9.6960   -0.5300   -0.5490 cc        1 5BB     -0.229500
     26 BR        -11.3730   -1.3310   -0.6620 br        1 5BB     -0.021700
     27 CBB        -8.7110   -0.9520    0.3270 cd        1 5BB      0.228400
     28 CAR        -8.9270   -2.0980    1.2780 c3        1 5BB     -0.045200
     29 CAQ        -8.4620   -3.4040    0.6620 c3        1 5BB     -0.075400
     30 CAP        -8.6940   -4.5570    1.6150 c3        1 5BB     -0.078400
     31 CAO        -8.2340   -5.8660    1.0090 c3        1 5BB     -0.079400
     32 CAN        -8.4620   -7.0210    1.9600 c3        1 5BB     -0.078400
     33 CAM        -8.0020   -8.3290    1.3540 c3        1 5BB     -0.079400
     34 CAK        -8.2290   -9.4860    2.3040 c3        1 5BB     -0.080400
     35 CAA        -7.7720  -10.7910    1.7050 c3        1 5BB     -0.093100
     36 H1         -3.4840   -1.1170    2.6040 h1        1 5BB      0.059450
     37 H2         -3.1260   -2.1370    1.1240 h1        1 5BB      0.059450
     38 H3         -2.4220   -3.1270    3.3690 h1        1 5BB      0.041950
     39 H4         -1.1310   -3.0690    2.0820 h1        1 5BB      0.041950
     40 H6          0.4790   -1.9670    5.2610 h1        1 5BB      0.034700
     41 H7         -0.6900   -3.3450    5.0140 h1        1 5BB      0.034700
     42 H8          0.7030   -3.1120    3.8600 h1        1 5BB      0.034700
     43 H9          0.2470    0.0160    3.9320 h1        1 5BB      0.041950
     44 H10         0.6420   -0.9780    2.4560 h1        1 5BB      0.041950
     45 H11        -0.4490    1.0200    1.6920 h1        1 5BB      0.059450
     46 H12        -1.7590    0.9150    2.9710 h1        1 5BB      0.059450
     47 H13        -4.8650   -0.6210   -0.3450 ha        1 5BB      0.171000
     48 H14        -2.2680    2.8270   -0.2270 ha        1 5BB      0.163000
     49 H15        -4.2300    4.3360   -0.3110 ha        1 5BB      0.152000
     50 H16        -6.1250    5.1430    0.6210 h1        1 5BB      0.047700
     51 H17        -6.0500    5.2540   -1.2110 h1        1 5BB      0.047700
     52 H18        -8.5780    5.1850   -1.3020 hc        1 5BB      0.057367
     53 H19        -8.6470    5.0850    0.5040 hc        1 5BB      0.057367
     54 H20        -7.9880    6.5810   -0.2950 hc        1 5BB      0.057367
     55 H21        -7.9110    1.9730   -1.8870 hn        1 5BB      0.348500
     56 H22       -10.0160   -2.1640    1.5440 hc        1 5BB      0.069700
     57 H23        -8.3650   -1.9170    2.2350 hc        1 5BB      0.069700
     58 H24        -9.0160   -3.5890   -0.2960 hc        1 5BB      0.051700
     59 H25        -8.1420   -4.3710    2.5740 hc        1 5BB      0.040700
     60 H26        -7.1430   -5.7990    0.7530 hc        1 5BB      0.041700
     61 H27        -7.9100   -6.8350    2.9180 hc        1 5BB      0.039200
     62 H28        -8.5550   -8.5160    0.3960 hc        1 5BB      0.040200
     63 H29        -6.9120   -8.2630    1.0990 hc        1 5BB      0.040200
     64 H30        -7.6770   -9.2970    3.2620 hc        1 5BB      0.038200
     65 H31        -9.3200   -9.5500    2.5600 hc        1 5BB      0.038200
     66 H32        -6.6820  -10.7550    1.4660 hc        1 5BB      0.032700
     67 H33        -7.9490  -11.6300    2.4210 hc        1 5BB      0.032700
     68 H34        -8.3300  -11.0090    0.7620 hc        1 5BB      0.032700
     69 H5         -7.3710   -3.3340    0.4110 hc        1 5BB      0.051700
     70 H35        -9.7850   -4.6230    1.8680 hc        1 5BB      0.040700
     71 H36        -8.7870   -6.0510    0.0510 hc        1 5BB      0.041700
     72 H37        -9.5530   -7.0880    2.2150 hc        1 5BB      0.039200
@<TRIPOS>BOND
     1    1    2 1   
     2    1    7 1   
     3    1   36 1   
     4    1   37 1   
     5    2    3 1   
     6    2   38 1   
     7    2   39 1   
     8    3    4 1   
     9    3    5 1   
    10    4   40 1   
    11    4   41 1   
    12    4   42 1   
    13    5    6 1   
    14    5   43 1   
    15    5   44 1   
    16    6    7 1   
    17    6   45 1   
    18    6   46 1   
    19    7    8 1   
    20    8    9 2   
    21    8   10 2   
    22    8   11 1   
    23   11   12 ar  
    24   11   13 ar  
    25   12   19 ar  
    26   12   47 1   
    27   13   14 ar  
    28   13   48 1   
    29   14   15 ar  
    30   14   49 1   
    31   15   16 1   
    32   15   19 ar  
    33   16   17 1   
    34   17   18 1   
    35   17   50 1   
    36   17   51 1   
    37   18   52 1   
    38   18   53 1   
    39   18   54 1   
    40   19   20 1   
    41   20   21 2   
    42   20   22 1   
    43   21   27 1   
    44   22   23 1   
    45   22   55 1   
    46   23   24 2   
    47   23   25 1   
    48   25   26 1   
    49   25   27 2   
    50   27   28 1   
    51   28   29 1   
    52   28   56 1   
    53   28   57 1   
    54   29   30 1   
    55   29   58 1   
    56   29   69 1   
    57   30   31 1   
    58   30   59 1   
    59   30   70 1   
    60   31   32 1   
    61   31   60 1   
    62   31   71 1   
    63   32   33 1   
    64   32   61 1   
    65   32   72 1   
    66   33   34 1   
    67   33   62 1   
    68   33   63 1   
    69   34   35 1   
    70   34   64 1   
    71   34   65 1   
    72   35   66 1   
    73   35   67 1   
    74   35   68 1   
@<TRIPOS>SUBSTRUCTURE
     1 5BB         1 TEMP              0 ****  ****    0 ROOT
