@<TRIPOS>MOLECULE
5BB
   72    74     1     0     0
SMALL
bcc


@<TRIPOS>ATOM
      1 CAU        -2.7350   -1.4820    2.1370 c3        1 5BB      0.222300
      2 CAS        -1.8800   -2.3950    3.0420 c3        1 5BB      0.156800
      3 NBG        -1.1270   -1.6530    4.0440 n3        1 5BB     -0.730600
      4 CAC        -0.3070   -2.5140    4.8660 c3        1 5BB      0.156100
      5 CAT        -0.3710   -0.5490    3.4700 c3        1 5BB      0.156800
      6 CAV        -1.2310    0.3600    2.5650 c3        1 5BB      0.222300
      7 NBH        -2.0020   -0.3690    1.5910 n3        1 5BB     -0.819500
      8 SBI        -2.0340    0.0190    0.0160 sy        1 5BB      1.514200
      9 OAE        -0.8950    0.7870   -0.3150 o         1 5BB     -0.652300
     10 OAF        -2.2760   -1.1360   -0.7590 o         1 5BB     -0.652300
     11 CAZ        -3.3890    1.0250   -0.1180 ca        1 5BB     -0.417500
     12 CAJ        -4.6690    0.4830   -0.2700 ca        1 5BB      0.068000
     13 CAH        -3.2470    2.4180   -0.1140 ca        1 5BB      0.040000
     14 CAI        -4.3460    3.2550   -0.2470 ca        1 5BB     -0.241000
     15 CBA        -5.6300    2.7020   -0.3940 ca        1 5BB      0.217100
     16 OAY        -6.7670    3.4520   -0.5330 os        1 5BB     -0.336900
     17 CAL        -6.6240    4.8820   -0.4320 c3        1 5BB      0.130400
     18 CAB        -8.0220    5.4390   -0.5510 c3        1 5BB     -0.105100
     19 CBD        -5.7960    1.2960   -0.4100 ca        1 5BB     -0.215900
     20 CBE        -7.1300    0.6520   -0.5420 cc        1 5BB      0.578500
     21 NAW        -7.4280   -0.3710    0.2620 nd        1 5BB     -0.650300
     22 NAX        -7.9900    1.1270   -1.5200 n         1 5BB     -0.458400
     23 CBF        -9.2730    0.5600   -1.6960 c         1 5BB      0.703700
     24 OAD       -10.0010    1.0680   -2.5670 o         1 5BB     -0.608500
     25 CBC        -9.5920   -0.5760   -0.8210 cc        1 5BB     -0.229500
     26 BR        -11.2490   -1.3950   -1.0430 br        1 5BB     -0.021700
     27 CBB        -8.6640   -0.9850    0.1210 cd        1 5BB      0.228400
     28 CAR        -8.9330   -2.1290    1.0620 c3        1 5BB     -0.045200
     29 CAQ        -8.4120   -3.4320    0.4850 c3        1 5BB     -0.075400
     30 CAP        -8.6960   -4.5830    1.4270 c3        1 5BB     -0.078400
     31 CAO        -8.1790   -5.8890    0.8620 c3        1 5BB     -0.079400
     32 CAN        -8.4590   -7.0420    1.8020 c3        1 5BB     -0.078400
     33 CAM        -7.9410   -8.3480    1.2380 c3        1 5BB     -0.079400
     34 CAK        -8.2190   -9.5020    2.1770 c3        1 5BB     -0.080400
     35 CAA        -7.7050  -10.8050    1.6190 c3        1 5BB     -0.093100
     36 H1         -3.6060   -1.0920    2.7410 h1        1 5BB      0.059450
     37 H2         -3.1360   -2.1130    1.2920 h1        1 5BB      0.059450
     38 H3         -2.5800   -3.0890    3.5840 h1        1 5BB      0.041950
     39 H4         -1.2040   -3.0220    2.3900 h1        1 5BB      0.041950
     40 H6         -0.9640   -3.2850    5.3470 h1        1 5BB      0.034700
     41 H7          0.1720   -1.8950    5.6700 h1        1 5BB      0.034700
     42 H8          0.5030   -3.0420    4.2910 h1        1 5BB      0.034700
     43 H9          0.0130    0.0820    4.3200 h1        1 5BB      0.041950
     44 H10         0.5190   -0.9130    2.8780 h1        1 5BB      0.041950
     45 H11        -1.9300    0.9580    3.2190 h1        1 5BB      0.059450
     46 H12        -0.5360    1.0720    2.0340 h1        1 5BB      0.059450
     47 H13        -4.7850   -0.6180   -0.2920 ha        1 5BB      0.171000
     48 H14        -2.2360    2.8560   -0.0170 ha        1 5BB      0.163000
     49 H15        -4.2020    4.3450   -0.2410 ha        1 5BB      0.152000
     50 H16        -5.9660    5.2410   -1.2660 h1        1 5BB      0.047700
     51 H17        -6.1630    5.1370    0.5580 h1        1 5BB      0.047700
     52 H18        -8.4810    5.1460   -1.5260 hc        1 5BB      0.057367
     53 H19        -7.9730    6.5530   -0.4890 hc        1 5BB      0.057367
     54 H20        -8.6700    5.0530    0.2720 hc        1 5BB      0.057367
     55 H21        -7.7460    1.9390   -2.0480 hn        1 5BB      0.348500
     56 H22        -8.4390   -1.9370    2.0530 hc        1 5BB      0.069700
     57 H23       -10.0360   -2.2060    1.2520 hc        1 5BB      0.069700
     58 H24        -7.3080   -3.3520    0.3090 hc        1 5BB      0.051700
     59 H25        -9.8010   -4.6620    1.6050 hc        1 5BB      0.040700
     60 H26        -8.6630   -6.0870   -0.1310 hc        1 5BB      0.041700
     61 H27        -7.9760   -6.8440    2.7950 hc        1 5BB      0.039200
     62 H28        -6.8370   -8.2680    1.0560 hc        1 5BB      0.040200
     63 H29        -8.4250   -8.5470    0.2450 hc        1 5BB      0.040200
     64 H30        -7.7360   -9.3010    3.1700 hc        1 5BB      0.038200
     65 H31        -9.3240   -9.5790    2.3580 hc        1 5BB      0.038200
     66 H32        -8.1940  -11.0350    0.6420 hc        1 5BB      0.032700
     67 H33        -7.9190  -11.6410    2.3270 hc        1 5BB      0.032700
     68 H34        -6.6020  -10.7550    1.4550 hc        1 5BB      0.032700
     69 H5         -8.8970   -3.6280   -0.5070 hc        1 5BB      0.051700
     70 H35        -8.2140   -4.3860    2.4200 hc        1 5BB      0.040700
     71 H36        -7.0750   -5.8100    0.6810 hc        1 5BB      0.041700
     72 H37        -9.5640   -7.1220    1.9810 hc        1 5BB      0.039200
@<TRIPOS>BOND
     1    1    2 1   
     2    1    7 1   
     3    1   36 1   
     4    1   37 1   
     5    2    3 1   
     6    2   38 1   
     7    2   39 1   
     8    3    4 1   
     9    3    5 1   
    10    4   40 1   
    11    4   41 1   
    12    4   42 1   
    13    5    6 1   
    14    5   43 1   
    15    5   44 1   
    16    6    7 1   
    17    6   45 1   
    18    6   46 1   
    19    7    8 1   
    20    8    9 2   
    21    8   10 2   
    22    8   11 1   
    23   11   12 ar  
    24   11   13 ar  
    25   12   19 ar  
    26   12   47 1   
    27   13   14 ar  
    28   13   48 1   
    29   14   15 ar  
    30   14   49 1   
    31   15   16 1   
    32   15   19 ar  
    33   16   17 1   
    34   17   18 1   
    35   17   50 1   
    36   17   51 1   
    37   18   52 1   
    38   18   53 1   
    39   18   54 1   
    40   19   20 1   
    41   20   21 2   
    42   20   22 1   
    43   21   27 1   
    44   22   23 1   
    45   22   55 1   
    46   23   24 2   
    47   23   25 1   
    48   25   26 1   
    49   25   27 2   
    50   27   28 1   
    51   28   29 1   
    52   28   56 1   
    53   28   57 1   
    54   29   30 1   
    55   29   58 1   
    56   29   69 1   
    57   30   31 1   
    58   30   59 1   
    59   30   70 1   
    60   31   32 1   
    61   31   60 1   
    62   31   71 1   
    63   32   33 1   
    64   32   61 1   
    65   32   72 1   
    66   33   34 1   
    67   33   62 1   
    68   33   63 1   
    69   34   35 1   
    70   34   64 1   
    71   34   65 1   
    72   35   66 1   
    73   35   67 1   
    74   35   68 1   
@<TRIPOS>SUBSTRUCTURE
     1 5BB         1 TEMP              0 ****  ****    0 ROOT
