@<TRIPOS>MOLECULE
5BB
   72    74     1     0     0
SMALL
bcc


@<TRIPOS>ATOM
      1 CAU        -2.6500   -1.5880    1.9160 c3        1 5BB      0.222300
      2 CAS        -1.7500   -2.5490    2.7210 c3        1 5BB      0.156800
      3 NBG        -0.9040   -1.8590    3.6840 n3        1 5BB     -0.730600
      4 CAC        -0.0450   -2.7650    4.4120 c3        1 5BB      0.156100
      5 CAT        -0.1680   -0.7530    3.0890 c3        1 5BB      0.156800
      6 CAV        -1.0720    0.2050    2.2840 c3        1 5BB      0.222300
      7 NBH        -1.9330   -0.4730    1.3490 n3        1 5BB     -0.819500
      8 SBI        -2.0780   -0.0330   -0.2050 sy        1 5BB      1.514200
      9 OAE        -0.9480    0.7210   -0.5990 o         1 5BB     -0.652300
     10 OAF        -2.4080   -1.1550   -0.9950 o         1 5BB     -0.652300
     11 CAZ        -3.4130    1.0080   -0.2010 ca        1 5BB     -0.417500
     12 CAJ        -4.7150    0.5010   -0.2700 ca        1 5BB      0.068000
     13 CAH        -3.2360    2.3970   -0.1630 ca        1 5BB      0.040000
     14 CAI        -4.3210    3.2620   -0.1840 ca        1 5BB     -0.241000
     15 CBA        -5.6250    2.7430   -0.2490 ca        1 5BB      0.217100
     16 OAY        -6.7510    3.5240   -0.2750 os        1 5BB     -0.336900
     17 CAL        -6.5640    4.9460   -0.1390 c3        1 5BB      0.130400
     18 CAB        -7.9530    5.5380   -0.1310 c3        1 5BB     -0.105100
     19 CBD        -5.8280    1.3430   -0.2970 ca        1 5BB     -0.215900
     20 CBE        -7.1840    0.7350   -0.3450 cc        1 5BB      0.578500
     21 NAW        -7.4450   -0.3080    0.4470 nd        1 5BB     -0.650300
     22 NAX        -8.1040    1.2620   -1.2380 ns        1 5BB     -0.458400
     23 CBF        -9.4110    0.7300   -1.3320 c         1 5BB      0.703700
     24 OAD       -10.1900    1.2830   -2.1270 o         1 5BB     -0.608500
     25 CBC        -9.6900   -0.4270   -0.4710 cc        1 5BB     -0.229500
     26 Br        -11.3800   -1.2000   -0.5900 br        1 5BB     -0.021700
     27 CBB        -8.7040   -0.8880    0.3820 cd        1 5BB      0.228400
     28 CAR        -8.9280   -2.0570    1.3040 c3        1 5BB     -0.045200
     29 CAQ        -8.4880   -3.3520    0.6470 c3        1 5BB     -0.075400
     30 CAP        -8.7270   -4.5270    1.5710 c3        1 5BB     -0.078400
     31 CAO        -8.2910   -5.8250    0.9250 c3        1 5BB     -0.079400
     32 CAN        -8.5270   -7.0030    1.8460 c3        1 5BB     -0.078400
     33 CAM        -8.0910   -8.3000    1.2000 c3        1 5BB     -0.079400
     34 CAK        -8.3260   -9.4800    2.1200 c3        1 5BB     -0.080400
     35 CAA        -7.8930  -10.7740    1.4820 c3        1 5BB     -0.093100
     36 H1         -3.1310   -2.1810    1.0850 h1        1 5BB      0.059450
     37 H2         -3.4620   -1.1990    2.5980 h1        1 5BB      0.059450
     38 H3         -1.1430   -3.1690    1.9990 h1        1 5BB      0.041950
     39 H4         -2.4240   -3.2460    3.2940 h1        1 5BB      0.041950
     40 H6          0.5100   -2.1850    5.1950 h1        1 5BB      0.034700
     41 H7          0.7050   -3.2920    3.7590 h1        1 5BB      0.034700
     42 H8         -0.6820   -3.5370    4.9180 h1        1 5BB      0.034700
     43 H9          0.2960   -0.1600    3.9260 h1        1 5BB      0.041950
     44 H10         0.6640   -1.1170    2.4180 h1        1 5BB      0.041950
     45 H11        -0.4030    0.9190    1.7220 h1        1 5BB      0.059450
     46 H12        -1.7030    0.7960    3.0080 h1        1 5BB      0.059450
     47 H13        -4.8600   -0.5960   -0.3190 ha        1 5BB      0.171000
     48 H14        -2.2100    2.8080   -0.1320 ha        1 5BB      0.163000
     49 H15        -4.1490    4.3480   -0.1540 ha        1 5BB      0.152000
     50 H16        -5.9630    5.3190   -1.0100 h1        1 5BB      0.047700
     51 H17        -6.0220    5.1560    0.8200 h1        1 5BB      0.047700
     52 H18        -8.5460    5.1390    0.7270 hc        1 5BB      0.057367
     53 H19        -8.4930    5.2900   -1.0770 hc        1 5BB      0.057367
     54 H20        -7.8720    6.6480   -0.0360 hc        1 5BB      0.057367
     55 H21        -7.8810    2.0850   -1.7580 hn        1 5BB      0.348500
     56 H22        -8.3540   -1.9100    2.2590 hc        1 5BB      0.069700
     57 H23       -10.0150   -2.1150    1.5780 hc        1 5BB      0.069700
     58 H24        -7.3980   -3.2910    0.3880 hc        1 5BB      0.051700
     59 H25        -9.8170   -4.5850    1.8330 hc        1 5BB      0.040700
     60 H26        -7.2020   -5.7660    0.6600 hc        1 5BB      0.041700
     61 H27        -9.6160   -7.0610    2.1100 hc        1 5BB      0.039200
     62 H28        -7.0020   -8.2420    0.9360 hc        1 5BB      0.040200
     63 H29        -8.6550   -8.4530    0.2430 hc        1 5BB      0.040200
     64 H30        -7.7630   -9.3240    3.0780 hc        1 5BB      0.038200
     65 H31        -9.4150   -9.5360    2.3850 hc        1 5BB      0.038200
     66 H32        -8.4620  -10.9580    0.5390 hc        1 5BB      0.032700
     67 H33        -6.8040  -10.7460    1.2340 hc        1 5BB      0.032700
     68 H34        -8.0750  -11.6290    2.1760 hc        1 5BB      0.032700
     69 H5         -9.0530   -3.5030   -0.3100 hc        1 5BB      0.051700
     70 H35        -8.1640   -4.3760    2.5290 hc        1 5BB      0.040700
     71 H36        -8.8560   -5.9770   -0.0330 hc        1 5BB      0.041700
     72 H37        -7.9630   -6.8510    2.8040 hc        1 5BB      0.039200
@<TRIPOS>BOND
     1    1    2 1   
     2    1    7 1   
     3    1   36 1   
     4    1   37 1   
     5    2    3 1   
     6    2   38 1   
     7    2   39 1   
     8    3    4 1   
     9    3    5 1   
    10    4   40 1   
    11    4   41 1   
    12    4   42 1   
    13    5    6 1   
    14    5   43 1   
    15    5   44 1   
    16    6    7 1   
    17    6   45 1   
    18    6   46 1   
    19    7    8 1   
    20    8    9 2   
    21    8   10 2   
    22    8   11 1   
    23   11   12 ar  
    24   11   13 ar  
    25   12   19 ar  
    26   12   47 1   
    27   13   14 ar  
    28   13   48 1   
    29   14   15 ar  
    30   14   49 1   
    31   15   16 1   
    32   15   19 ar  
    33   16   17 1   
    34   17   18 1   
    35   17   50 1   
    36   17   51 1   
    37   18   52 1   
    38   18   53 1   
    39   18   54 1   
    40   19   20 1   
    41   20   21 2   
    42   20   22 1   
    43   21   27 1   
    44   22   23 1   
    45   22   55 1   
    46   23   24 2   
    47   23   25 1   
    48   25   26 1   
    49   25   27 2   
    50   27   28 1   
    51   28   29 1   
    52   28   56 1   
    53   28   57 1   
    54   29   30 1   
    55   29   58 1   
    56   29   69 1   
    57   30   31 1   
    58   30   59 1   
    59   30   70 1   
    60   31   32 1   
    61   31   60 1   
    62   31   71 1   
    63   32   33 1   
    64   32   61 1   
    65   32   72 1   
    66   33   34 1   
    67   33   62 1   
    68   33   63 1   
    69   34   35 1   
    70   34   64 1   
    71   34   65 1   
    72   35   66 1   
    73   35   67 1   
    74   35   68 1   
@<TRIPOS>SUBSTRUCTURE
     1 5BB         1 TEMP              0 ****  ****    0 ROOT
