@<TRIPOS>MOLECULE
5BB
   72    64     1     0     0
SMALL
bcc


@<TRIPOS>ATOM
      1 CAU         3.4300   -2.5640    3.6320 c3        1 5BB     -0.010500
      2 CAS         2.2890   -3.0570    4.5040 c3        1 5BB     -0.085000
      3 NBG         2.5860   -2.9530    5.9080 n3        1 5BB     -0.254000
      4 CAC         1.3910   -3.2920    6.6810 c3        1 5BB     -0.120000
      5 CAT         3.0350   -1.6400    6.2840 c3        1 5BB     -0.085000
      6 CAV         4.1730   -1.1470    5.4190 c3        1 5BB     -0.010500
      7 NBH         3.8760   -1.2480    4.0110 n3        1 5BB     -0.835000
      8 SBI         4.6630   -0.3020    2.9370 s4        1 5BB      2.066800
      9 OAE         5.1290   -1.0550    1.8380 o         1 5BB     -0.536900
     10 OAF         5.8840    0.1860    3.4790 o         1 5BB     -0.536900
     11 CAZ         3.6020    1.0610    2.3990 c1        1 5BB     -0.864000
     12 CAJ         3.0240    1.0300    1.1460 c1        1 5BB     -0.087000
     13 CAH         3.5000    2.2090    3.1840 c1        1 5BB      0.037000
     14 CAI         2.8200    3.3180    2.7090 c1        1 5BB     -0.087000
     15 CBA         2.2410    3.2900    1.4560 c1        1 5BB      0.019000
     16 OAY         1.3550    4.3710    1.0480 o         1 5BB     -0.219000
     17 CAL         1.8320    5.7030    1.4300 c3        1 5BB     -0.021000
     18 CAB         0.6240    6.5550    1.9910 c3        1 5BB     -0.252000
     19 CBD         2.3420    2.1390    0.6680 c1        1 5BB      0.019000
     20 CBE         1.6380    2.0850   -0.7440 c1        1 5BB      0.200000
     21 NAW         0.2900    1.4900   -0.8740 n1        1 5BB     -0.224000
     22 NAX         2.3700    2.5230   -1.9520 n2        1 5BB     -0.298000
     23 CBF         1.7090    2.5620   -3.2090 c1        1 5BB      0.342000
     24 OAD         2.3060    2.9900   -4.2150 o         1 5BB     -0.331000
     25 CBC         0.3230    2.0710   -3.3290 c1        1 5BB     -0.122500
     26 BR         -0.6110    2.2610   -4.9760 br        1 5BB      0.105000
     27 CBB        -0.3760    1.5140   -2.1360 c1        1 5BB     -0.122500
     28 CAR        -1.8950    1.1250   -2.2350 c2        1 5BB     -0.127000
     29 CAQ        -2.0820    0.0920   -3.3380 c3        1 5BB     -0.154000
     30 CAP        -3.5090   -0.5050   -3.2480 c3        1 5BB     -0.157000
     31 CAO        -3.6300   -1.6480   -4.1920 c3        1 5BB     -0.158000
     32 CAN        -5.1270   -2.0750   -4.3050 c3        1 5BB     -0.157000
     33 CAM        -5.2970   -3.0540   -5.5140 c3        1 5BB     -0.158000
     34 CAK        -6.7820   -3.2190   -5.8410 c3        1 5BB     -0.158000
     35 CAA        -6.9330   -4.0880   -7.1380 c3        1 5BB     -0.211000
     36 H1          3.1280   -2.5440    2.6850 h1        1 5BB      0.100750
     37 H2          4.1620   -3.1710    3.7090 h1        1 5BB      0.100750
     38 H3          1.5030   -2.5360    4.3120 h1        1 5BB      0.079500
     39 H4          2.1070   -4.0000    4.2880 h1        1 5BB      0.079500
     40 H6          0.6740   -2.7320    6.4150 h1        1 5BB      0.074000
     41 H7          1.5710   -3.1590    7.6340 h1        1 5BB      0.074000
     42 H8          1.1510   -4.2310    6.5210 h1        1 5BB      0.074000
     43 H9          3.3400   -1.6640    7.2380 h1        1 5BB      0.079500
     44 H10         2.2780   -1.0080    6.2040 h1        1 5BB      0.079500
     45 H11         4.9850   -1.6870    5.6160 h1        1 5BB      0.100750
     46 H12         4.3580   -0.1930    5.6430 h1        1 5BB      0.100750
     47 H13         3.0980    0.2130    0.5860 ha        1 5BB      0.161500
     48 H14         3.9130    2.2300    4.0800 ha        1 5BB      0.163000
     49 H15         2.7480    4.1360    3.2710 ha        1 5BB      0.161500
     50 H16         2.5260    5.6160    2.1300 h1        1 5BB      0.106500
     51 H17         2.2190    6.1570    0.6330 h1        1 5BB      0.106500
     52 H18         0.1230    6.9660    1.2280 hc        1 5BB      0.094000
     53 H19         0.0110    5.9630    2.5090 hc        1 5BB      0.094000
     54 H20         0.9710    7.2720    2.5850 hc        1 5BB      0.094000
     55 H21         3.3070    2.7100   -1.9020 hn        1 5BB      0.262000
     56 H22        -2.1880    0.7590   -1.4010 ha        1 5BB      0.108500
     57 H23        -2.4160    1.9140   -2.4440 ha        1 5BB      0.108500
     58 H24        -1.4180   -0.6250   -3.2310 hc        1 5BB      0.091500
     59 H25        -4.1550    0.1730   -3.4790 hc        1 5BB      0.080000
     60 H26        -3.2970   -1.3780   -5.0800 hc        1 5BB      0.082000
     61 H27        -5.4060   -2.5300   -3.4680 hc        1 5BB      0.078500
     62 H28        -4.9220   -3.9130   -5.2860 hc        1 5BB      0.080000
     63 H29        -4.8090   -2.6750   -6.3290 hc        1 5BB      0.080000
     64 H30        -7.2520   -3.6800   -5.0680 hc        1 5BB      0.077500
     65 H31        -7.1850   -2.3360   -5.9880 hc        1 5BB      0.077500
     66 H32        -6.5940   -3.5790   -7.9170 hc        1 5BB      0.072000
     67 H33        -7.8800   -4.3070   -7.2780 hc        1 5BB      0.072000
     68 H34        -6.4170   -4.9150   -7.0390 hc        1 5BB      0.072000
     69 H5         -1.9620    0.5210   -4.2110 hc        1 5BB      0.091500
     70 H35        -3.6750   -0.8190   -2.3320 hc        1 5BB      0.080000
     71 H36        -3.1030   -2.3960   -3.8630 hc        1 5BB      0.082000
     72 H37        -5.6850   -1.2810   -4.4450 hc        1 5BB      0.078500
@<TRIPOS>BOND
     1    1    2 1   
     2    1    7 1   
     3    1   36 1   
     4    1   37 1   
     5    2    3 1   
     6    2   38 1   
     7    2   39 1   
     8    3    4 1   
     9    3    5 1   
    10    4   40 1   
    11    4   41 1   
    12    4   42 1   
    13    5    6 1   
    14    5   43 1   
    15    5   44 1   
    16    6    7 1   
    17    6   45 1   
    18    6   46 1   
    19    7    8 1   
    20    8    9 1   
    21    8   10 1   
    22   11   13 1   
    23   12   19 1   
    24   12   47 1   
    25   13   48 1   
    26   14   15 1   
    27   14   49 1   
    28   15   19 1   
    29   16   17 1   
    30   17   18 1   
    31   17   50 1   
    32   17   51 1   
    33   18   52 1   
    34   18   53 1   
    35   18   54 1   
    36   20   21 1   
    37   22   23 1   
    38   22   55 1   
    39   23   24 1   
    40   25   27 1   
    41   28   29 1   
    42   28   56 1   
    43   28   57 1   
    44   29   30 1   
    45   29   58 1   
    46   29   69 1   
    47   30   31 1   
    48   30   59 1   
    49   30   70 1   
    50   31   32 1   
    51   31   60 1   
    52   31   71 1   
    53   32   33 1   
    54   32   61 1   
    55   32   72 1   
    56   33   34 1   
    57   33   62 1   
    58   33   63 1   
    59   34   35 1   
    60   34   64 1   
    61   34   65 1   
    62   35   66 1   
    63   35   67 1   
    64   35   68 1   
@<TRIPOS>SUBSTRUCTURE
     1 5BB         1 TEMP              0 ****  ****    0 ROOT
