@<TRIPOS>MOLECULE
5BC
   73    77     1     0     0
SMALL
bcc


@<TRIPOS>ATOM
      1 C1          7.7650   -3.2250    0.5370 cp        1 5BC     -0.043000
      2 C2          6.9330   -4.2850    0.9260 ca        1 5BC     -0.115500
      3 C3          7.4810   -5.5200    1.2650 ca        1 5BC     -0.131500
      4 C4          8.8610   -5.7110    1.2230 ca        1 5BC     -0.126000
      5 C5          9.6950   -4.6610    0.8390 ca        1 5BC     -0.131500
      6 C6          9.1520   -3.4250    0.4960 ca        1 5BC     -0.115500
      7 C7          6.0840    0.5580   -0.5140 ca        1 5BC     -0.161600
      8 C8          7.1580    0.0340   -1.2450 ca        1 5BC     -0.088500
      9 C9          7.7040   -1.2000   -0.9060 ca        1 5BC     -0.133000
     10 C10         7.1930   -1.9280    0.1790 cp        1 5BC     -0.016000
     11 C11         6.1270   -1.3940    0.9170 ca        1 5BC     -0.133000
     12 C12         5.5760   -0.1630    0.5730 ca        1 5BC     -0.088500
     13 C13         4.0770    2.0830   -0.7650 ca        1 5BC     -0.211600
     14 C14         1.3240    2.5370   -0.5540 ca        1 5BC      0.167100
     15 C15         2.2190    3.6300   -0.4510 ca        1 5BC     -0.118300
     16 C16         3.5850    3.3810   -0.5680 ca        1 5BC     -0.049000
     17 C17         3.1770    1.0180   -0.8730 ca        1 5BC     -0.056000
     18 C18         1.8070    1.2390   -0.7720 ca        1 5BC     -0.223000
     19 C19        -5.6740    0.9660   -0.2120 ca        1 5BC      0.032100
     20 C20        -7.3790   -0.2440    0.9450 ca        1 5BC     -0.079800
     21 C21        -7.8700   -0.7160   -0.3400 ca        1 5BC     -0.073200
     22 C22        -7.2450   -0.3260   -1.5360 ca        1 5BC     -0.118000
     23 C23        -6.1470    0.5140   -1.4620 ca        1 5BC     -0.161000
     24 C24        -6.2680    0.5980    0.9920 ca        1 5BC     -0.104000
     25 C25        -9.1810   -1.6080    1.2700 cc        1 5BC     -0.046100
     26 N26        -8.9680   -1.5500   -0.1040 na        1 5BC     -0.017400
     27 C27        -8.2340   -0.8270    1.9430 cd        1 5BC     -0.268200
     28 C28       -10.5360   -3.4720   -0.7320 c         1 5BC      0.920600
     29 O29       -10.6310   -4.3320   -1.6460 o         1 5BC     -0.821800
     30 O30       -11.0520   -3.5620    0.4140 o         1 5BC     -0.821800
     31 C31        -9.7550   -2.1780   -1.1270 c3        1 5BC     -0.110700
     32 O32        -4.6190    1.8820   -0.1790 os        1 5BC     -0.349900
     33 C33        -3.3510    1.2480   -0.3790 c3        1 5BC      0.133400
     34 C34        -2.3110    2.3540   -0.3380 c3        1 5BC     -0.092400
     35 C35        -0.9310    1.7510   -0.5260 c3        1 5BC      0.127400
     36 O36        -0.0100    2.8490   -0.4320 os        1 5BC     -0.323900
     37 O38         6.2820    2.7880   -1.2850 o         1 5BC     -0.541100
     38 C39         1.7270    5.0180   -0.2400 c3        1 5BC     -0.031100
     39 C40         1.9900    5.4990    1.1760 c3        1 5BC     -0.076400
     40 C41         1.5250    6.9200    1.3640 c3        1 5BC     -0.093100
     41 H2          5.8420   -4.1400    0.9560 ha        1 5BC      0.136000
     42 H3          6.8200   -6.3470    1.5650 ha        1 5BC      0.132500
     43 H4          9.2910   -6.6870    1.4920 ha        1 5BC      0.131000
     44 H5         10.7850   -4.8080    0.8070 ha        1 5BC      0.132500
     45 H6          9.8140   -2.5970    0.1980 ha        1 5BC      0.136000
     46 H8          7.5700    0.6140   -2.0870 ha        1 5BC      0.148000
     47 H9          8.5390   -1.6100   -1.4940 ha        1 5BC      0.139000
     48 H11         5.7270   -1.9490    1.7800 ha        1 5BC      0.139000
     49 H12         4.7410    0.2510    1.1610 ha        1 5BC      0.148000
     50 H16         4.2980    4.2210   -0.5080 ha        1 5BC      0.152000
     51 H17         3.5500   -0.0030   -1.0490 ha        1 5BC      0.141000
     52 H18         1.1180    0.3880   -0.8670 ha        1 5BC      0.145000
     53 H22        -7.6200   -0.6830   -2.5050 ha        1 5BC      0.133000
     54 H23        -5.6350    0.8440   -2.3760 ha        1 5BC      0.122000
     55 H24        -5.8780    0.9690    1.9480 ha        1 5BC      0.130000
     56 H25       -10.0010   -2.2320    1.6580 h4        1 5BC      0.225000
     57 H27        -8.1550   -0.6890    3.0150 ha        1 5BC      0.141000
     58 H31       -10.5220   -1.4380   -1.4940 h1        1 5BC      0.042200
     59 H31A       -9.0730   -2.4370   -1.9850 h1        1 5BC      0.042200
     60 H33        -3.1750    0.4970    0.4350 h1        1 5BC      0.031700
     61 H33A       -3.3450    0.7240   -1.3710 h1        1 5BC      0.031700
     62 H34        -2.5170    3.1050   -1.1430 hc        1 5BC      0.068700
     63 H34A       -2.3650    2.8940    0.6420 hc        1 5BC      0.068700
     64 H35        -0.7030    1.0030    0.2780 h1        1 5BC      0.042700
     65 H35A       -0.8330    1.2690   -1.5340 h1        1 5BC      0.042700
     66 H39         2.2420    5.7040   -0.9660 hc        1 5BC      0.057700
     67 H39A        0.6260    5.0740   -0.4520 hc        1 5BC      0.057700
     68 H40         1.4580    4.8290    1.9010 hc        1 5BC      0.041700
     69 H40A        3.0870    5.4260    1.3970 hc        1 5BC      0.041700
     70 H41         1.7230    7.2560    2.4100 hc        1 5BC      0.032700
     71 H41A        2.0610    7.6070    0.6650 hc        1 5BC      0.032700
     72 H41B        0.4290    7.0050    1.1670 hc        1 5BC      0.032700
     73 C37         5.5340    1.8830   -0.8860 c         1 5BC      0.595300
@<TRIPOS>BOND
     1    1    2 ar  
     2    1    6 ar  
     3    1   10 1   
     4    2    3 ar  
     5    2   41 1   
     6    3    4 ar  
     7    3   42 1   
     8    4    5 ar  
     9    4   43 1   
    10    5    6 ar  
    11    5   44 1   
    12    6   45 1   
    13    7    8 ar  
    14    7   12 ar  
    15    7   73 1   
    16    8    9 ar  
    17    8   46 1   
    18    9   10 ar  
    19    9   47 1   
    20   10   11 ar  
    21   11   12 ar  
    22   11   48 1   
    23   12   49 1   
    24   13   16 ar  
    25   13   17 ar  
    26   13   73 1   
    27   14   15 ar  
    28   14   18 ar  
    29   14   36 1   
    30   15   16 ar  
    31   15   38 1   
    32   16   50 1   
    33   17   18 ar  
    34   17   51 1   
    35   18   52 1   
    36   19   23 ar  
    37   19   24 ar  
    38   19   32 1   
    39   20   21 ar  
    40   20   24 ar  
    41   20   27 1   
    42   21   22 ar  
    43   21   26 1   
    44   22   23 ar  
    45   22   53 1   
    46   23   54 1   
    47   24   55 1   
    48   25   26 1   
    49   25   27 2   
    50   25   56 1   
    51   26   31 1   
    52   27   57 1   
    53   28   29 1   
    54   28   30 1   
    55   28   31 1   
    56   31   58 1   
    57   31   59 1   
    58   32   33 1   
    59   33   34 1   
    60   33   60 1   
    61   33   61 1   
    62   34   35 1   
    63   34   62 1   
    64   34   63 1   
    65   35   36 1   
    66   35   64 1   
    67   35   65 1   
    68   37   73 2   
    69   38   39 1   
    70   38   66 1   
    71   38   67 1   
    72   39   40 1   
    73   39   68 1   
    74   39   69 1   
    75   40   70 1   
    76   40   71 1   
    77   40   72 1   
@<TRIPOS>SUBSTRUCTURE
     1 5BC         1 TEMP              0 ****  ****    0 ROOT
