@<TRIPOS>MOLECULE
5BC
   73    58     1     0     0
SMALL
bcc


@<TRIPOS>ATOM
      1 C1         -4.8530    0.3660    4.8800 c1        1 5BC     -0.030500
      2 C2         -5.3550    0.6060    6.1460 c1        1 5BC     -0.135250
      3 C3         -6.6380    1.1080    6.2980 c1        1 5BC     -0.135250
      4 C4         -7.4080    1.3670    5.1980 c1        1 5BC     -0.135250
      5 C5         -6.9050    1.1270    3.9290 c1        1 5BC     -0.135250
      6 C6         -5.6260    0.6260    3.7750 c1        1 5BC     -0.098500
      7 C7         -0.8110   -0.6590    4.5700 c1        1 5BC     -0.168500
      8 C8         -1.2080    0.6920    4.5160 c1        1 5BC     -0.071500
      9 C9         -2.5630    1.0260    4.5920 c1        1 5BC     -0.098500
     10 C10        -3.5230    0.0260    4.7220 c1        1 5BC     -0.030500
     11 C11        -3.1300   -1.3260    4.7750 c1        1 5BC     -0.135250
     12 C12        -1.7740   -1.6650    4.6990 c1        1 5BC     -0.135250
     13 C13         1.4460   -1.2420    3.2540 c1        1 5BC     -0.168500
     14 C14         2.8300   -1.7560    0.8740 c1        1 5BC      0.047000
     15 C15         3.5310   -1.6230    2.0630 c1        1 5BC     -0.122000
     16 C16         2.8360   -1.3640    3.2650 c1        1 5BC     -0.053000
     17 C17         0.7470   -1.3760    2.0590 c1        1 5BC     -0.071500
     18 C18         1.4390   -1.6330    0.8640 c1        1 5BC     -0.159000
     19 C19         0.6600   -0.8270   -4.9520 c1        1 5BC      0.047000
     20 C20         0.2190    1.5610   -4.9710 c1        1 5BC     -0.045000
     21 C21        -0.4380    1.4330   -6.1710 c1        1 5BC     -0.045000
     22 C22        -0.5540    0.1670   -6.7780 c1        1 5BC     -0.135250
     23 C23        -0.0020   -0.9560   -6.1620 c1        1 5BC     -0.135250
     24 C24         0.7750    0.4270   -4.3490 c1        1 5BC     -0.159000
     25 C25        -0.3820    3.6040   -5.6640 c1        1 5BC     -0.022000
     26 N26        -0.8090    2.7040   -6.5980 n1        1 5BC     -0.120000
     27 C27         0.2580    2.9000   -4.6490 c1        1 5BC     -0.266000
     28 C28        -2.9670    3.6760   -7.2320 c1        1 5BC      0.327000
     29 O29        -3.8020    2.7770   -6.8890 os        1 5BC     -0.552000
     30 O30        -3.3250    4.8940   -7.2620 o         1 5BC     -0.578000
     31 C31        -1.5530    3.2760   -7.7090 c2        1 5BC     -0.106000
     32 O32         1.6370   -1.8110   -4.7620 os        1 5BC     -0.223500
     33 C33         1.5910   -2.4410   -3.4530 c3        1 5BC     -0.015000
     34 C34         2.9520   -2.2030   -2.7040 c3        1 5BC     -0.235000
     35 C35         2.8710   -2.8170   -1.2670 c3        1 5BC     -0.015000
     36 O36         3.5320   -1.9450   -0.3360 os        1 5BC     -0.223500
     37 C37         0.6630   -1.0110    4.6070 c2        1 5BC      0.320000
     38 O38         1.2890   -0.9390    5.6800 o         1 5BC     -0.324000
     39 C39         5.0860   -1.5340    2.0340 c3        1 5BC     -0.106000
     40 C40         5.5150   -0.1030    2.3440 c3        1 5BC     -0.158000
     41 C41         6.7840    0.2440    1.5470 c3        1 5BC     -0.208000
     42 H2         -4.8160    0.4250    6.9180 ha        1 5BC      0.125000
     43 H3         -6.9970    1.2550    7.1840 ha        1 5BC      0.125000
     44 H4         -8.2880    1.7800    5.3040 ha        1 5BC      0.125000
     45 H5         -7.4340    1.3050    3.1710 ha        1 5BC      0.125000
     46 H6         -5.2770    0.4600    2.8930 ha        1 5BC      0.215500
     47 H8         -0.5600    1.3710    4.3740 ha        1 5BC      0.152500
     48 H9         -2.8420    1.9780    4.5540 ha        1 5BC      0.215500
     49 H11        -3.8170   -2.0390    4.8680 ha        1 5BC      0.125000
     50 H12        -1.4960   -2.6170    4.7360 ha        1 5BC      0.125000
     51 H16         3.3260   -1.1780    4.0710 ha        1 5BC      0.152000
     52 H17        -0.2340   -1.2910    2.0510 ha        1 5BC      0.152500
     53 H18         0.9590   -1.7250    0.0440 ha        1 5BC      0.141500
     54 H22        -1.0060    0.0790   -7.6060 ha        1 5BC      0.125000
     55 H23        -0.0830   -1.8400   -6.5850 ha        1 5BC      0.125000
     56 H24         1.2420    0.5170   -3.4970 ha        1 5BC      0.141500
     57 H25        -0.5370    4.5850   -5.6840 DU        1 5BC      0.175500
     58 H27         0.6670    3.2910   -3.8410 DU        1 5BC      0.175500
     59 H31        -1.6280    2.6110   -8.4320 ha        1 5BC      0.089000
     60 H31A       -1.0730    4.0910   -8.0520 ha        1 5BC      0.089000
     61 H33         1.4450   -3.3980   -3.5600 h1        1 5BC      0.086250
     62 H33A        0.8520   -2.0520   -2.9280 h1        1 5BC      0.086250
     63 H34         3.1250   -1.2510   -2.6410 hc        1 5BC      0.111500
     64 H34A        3.6700   -2.6290   -3.1950 hc        1 5BC      0.111500
     65 H35         1.9370   -2.9210   -1.0100 h1        1 5BC      0.086250
     66 H35A        3.3200   -3.7140   -1.2640 h1        1 5BC      0.086250
     67 H39         5.4190   -1.7940    1.1230 hc        1 5BC      0.085500
     68 H39A        5.4590   -2.1400    2.7040 hc        1 5BC      0.085500
     69 H40         4.7820    0.5250    2.0900 hc        1 5BC      0.086500
     70 H40A        5.6980   -0.0190    3.3000 hc        1 5BC      0.086500
     71 H41         6.5980    0.1630    0.5810 hc        1 5BC      0.067000
     72 H41A        7.4960   -0.3650    1.7910 hc        1 5BC      0.067000
     73 H41B        7.0550    1.1620    1.7520 hc        1 5BC      0.067000
@<TRIPOS>BOND
     1    1    6 1   
     2    2    3 1   
     3    2   42 1   
     4    3   43 1   
     5    4    5 1   
     6    4   44 1   
     7    5   45 1   
     8    6   46 1   
     9    7    8 1   
    10    7   37 1   
    11    8   47 1   
    12    9   10 1   
    13    9   48 1   
    14   11   12 1   
    15   11   49 1   
    16   12   50 1   
    17   13   17 1   
    18   13   37 1   
    19   14   18 1   
    20   14   36 1   
    21   15   16 1   
    22   15   39 1   
    23   16   51 1   
    24   17   52 1   
    25   18   53 1   
    26   19   24 1   
    27   19   32 1   
    28   20   21 1   
    29   22   23 1   
    30   22   54 1   
    31   23   55 1   
    32   24   56 1   
    33   25   26 1   
    34   25   27 1   
    35   28   30 1   
    36   28   31 1   
    37   31   59 1   
    38   31   60 1   
    39   32   33 1   
    40   33   34 1   
    41   33   61 1   
    42   33   62 1   
    43   34   35 1   
    44   34   63 1   
    45   34   64 1   
    46   35   36 1   
    47   35   65 1   
    48   35   66 1   
    49   37   38 1   
    50   39   40 1   
    51   39   67 1   
    52   39   68 1   
    53   40   41 1   
    54   40   69 1   
    55   40   70 1   
    56   41   71 1   
    57   41   72 1   
    58   41   73 1   
@<TRIPOS>SUBSTRUCTURE
     1 5BC         1 TEMP              0 ****  ****    0 ROOT
