@<TRIPOS>MOLECULE
5BC
   73    98     1     0     0
SMALL
bcc


@<TRIPOS>ATOM
      1 C1          0.0000    0.0000    0.0000 c3        1 5BC     -0.120000
      2 C2          1.3940    0.0000    0.0000 c3        1 5BC     -0.251000
      3 C3          2.0820    0.0000    1.1960 c3        1 5BC     -0.121000
      4 C4          1.3910    0.0010    2.3940 c3        1 5BC     -0.208000
      5 C5          0.0070    0.0010    2.4010 c3        1 5BC     -0.286000
      6 C6         -0.6920    0.0010    1.2100 c2        1 5BC     -0.327000
      7 C7         -2.1360    0.0190   -3.6800 c2        1 5BC     -0.023000
      8 C8         -2.8320    0.0140   -2.4680 c3        1 5BC     -0.043000
      9 C9         -2.1400    0.0080   -1.2790 c2        1 5BC      0.117000
     10 C10        -0.7440    0.0060   -1.2830 c2        1 5BC      0.010000
     11 C11        -0.0480    0.0120   -2.4920 c3        1 5BC     -0.402000
     12 C12        -0.7380    0.0180   -3.6830 c2        1 5BC     -0.224000
     13 C13        -2.3330    0.7380   -6.1260 c3        1 5BC      0.318000
     14 C14        -1.3190    2.0960   -8.3170 c2        1 5BC      0.147000
     15 C15        -2.4410    1.2870   -8.4610 c3        1 5BC     -0.301000
     16 C16        -2.9490    0.6100   -7.3750 c2        1 5BC     -0.093000
     17 C17        -1.2060    1.5530   -5.9850 c3        1 5BC     -0.346000
     18 C18        -0.7060    2.2260   -7.0760 c2        1 5BC     -0.328000
     19 C19         3.4510    6.5470  -11.4490 c2        1 5BC      0.258000
     20 C20         5.0000    8.0020  -12.5630 c3        1 5BC     -0.285000
     21 C21         5.6880    8.1960  -11.3520 c2        1 5BC     -0.250000
     22 C22         5.2430    7.5570  -10.2000 c3        1 5BC      0.087000
     23 C23         4.1350    6.7400  -10.2510 c3        1 5BC     -0.543000
     24 C24         3.8780    7.1730  -12.6030 c2        1 5BC      0.067000
     25 C25         6.7330    9.4010  -12.9370 c2        1 5BC     -0.423000
     26 N26         6.7380    9.0520  -11.6140 nx        1 5BC      0.916000
     27 C27         5.7110    8.8010  -13.5650 c2        1 5BC     -0.364000
     28 C28         8.8180    8.5040  -10.4910 c2        1 5BC      0.347000
     29 O29         9.8290    8.7220   -9.6340 o         1 5BC     -0.574000
     30 O30         8.7960    7.4950  -11.1550 o         1 5BC     -0.574000
     31 C31         7.7110    9.5190  -10.6240 c3        1 5BC     -0.270000
     32 O32         2.3630    5.7320  -11.4820 os        1 5BC     -0.172000
     33 C33         1.9790    5.1110  -10.2540 DU        1 5BC     -0.120000
     34 C34         0.7430    4.2390  -10.4880 DU        1 5BC     -0.137000
     35 C35         0.3320    3.5750   -9.1730 c3        1 5BC     -0.453000
     36 O36        -0.8220    2.7610   -9.3910 os        1 5BC     -0.074000
     37 O38        -3.9360   -0.5720   -5.0460 o         1 5BC     -0.228000
     38 C39        -3.1010    1.1500   -9.8080 DU        1 5BC     -0.357000
     39 C40        -2.3920    0.0610  -10.6160 DU        1 5BC     -0.554000
     40 C41        -3.0630   -0.0790  -11.9840 c3        1 5BC     -0.643000
     41 H2          0.6810    0.0220   -0.8150 DU        1 5BC      0.455000
     42 H3          2.0090    0.0310    0.1160 DU        1 5BC      0.226000
     43 H4          2.2890    0.0000    1.7890 DU        1 5BC      0.209000
     44 H5          0.9820    0.0010    2.8730 DU        1 5BC      0.199000
     45 H6         -0.6110    0.0000    2.2910 DU        1 5BC      0.237000
     46 H8         -2.5340   -0.0110   -1.4270 DU        1 5BC     -0.092000
     47 H9         -3.0410    0.0110   -1.8790 DU        1 5BC      0.069000
     48 H11        -0.8860    0.0090   -1.8050 hc        1 5BC      0.253000
     49 H12         0.1620    0.0010   -3.0800 DU        1 5BC      0.278000
     50 H16        -2.1910    0.4480   -6.6180 DU        1 5BC     -0.051000
     51 H17        -2.0390    1.0520   -6.4630 DU        1 5BC      0.065000
     52 H18        -0.7430    1.9710   -6.0240 DU        1 5BC      0.244000
     53 H22         4.5230    6.8910   -9.7410 DU        1 5BC      0.122000
     54 H23         4.9620    7.2270   -9.7490 DU        1 5BC      0.122000
     55 H24         3.8500    6.8750  -11.5610 ha        1 5BC     -0.002000
     56 H25         5.8560    8.7850  -13.0930 DU        1 5BC      0.396000
     57 H27         6.5850    9.4360  -13.4870 ha        1 5BC      0.146000
     58 H31         7.1840    9.3720  -11.5590 DU        1 5BC     -0.081000
     59 H31A        8.1270   10.4670  -10.9440 hx        1 5BC      0.080000
     60 H33         2.7950    5.8170  -10.1620 ha        1 5BC      0.246000
     61 H33A        1.7490    5.8740   -9.5200 ha        1 5BC      0.246000
     62 H34         1.7760    4.3660  -10.1870 DU        1 5BC      0.221000
     63 H34A        0.9730    3.4760  -11.2210 ha        1 5BC      0.128000
     64 H35         0.1270    4.2210  -10.0180 DU        1 5BC      0.182000
     65 H35A        0.1020    4.3380   -8.4390 h1        1 5BC      0.097000
     66 H39        -2.1270    1.5640   -9.5790 DU        1 5BC      0.416000
     67 H39A       -4.1420    0.8800   -9.6750 ha        1 5BC      0.178000
     68 H40        -2.7170    1.0850  -10.4780 DU        1 5BC      0.355000
     69 H40A       -2.4560   -0.8820  -10.0850 ha        1 5BC      0.093000
     70 H41        -2.2000    0.1270  -11.3630 DU        1 5BC      0.298000
     71 H41A       -3.4310   -1.0670  -12.2340 hc        1 5BC      0.077000
     72 H41B       -3.7670    0.7010  -12.2500 hc        1 5BC      0.077000
     73 C37        -2.8780    0.0190   -4.9570 c2        1 5BC      0.337000
@<TRIPOS>BOND
     1    1    2 1   
     2    1    6 1   
     3    1   10 1   
     4    1   41 1   
     5    2    3 1   
     6    2   41 1   
     7    2   42 1   
     8    3    4 1   
     9    3   42 1   
    10    3   43 1   
    11    4    5 1   
    12    4   43 1   
    13    4   44 1   
    14    5    6 1   
    15    5   44 1   
    16    5   45 1   
    17    6   45 1   
    18    7    8 1   
    19    7   12 1   
    20    7   73 1   
    21    8    9 1   
    22    8   46 1   
    23    8   47 1   
    24    9   10 1   
    25    9   47 1   
    26   10   11 1   
    27   11   12 1   
    28   11   48 1   
    29   11   49 1   
    30   12   49 1   
    31   13   16 1   
    32   13   17 1   
    33   13   50 1   
    34   13   73 1   
    35   14   15 1   
    36   14   18 1   
    37   14   36 1   
    38   15   16 1   
    39   15   38 1   
    40   15   66 1   
    41   16   50 1   
    42   17   18 1   
    43   17   51 1   
    44   17   52 1   
    45   18   52 1   
    46   19   23 1   
    47   19   24 1   
    48   19   32 1   
    49   20   21 1   
    50   20   24 1   
    51   20   27 1   
    52   20   56 1   
    53   21   22 1   
    54   21   26 1   
    55   22   23 1   
    56   22   53 1   
    57   22   54 1   
    58   23   53 1   
    59   23   54 1   
    60   24   55 1   
    61   25   26 1   
    62   25   27 1   
    63   25   56 1   
    64   26   31 1   
    65   26   58 1   
    66   27   57 1   
    67   28   29 1   
    68   28   30 1   
    69   28   31 1   
    70   31   58 1   
    71   31   59 1   
    72   32   33 1   
    73   33   34 1   
    74   33   60 1   
    75   33   61 1   
    76   33   62 1   
    77   34   35 1   
    78   34   62 1   
    79   34   63 1   
    80   34   64 1   
    81   35   36 1   
    82   35   64 1   
    83   35   65 1   
    84   37   73 1   
    85   38   39 1   
    86   38   66 1   
    87   38   67 1   
    88   38   68 1   
    89   39   40 1   
    90   39   68 1   
    91   39   69 1   
    92   39   70 1   
    93   40   70 1   
    94   40   71 1   
    95   40   72 1   
    96   46   47 1   
    97   50   51 1   
    98   53   54 1   
@<TRIPOS>SUBSTRUCTURE
     1 5BC         1 TEMP              0 ****  ****    0 ROOT
