@<TRIPOS>MOLECULE
5BD
   58    54     1     0     0
SMALL
bcc


@<TRIPOS>ATOM
      1 C1       -266.7260 -149.0390 -364.4460 c1        1 5BD      0.067000
      2 C2       -265.6610 -149.8700 -363.9370 c3        1 5BD     -0.181000
      3 C3       -266.1520 -151.0890 -363.2110 c2        1 5BD     -0.153000
      4 C5       -272.0990 -149.4110 -363.0280 c2        1 5BD     -0.051000
      5 C6       -273.1400 -148.4540 -363.4750 c2        1 5BD      0.086000
      6 C7       -272.7520 -147.4770 -364.6970 c3        1 5BD     -0.169000
      7 C8       -271.4340 -147.8560 -364.9580 c1        1 5BD      0.321000
      8 C9       -264.6210 -151.8780 -361.4400 c2        1 5BD      0.227000
      9 C11      -268.0820 -149.4170 -364.4160 ca        1 5BD     -0.123000
     10 C12      -268.4680 -150.3510 -363.4760 ca        1 5BD     -0.048000
     11 C13      -269.8730 -150.5010 -363.0270 ca        1 5BD      0.306000
     12 C14      -269.0600 -148.7040 -365.2580 ca        1 5BD      0.340000
     13 O1       -264.9290 -152.6890 -360.5980 o         1 5BD     -0.098000
     14 N1       -265.1740 -152.1140 -362.8480 n4        1 5BD     -0.093000
     15 C4       -267.4820 -151.2590 -362.9440 c2        1 5BD     -0.056000
     16 O2       -270.2190 -151.4070 -362.2680 o         1 5BD     -0.187000
     17 O3       -268.8230 -148.2230 -366.3580 o         1 5BD     -0.136000
     18 C15      -270.4220 -148.6230 -364.6610 ca        1 5BD     -0.111000
     19 C16      -270.8500 -149.5120 -363.5360 ca        1 5BD     -0.122000
     20 N2       -274.3200 -148.2710 -363.0430 n2        1 5BD     -0.174000
     21 C10      -274.9930 -148.9680 -361.9580 c2        1 5BD      0.309000
     22 O4       -274.3380 -149.6770 -361.1900 o         1 5BD     -0.263000
     23 H1       -264.9660 -150.1110 -364.8030 hc        1 5BD      0.205500
     24 H2       -265.0520 -149.2150 -363.2330 hc        1 5BD      0.205500
     25 H5       -272.4170 -150.0830 -362.1880 ha        1 5BD      0.254000
     26 H7       -273.4740 -147.6600 -365.5500 hc        1 5BD      0.224000
     27 H8       -272.8800 -146.4050 -364.3560 hc        1 5BD      0.224000
     28 C17       939.3400  155.1660  445.6180 c3        1 5BD     -0.204500
     29 H4       -267.8800 -152.1170 -362.3600 ha        1 5BD      0.206000
     30 HN2      -261.2710   80.8850  265.6960 ha        1 5BD      0.000000
     31 C18      -276.4630 -148.7140 -361.8710 c3        1 5BD     -0.226000
     32 H81      -264.3950 -152.0900 -363.5200 hn        1 5BD      0.268000
     33 H9        939.2540  154.5380  446.5480 hx        1 5BD      0.154500
     34 N3        938.7970  156.5420  445.8970 n4        1 5BD     -0.084000
     35 H10      -263.9890 -150.9650 -361.3800 hx        1 5BD      0.245000
     36 H11      -276.8840 -149.3300 -361.0350 hc        1 5BD      0.146000
     37 H12      -276.9710 -148.9900 -362.8290 hc        1 5BD      0.146000
     38 N4       -829.3430    0.0260    0.0600 n1        1 5BD     -0.540000
     39 C19       938.8770  157.3990  444.6870 c3        1 5BD     -0.204500
     40 C20       937.5000  156.3790  446.5080 c1        1 5BD      0.185000
     41 H13       940.4180  155.2660  445.3190 hx        1 5BD      0.154500
     42 H14       938.7560  154.7000  444.7810 hx        1 5BD      0.154500
     43 H15       936.6530  156.7420  445.8780 hx        1 5BD      0.091000
     44 H16       939.9420  157.4750  444.3380 hx        1 5BD      0.154500
     45 H17       938.2530  156.9540  443.8660 hx        1 5BD      0.154500
     46 H18       939.3950  156.9570  446.6400 hn        1 5BD      0.290000
     47 C21      -828.8860    0.1880    0.2400 c1        1 5BD      0.770000
     48 C22      -829.7990    0.8640    0.8810 c1        1 5BD      0.770000
     49 H19       161.6470  -29.4090  237.3800 ha        1 5BD      0.000000
     50 H20       162.8300  -29.5550  234.8070 ha        1 5BD      0.000000
     51 H21       163.1130  -29.5890  234.1930 ha        1 5BD      0.000000
     52 H22       256.7960  131.9630  380.8360 ha        1 5BD      0.000000
     53 H23       161.9300  -29.4430  236.7660 ha        1 5BD      0.000000
     54 H24       256.6760  131.4880  381.3020 ha        1 5BD      0.000000
     55 H121     -265.6120 -153.0480 -362.8950 hn        1 5BD      0.268000
     56 H221     -261.9330   80.7860  265.5940 ha        1 5BD      0.000000
     57 H31       938.4960  158.4270  444.9340 hx        1 5BD      0.154500
     58 H41      -276.6550 -147.6300 -361.6660 hc        1 5BD      0.146000
@<TRIPOS>BOND
     1    1    2 1   
     2    1    9 1   
     3    2    3 1   
     4    2   23 1   
     5    2   24 1   
     6    3   14 1   
     7    3   15 1   
     8    4    5 1   
     9    4   19 1   
    10    4   25 1   
    11    5    6 1   
    12    5   20 1   
    13    6    7 1   
    14    6   26 1   
    15    6   27 1   
    16    7   18 1   
    17    8   13 1   
    18    8   14 1   
    19    8   35 1   
    20    9   10 1   
    21    9   12 1   
    22   10   11 1   
    23   10   15 1   
    24   11   16 1   
    25   11   19 1   
    26   12   17 1   
    27   12   18 1   
    28   14   32 1   
    29   14   55 1   
    30   15   29 1   
    31   18   19 1   
    32   20   21 1   
    33   21   22 1   
    34   21   31 1   
    35   28   33 1   
    36   28   34 1   
    37   28   41 1   
    38   28   42 1   
    39   30   56 1   
    40   31   36 1   
    41   31   37 1   
    42   31   58 1   
    43   34   39 1   
    44   34   40 1   
    45   34   46 1   
    46   38   48 1   
    47   39   44 1   
    48   39   45 1   
    49   39   57 1   
    50   40   43 1   
    51   47   48 1   
    52   49   53 1   
    53   50   51 1   
    54   52   54 1   
@<TRIPOS>SUBSTRUCTURE
     1 5BD         1 TEMP              0 ****  ****    0 ROOT
