@<TRIPOS>MOLECULE
5BD
   54    56     1     0     0
SMALL
bcc


@<TRIPOS>ATOM
      1 C1         -2.4730   -1.9300   -1.5280 ca        1 5BD     -0.059000
      2 C2         -3.6770   -1.3950   -1.0910 ca        1 5BD     -0.182000
      3 C3         -3.6960   -0.4060   -0.0770 ca        1 5BD      0.088600
      4 C5          2.4660    0.0140    0.4780 ca        1 5BD     -0.121000
      5 C6          3.6960   -0.4070   -0.0760 ca        1 5BD      0.088600
      6 C7          3.6770   -1.3960   -1.0900 ca        1 5BD     -0.182000
      7 C8          2.4730   -1.9300   -1.5280 ca        1 5BD     -0.059000
      8 C9         -5.1650    1.2020    1.1440 c         1 5BD      0.661100
      9 C11        -1.2560   -1.5050   -0.9840 ca        1 5BD     -0.163600
     10 C12        -1.2630   -0.5320    0.0260 ca        1 5BD     -0.097600
     11 C13        -0.0000   -0.0670    0.6470 c         1 5BD      0.578300
     12 C14         0.0000   -2.0900   -1.4900 c         1 5BD      0.595300
     13 O1         -4.2600    1.8990    1.6330 o         1 5BD     -0.577100
     14 N1         -4.9360    0.0880    0.3490 n         1 5BD     -0.460100
     15 C4         -2.4660    0.0140    0.4770 ca        1 5BD     -0.121000
     16 O2         -0.0000    0.6700    1.6410 o         1 5BD     -0.503100
     17 O3          0.0000   -3.0190   -2.3130 o         1 5BD     -0.542100
     18 C15         1.2560   -1.5060   -0.9840 ca        1 5BD     -0.163600
     19 C16         1.2630   -0.5320    0.0260 ca        1 5BD     -0.097600
     20 N2          4.9360    0.0880    0.3500 n         1 5BD     -0.460100
     21 C10         5.1650    1.2010    1.1450 c         1 5BD      0.661100
     22 O4          4.2600    1.8980    1.6350 o         1 5BD     -0.577100
     23 H1         -2.4650   -2.7020   -2.3170 ha        1 5BD      0.159000
     24 H2         -4.6150   -1.7520   -1.5440 ha        1 5BD      0.138000
     25 H5          2.4320    0.7800    1.2760 ha        1 5BD      0.197000
     26 H7          4.6160   -1.7520   -1.5430 ha        1 5BD      0.138000
     27 H8          2.4650   -2.7020   -2.3170 ha        1 5BD      0.159000
     28 C17        -6.6310    1.5290    1.4760 c3        1 5BD      0.090800
     29 H4         -2.4320    0.7800    1.2750 ha        1 5BD      0.197000
     30 HN2         5.7350   -0.3450   -0.0640 hn        1 5BD      0.334500
     31 C18         6.6310    1.5280    1.4770 c3        1 5BD      0.090800
     32 H81        -5.7350   -0.3450   -0.0650 hn        1 5BD      0.334500
     33 H9         -6.6180    2.5340    1.9930 h1        1 5BD      0.070200
     34 N3         -7.5080    1.5100    0.3180 n3        1 5BD     -0.749600
     35 H10        -6.9800    0.7580    2.2200 h1        1 5BD      0.070200
     36 H11         6.6180    2.5320    1.9950 h1        1 5BD      0.070200
     37 H12         6.9810    0.7570    2.2210 h1        1 5BD      0.070200
     38 N4          7.5080    1.5100    0.3200 n3        1 5BD     -0.749600
     39 C19        -8.9020    1.3630    0.6780 c3        1 5BD      0.152100
     40 C20        -7.2710    2.6170   -0.5840 c3        1 5BD      0.152100
     41 H13        -6.1810    2.6460   -0.8470 h1        1 5BD      0.038867
     42 H14        -7.8670    2.4500   -1.5200 h1        1 5BD      0.038867
     43 H15        -7.5590    3.6120   -0.1480 h1        1 5BD      0.038867
     44 H16        -9.2930    2.2200    1.2920 h1        1 5BD      0.038867
     45 H17        -9.5080    1.2930   -0.2620 h1        1 5BD      0.038867
     46 H18        -9.0320    0.4150    1.2630 h1        1 5BD      0.038867
     47 C21         7.2710    2.6170   -0.5820 c3        1 5BD      0.152100
     48 C22         8.9020    1.3630    0.6800 c3        1 5BD      0.152100
     49 H19         7.5590    3.6120   -0.1450 h1        1 5BD      0.038867
     50 H20         7.8670    2.4510   -1.5170 h1        1 5BD      0.038867
     51 H21         6.1810    2.6460   -0.8440 h1        1 5BD      0.038867
     52 H22         9.0320    0.4140    1.2640 h1        1 5BD      0.038867
     53 H23         9.5080    1.2930   -0.2610 h1        1 5BD      0.038867
     54 H24         9.2930    2.2190    1.2940 h1        1 5BD      0.038867
@<TRIPOS>BOND
     1    1    2 ar  
     2    1    9 ar  
     3    1   23 1   
     4    2    3 ar  
     5    2   24 1   
     6    3   14 1   
     7    3   15 ar  
     8    4    5 ar  
     9    4   19 ar  
    10    4   25 1   
    11    5    6 ar  
    12    5   20 1   
    13    6    7 ar  
    14    6   26 1   
    15    7   18 ar  
    16    7   27 1   
    17    8   13 2   
    18    8   14 1   
    19    8   28 1   
    20    9   10 ar  
    21    9   12 1   
    22   10   11 1   
    23   10   15 ar  
    24   11   16 2   
    25   11   19 1   
    26   12   17 2   
    27   12   18 1   
    28   14   32 1   
    29   15   29 1   
    30   18   19 ar  
    31   20   21 1   
    32   20   30 1   
    33   21   22 2   
    34   21   31 1   
    35   28   33 1   
    36   28   34 1   
    37   28   35 1   
    38   31   36 1   
    39   31   37 1   
    40   31   38 1   
    41   34   39 1   
    42   34   40 1   
    43   38   47 1   
    44   38   48 1   
    45   39   44 1   
    46   39   45 1   
    47   39   46 1   
    48   40   41 1   
    49   40   42 1   
    50   40   43 1   
    51   47   49 1   
    52   47   50 1   
    53   47   51 1   
    54   48   52 1   
    55   48   53 1   
    56   48   54 1   
@<TRIPOS>SUBSTRUCTURE
     1 5BD         1 TEMP              0 ****  ****    0 ROOT
