@<TRIPOS>MOLECULE
5BD
   54    50     1     0     0
SMALL
bcc


@<TRIPOS>ATOM
      1 C1          0.8910    0.7320   -3.6150 c1        1 5BD     -0.060000
      2 C2          2.2950    0.7220   -3.6340 c1        1 5BD     -0.152000
      3 C3          3.0100    0.7950   -2.4370 c1        1 5BD      0.093000
      4 C5         -1.9970    0.8990    1.3270 c1        1 5BD     -0.147000
      5 C6         -3.3920    0.7460    1.3700 c1        1 5BD      0.093000
      6 C7         -4.1200    0.6590    0.1840 c1        1 5BD     -0.152000
      7 C8         -3.4670    0.7240   -1.0350 c1        1 5BD     -0.060000
      8 C9          5.2490   -0.2210   -2.9280 c1        1 5BD      0.307000
      9 C11         0.2120    0.8140   -2.4080 c1        1 5BD     -0.140000
     10 C12         0.9190    0.8860   -1.2160 c1        1 5BD     -0.079000
     11 C13         0.1770    0.9710    0.0960 c2        1 5BD      0.306000
     12 C14        -1.3210    0.7920   -2.3920 c2        1 5BD      0.313000
     13 O1          4.7030   -1.2020   -3.3200 o         1 5BD     -0.350000
     14 N1          4.4800    0.8760   -2.4480 n1        1 5BD     -0.312000
     15 C4          2.3320    0.8770   -1.2310 c2        1 5BD     -0.147000
     16 O2          0.7730    1.0740    1.1020 o         1 5BD     -0.293000
     17 O3         -1.9480    0.6010   -3.4440 o         1 5BD     -0.295000
     18 C15        -2.0630    0.8780   -1.0730 c2        1 5BD     -0.140000
     19 C16        -1.3450    0.9630    0.1150 c2        1 5BD     -0.079000
     20 N2         -4.0410    0.8260    2.7490 n         1 5BD     -0.312000
     21 C10        -5.2790    0.2540    2.9690 c2        1 5BD      0.307000
     22 O4         -5.8440   -0.3040    2.0820 o         1 5BD     -0.350000
     23 H1          0.4140    0.6850   -4.4120 ha        1 5BD      0.163000
     24 H2          2.7670    0.7300   -4.4810 ha        1 5BD      0.181000
     25 H5         -1.4730    0.9640    2.1740 ha        1 5BD      0.158000
     26 H7         -5.0450    0.5590    0.2110 ha        1 5BD      0.181000
     27 H8         -3.9580    0.6650   -1.8360 ha        1 5BD      0.163000
     28 C17         6.7690   -0.1620   -2.8970 c3        1 5BD     -0.095000
     29 H4          2.8360    0.9330   -0.3840 ha        1 5BD      0.158000
     30 HN2        -3.5890    1.2530    3.4590 hn        1 5BD      0.251000
     31 C18        -5.9770    0.4430    4.3350 c3        1 5BD     -0.095000
     32 H81         4.8860    1.6170   -2.1730 hn        1 5BD      0.251000
     33 H9          7.0950    0.4330   -3.6310 h1        1 5BD      0.109000
     34 N3          7.2950   -1.4880   -3.0840 n3        1 5BD     -0.276000
     35 H10         7.0860    0.2110   -1.9850 h1        1 5BD      0.109000
     36 H11        -6.6670    1.0780    4.2510 h1        1 5BD      0.109000
     37 H12        -5.3400    0.7490    4.9740 h1        1 5BD      0.109000
     38 N4         -6.5180   -0.7890    4.7650 n3        1 5BD     -0.276000
     39 C19         8.1660   -1.4980   -4.2190 c3        1 5BD     -0.124000
     40 C20         8.0240   -1.8820   -1.9150 c3        1 5BD     -0.124000
     41 H13         8.2390   -2.8270   -1.9710 h1        1 5BD      0.078333
     42 H14         8.8430   -1.3650   -1.8560 h1        1 5BD      0.078333
     43 H15         7.4790   -1.7200   -1.1200 h1        1 5BD      0.078333
     44 H16         8.6640   -2.4180   -4.2730 h1        1 5BD      0.078333
     45 H17         8.8370   -0.7590   -4.1290 h1        1 5BD      0.078333
     46 H18         7.6300   -1.3610   -5.0470 h1        1 5BD      0.078333
     47 C21        -6.0170   -1.0960    6.0740 c3        1 5BD     -0.124000
     48 C22        -8.0120   -0.7010    4.8140 c3        1 5BD     -0.124000
     49 H19        -6.2430   -2.0620    6.3070 h1        1 5BD      0.078333
     50 H20        -6.4240   -0.5060    6.7180 h1        1 5BD      0.078333
     51 H21        -4.9820   -0.9680    6.0890 h1        1 5BD      0.078333
     52 H22        -8.3640   -0.5020    3.9040 h1        1 5BD      0.078333
     53 H23        -8.3770   -1.5580    5.1270 h1        1 5BD      0.078333
     54 H24        -8.2680   -0.0190    5.4030 h1        1 5BD      0.078333
@<TRIPOS>BOND
     1    1    9 1   
     2    1   23 1   
     3    2    3 1   
     4    2   24 1   
     5    3   15 1   
     6    4   19 1   
     7    4   25 1   
     8    5    6 1   
     9    5   20 1   
    10    6   26 1   
    11    7   18 1   
    12    7   27 1   
    13    8   13 1   
    14    8   28 1   
    15    9   12 1   
    16   10   11 1   
    17   10   15 1   
    18   11   16 1   
    19   11   19 1   
    20   12   17 1   
    21   12   18 1   
    22   14   32 1   
    23   15   29 1   
    24   18   19 1   
    25   20   21 1   
    26   20   30 1   
    27   21   22 1   
    28   21   31 1   
    29   28   33 1   
    30   28   34 1   
    31   28   35 1   
    32   31   36 1   
    33   31   37 1   
    34   31   38 1   
    35   34   39 1   
    36   34   40 1   
    37   38   47 1   
    38   38   48 1   
    39   39   44 1   
    40   39   45 1   
    41   39   46 1   
    42   40   41 1   
    43   40   42 1   
    44   40   43 1   
    45   47   49 1   
    46   47   50 1   
    47   47   51 1   
    48   48   52 1   
    49   48   53 1   
    50   48   54 1   
@<TRIPOS>SUBSTRUCTURE
     1 5BD         1 TEMP              0 ****  ****    0 ROOT
