@<TRIPOS>MOLECULE
5BD
   56    55     1     0     0
SMALL
bcc


@<TRIPOS>ATOM
      1 C1          0.0960    0.7080   -0.7130 ca        1 5BD     -0.048000
      2 C2          0.9220    1.7840   -0.4780 ca        1 5BD     -0.203000
      3 C3          2.0120    1.3790    0.4380 ca        1 5BD     -0.020000
      4 C5         -2.5810   -0.7150    4.1070 c2        1 5BD     -0.227000
      5 C6         -3.7610   -1.4380    4.1270 c2        1 5BD      0.099000
      6 C7         -4.3590   -1.8970    2.8220 c3        1 5BD     -0.206000
      7 C8         -3.7500   -1.3810    1.6140 c1        1 5BD     -0.027000
      8 C9          4.4290    1.2760    0.8800 c2        1 5BD      0.211000
      9 C11        -0.7850    0.5440    0.4510 ca        1 5BD     -0.027000
     10 C12        -0.0310    0.6130    1.6040 ca        1 5BD     -0.122000
     11 C13        -0.6530    0.3370    2.9200 ca        1 5BD      0.287000
     12 C14        -2.2170    0.1640    0.4330 ca        1 5BD      0.311000
     13 O1          4.2680    0.7350    2.0960 os        1 5BD     -0.213000
     14 N1          3.3690    1.5800    0.1430 nu        1 5BD     -0.127000
     15 C4          1.4250    0.8900    1.5850 ca        1 5BD     -0.058000
     16 O2         -0.0780    0.6100    3.9790 o         1 5BD     -0.251000
     17 O3         -2.9280    0.3980   -0.5420 o         1 5BD     -0.188000
     18 C15        -2.6770   -0.4760    1.6780 ca        1 5BD     -0.229000
     19 C16        -2.0050   -0.2890    2.8790 ca        1 5BD      0.031000
     20 N2         -4.4440   -1.7820    5.2850 ns        1 5BD     -0.323000
     21 C10        -4.3030   -1.2370    6.5540 c2        1 5BD      0.272000
     22 O4         -3.5780   -0.2740    6.8350 o         1 5BD     -0.341000
     23 H1          0.5140    2.7900   -0.2750 ha        1 5BD      0.161000
     24 H2          0.3330   -0.1800   -1.3170 ha        1 5BD      0.180000
     25 H5         -2.0670   -0.4240    5.0420 ha        1 5BD      0.186000
     26 H7         -4.2930   -3.0270    2.7500 hc        1 5BD      0.183500
     27 H8         -5.4630   -1.6460    2.7700 hc        1 5BD      0.183500
     28 C17         5.5000    0.2650    2.7430 cx        1 5BD      0.123000
     29 H4          1.9790    0.6740    2.5120 ha        1 5BD      0.179000
     30 HN2        -5.1380   -2.4940    5.1770 hn        1 5BD      0.250000
     31 C18        -7.3160    1.0550   12.5700 c3        1 5BD     -0.245000
     32 H81         3.5360    1.9930   -0.7640 hn        1 5BD      0.299000
     33 H9          5.1150   -0.5260    3.4260 hx        1 5BD      0.198000
     34 N3          6.4770    1.2750    3.3170 nx        1 5BD     -0.033000
     35 H10         5.4850    1.4440    0.5110 h5        1 5BD      0.270000
     36 H11        -4.9340   -1.7620    7.3130 h5        1 5BD      0.142000
     37 H12        -7.2560    0.2230   11.8350 hc        1 5BD      0.065000
     38 N4         -4.7720    3.6390   10.8300 n2        1 5BD     -0.416000
     39 C19         7.2020    0.9810    4.5460 c3        1 5BD     -0.192000
     40 C20         6.7190    0.5720    2.0860 cu        1 5BD     -0.579000
     41 H13         5.0190    3.4730    1.9130 ha        1 5BD      0.008000
     42 H14         5.2130    4.0910    2.1140 ha        1 5BD      0.008000
     43 H15         7.6090    0.1310    1.6730 hx        1 5BD      0.223000
     44 H16         7.4420   -0.1140    4.5990 hx        1 5BD      0.128000
     45 H17         6.5830    1.2730    5.4340 hx        1 5BD      0.128000
     46 H18         6.2410    2.2580    3.2340 hn        1 5BD      0.238000
     47 C21        -4.0300    3.4820    9.8540 c1        1 5BD      0.581000
     48 C22        -5.5390    3.8320   11.8560 c2        1 5BD      0.372000
     49 H19        -6.6770    1.9020   12.2160 hc        1 5BD      0.065000
     50 H20        -3.9250    1.3110    8.5590 ha        1 5BD      0.008000
     51 H21        -4.3100    1.4820    9.0970 ha        1 5BD      0.008000
     52 H22        -5.1640    3.6180   12.8890 h4        1 5BD      0.209000
     53 H23        -8.3680    1.4030   12.6600 hc        1 5BD      0.065000
     54 H24        -6.5730    4.2360   11.7190 h4        1 5BD      0.209000
     55 H31         8.1640    1.5630    4.5510 hx        1 5BD      0.128000
     56 H41        -6.9490    0.7080   13.5610 hc        1 5BD      0.065000
@<TRIPOS>BOND
     1    1    2 1   
     2    1    9 1   
     3    1   24 1   
     4    2    3 1   
     5    2   23 1   
     6    3   14 1   
     7    3   15 1   
     8    4    5 1   
     9    4   19 1   
    10    4   25 1   
    11    5    6 1   
    12    5   20 1   
    13    6    7 1   
    14    6   26 1   
    15    6   27 1   
    16    7   18 1   
    17    8   13 1   
    18    8   14 1   
    19    8   35 1   
    20    9   10 1   
    21    9   12 1   
    22   10   11 1   
    23   10   15 1   
    24   11   16 1   
    25   11   19 1   
    26   12   17 1   
    27   12   18 1   
    28   13   28 1   
    29   14   32 1   
    30   15   29 1   
    31   18   19 1   
    32   20   21 1   
    33   20   30 1   
    34   21   22 1   
    35   21   36 1   
    36   28   33 1   
    37   28   34 1   
    38   28   40 1   
    39   31   37 1   
    40   31   49 1   
    41   31   53 1   
    42   31   56 1   
    43   34   39 1   
    44   34   40 1   
    45   34   46 1   
    46   38   47 1   
    47   38   48 1   
    48   39   44 1   
    49   39   45 1   
    50   39   55 1   
    51   40   43 1   
    52   41   42 1   
    53   48   52 1   
    54   48   54 1   
    55   50   51 1   
@<TRIPOS>SUBSTRUCTURE
     1 5BD         1 TEMP              0 ****  ****    0 ROOT
