@<TRIPOS>MOLECULE
5BD
   56    55     1     0     0
SMALL
bcc


@<TRIPOS>ATOM
      1 C1          1.6130   -0.6010    2.9430 c1        1 5BD     -0.041000
      2 C2          2.4970    0.5110    2.6480 c3        1 5BD     -0.201000
      3 C3          2.1300    1.8660    3.1750 c2        1 5BD      0.107000
      4 C5         -3.4430    0.2630    5.4230 c2        1 5BD     -0.079000
      5 C6         -4.4240   -0.6880    5.3140 c2        1 5BD     -0.069000
      6 C7         -4.2160   -1.8860    4.4200 c3        1 5BD     -0.174000
      7 C8         -2.8750   -1.9890    3.8950 c1        1 5BD      0.040000
      8 C9          4.1660    2.9230    2.2500 c2        1 5BD      0.303000
      9 C11         0.4560   -0.3790    3.7290 ca        1 5BD     -0.220000
     10 C12         0.1170    0.8920    4.1520 ca        1 5BD      0.052000
     11 C13        -1.1390    1.1390    4.9210 ca        1 5BD      0.284000
     12 C14        -0.3920   -1.5450    4.0620 ca        1 5BD      0.328000
     13 O1          4.6400    1.8990    1.7210 o         1 5BD     -0.433000
     14 N1          2.9740    2.9500    2.9500 n         1 5BD     -0.310000
     15 C4          0.9540    2.0140    3.8860 c2        1 5BD     -0.245000
     16 O2         -1.3230    2.1630    5.5860 o         1 5BD     -0.244000
     17 O3          0.0140   -2.6990    4.1550 o         1 5BD     -0.183000
     18 C15        -1.8130   -1.1840    4.3270 ca        1 5BD     -0.119000
     19 C16        -2.1400    0.0510    4.8590 ca        1 5BD     -0.092000
     20 N2         -5.6590   -0.6440    6.0080 n3        1 5BD     -0.150000
     21 C10        -5.9840    0.0430    7.1070 c2        1 5BD      0.349000
     22 O4         -5.0150    0.8250    7.6430 os        1 5BD     -0.272000
     23 H1          3.5240    0.2200    3.0310 hc        1 5BD      0.178500
     24 H2          2.5940    0.5640    1.5190 hc        1 5BD      0.178500
     25 H5         -3.5790    1.2050    5.9870 ha        1 5BD      0.180000
     26 H7         -4.4710   -2.8640    4.9330 hc        1 5BD      0.189000
     27 H8         -4.9080   -1.8110    3.5230 hc        1 5BD      0.189000
     28 C17         6.6540   -0.0640   -1.1870 cu        1 5BD     -0.033000
     29 H4          0.6300    2.9900    4.2870 ha        1 5BD      0.170000
     30 HN2        -6.3830   -1.2240    5.6090 hn        1 5BD      0.291000
     31 C18        -7.3380   -0.0050    7.7360 c3        1 5BD     -0.249000
     32 H81         2.6890    3.8280    3.3370 hn        1 5BD      0.261000
     33 H9          6.0740    0.0660   -2.0950 hx        1 5BD      0.280000
     34 N3          6.3940    0.0120    0.2630 n4        1 5BD     -0.067000
     35 H10         4.6780    3.9160    2.1990 h5        1 5BD      0.170000
     36 H11        -7.7570    1.0390    7.7710 hc        1 5BD      0.166000
     37 H12        -7.2330   -0.3570    8.8000 hc        1 5BD      0.166000
     38 N4         -4.3640    2.1830    9.3680 n3        1 5BD     -0.284000
     39 C19         5.6230   -1.0290    0.9400 c3        1 5BD     -0.178000
     40 C20         7.6760   -0.3060   -0.3950 cu        1 5BD     -0.033000
     41 H13         6.7460    2.9790    1.3180 ha        1 5BD      0.005500
     42 H14         7.3480    2.7920    1.0690 ha        1 5BD      0.005500
     43 H15         8.6820   -0.5540   -0.0740 hx        1 5BD      0.280000
     44 H16         4.6090   -0.6060    1.1950 hx        1 5BD      0.147667
     45 H17         5.5050   -1.9310    0.2830 hx        1 5BD      0.147667
     46 H18         6.2730    0.9360    0.6970 hn        1 5BD      0.294000
     47 C21        -4.5670    2.8130   10.5620 c1        1 5BD      0.076000
     48 C22        -5.3810    1.4190    8.8970 c1        1 5BD      0.256000
     49 H19        -5.4860    4.8230    9.8190 ha        1 5BD      0.005500
     50 H20        -3.6910    3.4200   10.8870 ha        1 5BD      0.061000
     51 H21        -5.9760    4.6360   10.2520 ha        1 5BD      0.005500
     52 H22        -3.5060    2.2700    8.8420 hn        1 5BD      0.183000
     53 H23        -6.8100    3.0120    7.8290 ha        1 5BD      0.005500
     54 H24        -6.9340    3.4340    8.3470 ha        1 5BD      0.005500
     55 H31         6.1560   -1.3190    1.8860 hx        1 5BD      0.147667
     56 H41        -8.0480   -0.6740    7.1910 hc        1 5BD      0.166000
@<TRIPOS>BOND
     1    1    2 1   
     2    1    9 1   
     3    2    3 1   
     4    2   23 1   
     5    2   24 1   
     6    3   14 1   
     7    3   15 1   
     8    4    5 1   
     9    4   19 1   
    10    4   25 1   
    11    5    6 1   
    12    5   20 1   
    13    6    7 1   
    14    6   26 1   
    15    6   27 1   
    16    7   18 1   
    17    8   13 1   
    18    8   14 1   
    19    8   35 1   
    20    9   10 1   
    21    9   12 1   
    22   10   11 1   
    23   10   15 1   
    24   11   16 1   
    25   11   19 1   
    26   12   17 1   
    27   12   18 1   
    28   14   32 1   
    29   15   29 1   
    30   18   19 1   
    31   20   21 1   
    32   20   30 1   
    33   21   22 1   
    34   21   31 1   
    35   22   48 1   
    36   28   33 1   
    37   28   34 1   
    38   28   40 1   
    39   31   36 1   
    40   31   37 1   
    41   31   56 1   
    42   34   39 1   
    43   34   40 1   
    44   34   46 1   
    45   38   47 1   
    46   38   48 1   
    47   38   52 1   
    48   39   44 1   
    49   39   45 1   
    50   39   55 1   
    51   40   43 1   
    52   41   42 1   
    53   47   50 1   
    54   49   51 1   
    55   53   54 1   
@<TRIPOS>SUBSTRUCTURE
     1 5BD         1 TEMP              0 ****  ****    0 ROOT
