@<TRIPOS>MOLECULE
5BE
   57    60     1     0     0
SMALL
bcc


@<TRIPOS>ATOM
      1 C1         -0.6590    0.0340    1.0930 c3        1 5BE      0.170800
      2 C2          5.9320   -2.5410    1.2460 cc        1 5BE      0.424400
      3 C3          6.1670   -1.2410    1.8470 cc        1 5BE     -0.032200
      4 C4          5.2970   -0.4090    2.6020 cd        1 5BE     -0.375900
      5 C5          6.1170    0.7310    3.0030 cd        1 5BE      0.403600
      6 N6          7.3700    0.5750    2.4910 nc        1 5BE     -0.466800
      7 N7          7.3920   -0.5820    1.8270 na        1 5BE      0.022400
      8 C8          5.6770    1.8750    3.8240 c3        1 5BE     -0.150400
      9 C9          3.9260   -0.5940    2.9980 c         1 5BE      0.625700
     10 O10         3.4330   -0.4550    4.1110 o         1 5BE     -0.430100
     11 N11         2.9650   -0.9640    1.8870 n4        1 5BE     -0.666800
     12 C12         1.6870   -0.1670    1.9280 c3        1 5BE      0.120500
     13 C13         0.6210   -0.8020    1.0300 c3        1 5BE     -0.100400
     14 N14        -0.4320    1.4260    0.7350 n3        1 5BE     -0.738600
     15 C15         0.5910    2.0490    1.5590 c3        1 5BE      0.170800
     16 C16         1.9190    1.2890    1.5140 c3        1 5BE     -0.100400
     17 N17         4.7140   -3.0020    0.8610 nd        1 5BE     -0.618100
     18 N18         6.9710   -3.4580    0.9710 na        1 5BE     -0.246300
     19 C19         6.3600   -4.5830    0.4120 ca        1 5BE     -0.057200
     20 C20         4.9420   -4.2790    0.3340 ca        1 5BE      0.070400
     21 C21         4.0590   -5.2260   -0.2190 ca        1 5BE     -0.079000
     22 C22         4.5760   -6.4320   -0.6690 ca        1 5BE     -0.062300
     23 C23         5.9640   -6.7090   -0.5790 ca        1 5BE     -0.078000
     24 C24         6.8680   -5.8080   -0.0480 ca        1 5BE     -0.124000
     25 C25         3.6580   -7.4580   -1.2620 c3        1 5BE     -0.028400
     26 C26         4.0200   -7.7420   -2.7070 c3        1 5BE     -0.092100
     27 C27         3.6730   -8.7370   -0.4460 c3        1 5BE     -0.092100
     28 C28        -1.6540    2.1980    0.6730 c3        1 5BE      0.155100
     29 H1         -1.3950   -0.3970    0.3550 h1        1 5BE      0.055450
     30 H1A        -1.1050   -0.0700    2.1260 h1        1 5BE      0.055450
     31 HN7         8.2230   -0.8650    1.3520 hn        1 5BE      0.350700
     32 H8          6.3250    1.9750    4.7330 hc        1 5BE      0.076700
     33 H8A         5.7480    2.8280    3.2400 hc        1 5BE      0.076700
     34 H8B         4.6200    1.7250    4.1560 hc        1 5BE      0.076700
     35 HN11        3.4220   -0.8220    0.9790 hn        1 5BE      0.469300
     36 H12         1.3290   -0.1920    3.0030 hx        1 5BE      0.117700
     37 H13         0.3800   -1.8410    1.3760 hc        1 5BE      0.068950
     38 H13A        0.9840   -0.8560   -0.0300 hc        1 5BE      0.068950
     39 H15         0.7690    3.0880    1.1610 h1        1 5BE      0.055450
     40 H15A        0.2690    2.1420    2.6380 h1        1 5BE      0.055450
     41 H16         2.6360    1.7850    2.2180 hc        1 5BE      0.068950
     42 H16A        2.3450    1.3390    0.4770 hc        1 5BE      0.068950
     43 HN18        7.9030   -3.4050    1.2910 hn        1 5BE      0.318700
     44 H21         2.9850   -5.0040   -0.2910 ha        1 5BE      0.148000
     45 H23         6.3290   -7.6830   -0.9490 ha        1 5BE      0.157000
     46 H24         7.9400   -6.0400    0.0120 ha        1 5BE      0.155000
     47 H25         2.6050   -7.0490   -1.2440 hc        1 5BE      0.054700
     48 H26         3.9880   -6.8040   -3.3110 hc        1 5BE      0.043700
     49 H26A        5.0460   -8.1780   -2.7810 hc        1 5BE      0.043700
     50 H26B        3.2950   -8.4720   -3.1420 hc        1 5BE      0.043700
     51 H27         3.3850   -8.5300    0.6130 hc        1 5BE      0.043700
     52 H27A        2.9470   -9.4680   -0.8770 hc        1 5BE      0.043700
     53 H27B        4.6880   -9.2010   -0.4540 hc        1 5BE      0.043700
     54 H28        -2.1700    2.2880    1.6680 h1        1 5BE      0.048367
     55 H28A       -2.3530    1.7070   -0.0530 h1        1 5BE      0.048367
     56 H28B       -1.4100    3.2270    0.2980 h1        1 5BE      0.048367
     57 H112        2.7300   -1.9620    1.9760 hn        1 5BE      0.469300
@<TRIPOS>BOND
     1    1   13 1   
     2    1   14 1   
     3    1   29 1   
     4    1   30 1   
     5    2    3 1   
     6    2   17 2   
     7    2   18 1   
     8    3    4 2   
     9    3    7 1   
    10    4    5 1   
    11    4    9 1   
    12    5    6 2   
    13    5    8 1   
    14    6    7 1   
    15    7   31 1   
    16    8   32 1   
    17    8   33 1   
    18    8   34 1   
    19    9   10 2   
    20    9   11 1   
    21   11   12 1   
    22   11   35 1   
    23   11   57 1   
    24   12   13 1   
    25   12   16 1   
    26   12   36 1   
    27   13   37 1   
    28   13   38 1   
    29   14   15 1   
    30   14   28 1   
    31   15   16 1   
    32   15   39 1   
    33   15   40 1   
    34   16   41 1   
    35   16   42 1   
    36   17   20 1   
    37   18   19 1   
    38   18   43 1   
    39   19   20 ar  
    40   19   24 ar  
    41   20   21 ar  
    42   21   22 ar  
    43   21   44 1   
    44   22   23 ar  
    45   22   25 1   
    46   23   24 ar  
    47   23   45 1   
    48   24   46 1   
    49   25   26 1   
    50   25   27 1   
    51   25   47 1   
    52   26   48 1   
    53   26   49 1   
    54   26   50 1   
    55   27   51 1   
    56   27   52 1   
    57   27   53 1   
    58   28   54 1   
    59   28   55 1   
    60   28   56 1   
@<TRIPOS>SUBSTRUCTURE
     1 5BE         1 TEMP              0 ****  ****    0 ROOT
