@<TRIPOS>MOLECULE
5BE
   56    52     1     0     0
SMALL
bcc


@<TRIPOS>ATOM
      1 C1         -4.1010    3.7950   -0.4300 c3        1 5BE     -0.066000
      2 C2          2.4330   -0.3290   -0.7200 c2        1 5BE      0.038000
      3 C3          2.7560    1.0310   -0.4560 c2        1 5BE      0.053000
      4 C4          1.8600    2.0340   -0.1960 c1        1 5BE     -0.223000
      5 C5          2.5520    3.2090   -0.1180 c1        1 5BE     -0.089000
      6 N6          3.8590    2.9370   -0.3270 n2        1 5BE     -0.067000
      7 N7          3.9850    1.5830   -0.5380 n2        1 5BE     -0.122000
      8 C8          1.9630    4.5760    0.2030 c2        1 5BE     -0.156000
      9 C9          0.3570    1.8760   -0.0860 c1        1 5BE      0.396000
     10 O10        -0.1520    0.7800   -0.2340 o         1 5BE     -0.410000
     11 N11        -0.4610    3.0080    0.2040 n3        1 5BE     -0.367000
     12 C12        -1.9290    2.8440    0.3230 c3        1 5BE      0.021000
     13 C13        -2.5920    3.7680   -0.6150 c3        1 5BE     -0.171500
     14 N14        -4.4930    4.0350    0.9700 n3        1 5BE     -0.260000
     15 C15        -3.8360    3.1200    1.9100 c3        1 5BE     -0.066000
     16 C16        -2.3280    3.0900    1.7330 c3        1 5BE     -0.171500
     17 N17         2.5830   -1.2400    0.2820 n2        1 5BE     -0.170000
     18 N18         2.0880   -1.0020   -1.8550 n2        1 5BE     -0.170000
     19 C19         2.0240   -2.3300   -1.5540 c1        1 5BE     -0.050000
     20 C20         2.3310   -2.4780   -0.2320 c1        1 5BE     -0.050000
     21 C21         2.3040   -3.7590    0.3580 c1        1 5BE     -0.099000
     22 C22         1.9660   -4.8690   -0.4070 c1        1 5BE     -0.087000
     23 C23         1.6560   -4.7180   -1.7450 c1        1 5BE     -0.104000
     24 C24         1.6820   -3.4560   -2.3270 c1        1 5BE     -0.099000
     25 C25         1.9960   -6.1410    0.4340 c3        1 5BE     -0.068000
     26 C26         0.6140   -6.8030    0.4090 c3        1 5BE     -0.206000
     27 C27         3.0300   -7.1050   -0.1370 c3        1 5BE     -0.206000
     28 C28        -5.9280    3.9050    1.0960 c3        1 5BE     -0.118000
     29 H1         -4.4760    4.5070   -0.9890 h1        1 5BE      0.073500
     30 H1A        -4.4710    2.9360   -0.7200 h1        1 5BE      0.073500
     31 HN7         4.7630    1.1380   -0.7030 DU        1 5BE      0.298500
     32 H8          2.6900    5.2410    0.2640 ha        1 5BE      0.095667
     33 H8A         1.3410    4.8360   -0.5030 ha        1 5BE      0.095667
     34 H8B         1.4880    4.5340    1.0560 ha        1 5BE      0.095667
     35 HN11       -0.0770    3.8060    0.4010 hn        1 5BE      0.230000
     36 H12        -2.1650    1.9240    0.0830 h1        1 5BE      0.129000
     37 H13        -2.2380    4.6710   -0.4750 hc        1 5BE      0.092250
     38 H13A       -2.3910    3.4870   -1.5290 hc        1 5BE      0.092250
     39 H15        -4.1880    2.2160    1.7710 h1        1 5BE      0.073500
     40 H15A       -4.0420    3.4040    2.8250 h1        1 5BE      0.073500
     41 H16        -1.9570    2.3810    2.2960 hc        1 5BE      0.092250
     42 H16A       -1.9590    3.9500    2.0220 hc        1 5BE      0.092250
     43 HN18        1.8730   -0.6230   -2.6580 DU        1 5BE      0.298500
     44 H21         2.5230   -3.8660    1.3020 ha        1 5BE      0.144000
     45 H23         1.4170   -5.5010   -2.2840 ha        1 5BE      0.135000
     46 H24         1.4630   -3.3500   -3.2750 ha        1 5BE      0.144000
     47 H25         2.2340   -5.9170    1.3550 hc        1 5BE      0.091000
     48 H26         0.4030   -7.0840   -0.5040 hc        1 5BE      0.075833
     49 H26A       -0.0620   -6.1600    0.7190 hc        1 5BE      0.075833
     50 H26B        0.6160   -7.5850    0.9990 hc        1 5BE      0.075833
     51 H27         2.7320   -7.4220   -1.0090 hc        1 5BE      0.075833
     52 H27A        3.1350   -7.8650    0.4690 hc        1 5BE      0.075833
     53 H27B        3.8900   -6.6420   -0.2330 hc        1 5BE      0.075833
     54 H28        -6.3680    4.5640    0.5190 h1        1 5BE      0.072000
     55 H28A       -6.1910    4.0610    2.0300 h1        1 5BE      0.072000
     56 H28B       -6.2010    2.9990    0.8250 h1        1 5BE      0.072000
@<TRIPOS>BOND
     1    1   13 1   
     2    1   14 1   
     3    1   29 1   
     4    1   30 1   
     5    2    3 1   
     6    2   17 1   
     7    2   18 1   
     8    3    4 1   
     9    3    7 1   
    10    4    5 1   
    11    5    6 1   
    12    6    7 1   
    13    8   32 1   
    14    8   33 1   
    15    8   34 1   
    16    9   10 1   
    17    9   11 1   
    18   11   12 1   
    19   11   35 1   
    20   12   13 1   
    21   12   16 1   
    22   12   36 1   
    23   13   37 1   
    24   13   38 1   
    25   14   15 1   
    26   14   28 1   
    27   15   16 1   
    28   15   39 1   
    29   15   40 1   
    30   16   41 1   
    31   16   42 1   
    32   17   20 1   
    33   18   19 1   
    34   19   24 1   
    35   20   21 1   
    36   21   44 1   
    37   22   23 1   
    38   22   25 1   
    39   23   45 1   
    40   24   46 1   
    41   25   26 1   
    42   25   27 1   
    43   25   47 1   
    44   26   48 1   
    45   26   49 1   
    46   26   50 1   
    47   27   51 1   
    48   27   52 1   
    49   27   53 1   
    50   28   54 1   
    51   28   55 1   
    52   28   56 1   
@<TRIPOS>SUBSTRUCTURE
     1 5BE         1 TEMP              0 ****  ****    0 ROOT
