@<TRIPOS>MOLECULE
5BE
   57    60     1     0     0
SMALL
bcc


@<TRIPOS>ATOM
      1 C1         -0.6650    0.0570    1.1090 c3        1 5BE      0.170800
      2 C2          5.9190   -2.5570    1.2600 cc        1 5BE      0.424400
      3 C3          6.1540   -1.2630    1.8740 cc        1 5BE     -0.030200
      4 C4          5.2810   -0.4370    2.6300 cd        1 5BE     -0.377900
      5 C5          6.1000    0.6980    3.0490 cd        1 5BE      0.403600
      6 N6          7.3560    0.5440    2.5440 nc        1 5BE     -0.465800
      7 N7          7.3800   -0.6060    1.8680 na        1 5BE      0.021400
      8 C8          5.6460    1.8340    3.8710 c3        1 5BE     -0.153400
      9 C9          3.9070   -0.6240    3.0180 c         1 5BE      0.626700
     10 O10         3.4100   -0.4980    4.1310 o         1 5BE     -0.431100
     11 N11         2.9500   -0.9780    1.8990 n4        1 5BE     -0.666800
     12 C12         1.6860   -0.1580    1.9270 c3        1 5BE      0.120500
     13 C13         0.6010   -0.8020    1.0590 c3        1 5BE     -0.100400
     14 N14        -0.4190    1.4330    0.7070 n3        1 5BE     -0.738600
     15 C15         0.6240    2.0630    1.5010 c3        1 5BE      0.170800
     16 C16         1.9380    1.2790    1.4650 c3        1 5BE     -0.100400
     17 N17         4.7010   -3.0160    0.8720 nd        1 5BE     -0.618100
     18 N18         6.9580   -3.4710    0.9760 na        1 5BE     -0.246300
     19 C19         6.3460   -4.5920    0.4070 ca        1 5BE     -0.056200
     20 C20         4.9280   -4.2880    0.3330 ca        1 5BE      0.070400
     21 C21         4.0450   -5.2290   -0.2270 ca        1 5BE     -0.079000
     22 C22         4.5620   -6.4310   -0.6890 ca        1 5BE     -0.062300
     23 C23         5.9500   -6.7090   -0.6030 ca        1 5BE     -0.078000
     24 C24         6.8540   -5.8120   -0.0640 ca        1 5BE     -0.124000
     25 C25         3.6430   -7.4520   -1.2890 c3        1 5BE     -0.028400
     26 C26         4.0040   -7.7240   -2.7370 c3        1 5BE     -0.092100
     27 C27         3.6590   -8.7380   -0.4840 c3        1 5BE     -0.092100
     28 C28        -1.6280    2.2240    0.6350 c3        1 5BE      0.155100
     29 H1         -1.1020   -0.0100    2.1490 h1        1 5BE      0.055450
     30 H1A        -1.4150   -0.3830    0.3910 h1        1 5BE      0.055450
     31 HN7         8.2140   -0.8870    1.3960 hn        1 5BE      0.350700
     32 H8          4.8280    1.5010    4.5590 hc        1 5BE      0.077700
     33 H8A         5.2590    2.6510    3.2100 hc        1 5BE      0.077700
     34 H8B         6.4830    2.2510    4.4870 hc        1 5BE      0.077700
     35 HN11        3.4180   -0.8450    0.9950 hn        1 5BE      0.469300
     36 H12         1.3360   -0.1450    3.0060 hx        1 5BE      0.117700
     37 H13         0.3460   -1.8260    1.4380 hc        1 5BE      0.069200
     38 H13A        0.9520   -0.8940   -0.0030 hc        1 5BE      0.069200
     39 H15         0.8150    3.0870    1.0700 h1        1 5BE      0.055450
     40 H15A        0.3150    2.1940    2.5800 h1        1 5BE      0.055450
     41 H16         2.3530    1.2890    0.4220 hc        1 5BE      0.069200
     42 H16A        2.6720    1.7860    2.1440 hc        1 5BE      0.069200
     43 HN18        7.8900   -3.4210    1.2940 hn        1 5BE      0.318700
     44 H21         2.9700   -5.0070   -0.2960 ha        1 5BE      0.148000
     45 H23         6.3150   -7.6790   -0.9820 ha        1 5BE      0.157000
     46 H24         7.9270   -6.0440   -0.0080 ha        1 5BE      0.155000
     47 H25         2.5900   -7.0440   -1.2670 hc        1 5BE      0.054700
     48 H26         3.9710   -6.7810   -3.3330 hc        1 5BE      0.043700
     49 H26A        5.0300   -8.1590   -2.8160 hc        1 5BE      0.043700
     50 H26B        3.2790   -8.4500   -3.1770 hc        1 5BE      0.043700
     51 H27         4.6750   -9.2020   -0.4970 hc        1 5BE      0.043700
     52 H27A        3.3720   -8.5400    0.5760 hc        1 5BE      0.043700
     53 H27B        2.9330   -9.4660   -0.9210 hc        1 5BE      0.043700
     54 H28        -2.3440    1.7230   -0.0690 h1        1 5BE      0.048367
     55 H28A       -2.1320    2.3530    1.6320 h1        1 5BE      0.048367
     56 H28B       -1.3710    3.2360    0.2270 h1        1 5BE      0.048367
     57 H112        2.6970   -1.9720    1.9880 hn        1 5BE      0.469300
@<TRIPOS>BOND
     1    1   13 1   
     2    1   14 1   
     3    1   29 1   
     4    1   30 1   
     5    2    3 1   
     6    2   17 2   
     7    2   18 1   
     8    3    4 2   
     9    3    7 1   
    10    4    5 1   
    11    4    9 1   
    12    5    6 2   
    13    5    8 1   
    14    6    7 1   
    15    7   31 1   
    16    8   32 1   
    17    8   33 1   
    18    8   34 1   
    19    9   10 2   
    20    9   11 1   
    21   11   12 1   
    22   11   35 1   
    23   11   57 1   
    24   12   13 1   
    25   12   16 1   
    26   12   36 1   
    27   13   37 1   
    28   13   38 1   
    29   14   15 1   
    30   14   28 1   
    31   15   16 1   
    32   15   39 1   
    33   15   40 1   
    34   16   41 1   
    35   16   42 1   
    36   17   20 1   
    37   18   19 1   
    38   18   43 1   
    39   19   20 ar  
    40   19   24 ar  
    41   20   21 ar  
    42   21   22 ar  
    43   21   44 1   
    44   22   23 ar  
    45   22   25 1   
    46   23   24 ar  
    47   23   45 1   
    48   24   46 1   
    49   25   26 1   
    50   25   27 1   
    51   25   47 1   
    52   26   48 1   
    53   26   49 1   
    54   26   50 1   
    55   27   51 1   
    56   27   52 1   
    57   27   53 1   
    58   28   54 1   
    59   28   55 1   
    60   28   56 1   
@<TRIPOS>SUBSTRUCTURE
     1 5BE         1 TEMP              0 ****  ****    0 ROOT
