@<TRIPOS>MOLECULE
5BE
   57    60     1     0     0
SMALL
bcc


@<TRIPOS>ATOM
      1 C1         -0.6640    0.0590    1.1210 c3        1 5BE      0.170800
      2 C2          5.9210   -2.5540    1.2430 cc        1 5BE      0.424400
      3 C3          6.1580   -1.2590    1.8540 cc        1 5BE     -0.030200
      4 C4          5.2880   -0.4320    2.6140 cd        1 5BE     -0.377900
      5 C5          6.1100    0.7030    3.0270 cd        1 5BE      0.403600
      6 N6          7.3630    0.5490    2.5160 nc        1 5BE     -0.465800
      7 N7          7.3840   -0.6020    1.8410 na        1 5BE      0.021400
      8 C8          5.6590    1.8400    3.8500 c3        1 5BE     -0.153400
      9 C9          3.9170   -0.6190    3.0090 c         1 5BE      0.626700
     10 O10         3.4260   -0.4920    4.1240 o         1 5BE     -0.431100
     11 N11         2.9540   -0.9750    1.8950 ny        1 5BE     -0.666800
     12 C12         1.6900   -0.1550    1.9290 c3        1 5BE      0.120500
     13 C13         0.6010   -0.8000    1.0650 c3        1 5BE     -0.100400
     14 N14        -0.4200    1.4350    0.7170 n3        1 5BE     -0.738600
     15 C15         0.6260    2.0650    1.5060 c3        1 5BE      0.170800
     16 C16         1.9400    1.2820    1.4640 c3        1 5BE     -0.100400
     17 N17         4.7010   -3.0140    0.8620 nd        1 5BE     -0.618100
     18 N18         6.9580   -3.4680    0.9550 na        1 5BE     -0.246300
     19 C19         6.3440   -4.5900    0.3910 ca        1 5BE     -0.056200
     20 C20         4.9260   -4.2860    0.3230 ca        1 5BE      0.070400
     21 C21         4.0400   -5.2280   -0.2310 ca        1 5BE     -0.079000
     22 C22         4.5550   -6.4310   -0.6940 ca        1 5BE     -0.062300
     23 C23         5.9440   -6.7080   -0.6140 ca        1 5BE     -0.078000
     24 C24         6.8500   -5.8110   -0.0820 ca        1 5BE     -0.124000
     25 C25         3.6330   -7.4530   -1.2880 c3        1 5BE     -0.028400
     26 C26         3.9870   -7.7270   -2.7380 c3        1 5BE     -0.092100
     27 C27         3.6540   -8.7380   -0.4820 c3        1 5BE     -0.092100
     28 C28        -1.6290    2.2260    0.6490 c3        1 5BE      0.155100
     29 H1         -1.0970   -0.0060    2.1630 h1        1 5BE      0.055450
     30 H1A        -1.4170   -0.3810    0.4070 h1        1 5BE      0.055450
     31 HN7         8.2160   -0.8830    1.3660 hn        1 5BE      0.350700
     32 H8          6.4990    2.2560    4.4640 hc        1 5BE      0.077700
     33 H8A         4.8430    1.5090    4.5400 hc        1 5BE      0.077700
     34 H8B         5.2720    2.6580    3.1900 hc        1 5BE      0.077700
     35 HN11        2.7020   -1.9690    1.9860 hn        1 5BE      0.469300
     36 H12         1.3460   -0.1420    3.0090 hx        1 5BE      0.117700
     37 H13         0.3480   -1.8230    1.4470 hc        1 5BE      0.069200
     38 H13A        0.9480   -0.8920    0.0030 hc        1 5BE      0.069200
     39 H15         0.3220    2.1980    2.5860 h1        1 5BE      0.055450
     40 H15A        0.8150    3.0890    1.0740 h1        1 5BE      0.055450
     41 H16         2.3500    1.2910    0.4200 hc        1 5BE      0.069200
     42 H16A        2.6780    1.7890    2.1400 hc        1 5BE      0.069200
     43 HN18        7.8920   -3.4170    1.2680 hn        1 5BE      0.318700
     44 H21         2.9650   -5.0070   -0.2950 ha        1 5BE      0.148000
     45 H23         6.3070   -7.6780   -0.9940 ha        1 5BE      0.157000
     46 H24         7.9230   -6.0420   -0.0310 ha        1 5BE      0.155000
     47 H25         2.5800   -7.0450   -1.2610 hc        1 5BE      0.054700
     48 H26         3.2600   -8.4540   -3.1740 hc        1 5BE      0.043700
     49 H26A        5.0120   -8.1620   -2.8210 hc        1 5BE      0.043700
     50 H26B        3.9510   -6.7850   -3.3350 hc        1 5BE      0.043700
     51 H27         2.9260   -9.4660   -0.9140 hc        1 5BE      0.043700
     52 H27A        4.6690   -9.2020   -0.4990 hc        1 5BE      0.043700
     53 H27B        3.3720   -8.5390    0.5800 hc        1 5BE      0.043700
     54 H28        -2.1290    2.3550    1.6480 h1        1 5BE      0.048367
     55 H28A       -2.3480    1.7240   -0.0510 h1        1 5BE      0.048367
     56 H28B       -1.3740    3.2380    0.2390 h1        1 5BE      0.048367
     57 H112        3.4180   -0.8430    0.9880 hn        1 5BE      0.469300
@<TRIPOS>BOND
     1    1   13 1   
     2    1   14 1   
     3    1   29 1   
     4    1   30 1   
     5    2    3 1   
     6    2   17 2   
     7    2   18 1   
     8    3    4 2   
     9    3    7 1   
    10    4    5 1   
    11    4    9 1   
    12    5    6 2   
    13    5    8 1   
    14    6    7 1   
    15    7   31 1   
    16    8   32 1   
    17    8   33 1   
    18    8   34 1   
    19    9   10 2   
    20    9   11 1   
    21   11   12 1   
    22   11   35 1   
    23   11   57 1   
    24   12   13 1   
    25   12   16 1   
    26   12   36 1   
    27   13   37 1   
    28   13   38 1   
    29   14   15 1   
    30   14   28 1   
    31   15   16 1   
    32   15   39 1   
    33   15   40 1   
    34   16   41 1   
    35   16   42 1   
    36   17   20 1   
    37   18   19 1   
    38   18   43 1   
    39   19   20 ar  
    40   19   24 ar  
    41   20   21 ar  
    42   21   22 ar  
    43   21   44 1   
    44   22   23 ar  
    45   22   25 1   
    46   23   24 ar  
    47   23   45 1   
    48   24   46 1   
    49   25   26 1   
    50   25   27 1   
    51   25   47 1   
    52   26   48 1   
    53   26   49 1   
    54   26   50 1   
    55   27   51 1   
    56   27   52 1   
    57   27   53 1   
    58   28   54 1   
    59   28   55 1   
    60   28   56 1   
@<TRIPOS>SUBSTRUCTURE
     1 5BE         1 TEMP              0 ****  ****    0 ROOT
