@<TRIPOS>MOLECULE
5BE
   56    59     1     0     0
SMALL
bcc


@<TRIPOS>ATOM
      1 C1          2.6330    3.1890    1.1960 c3        1 5BE      0.170800
      2 C2         -0.8630   -1.8370   -0.2770 cc        1 5BE      0.463400
      3 C3          0.2220   -2.8070   -0.2930 cc        1 5BE     -0.109200
      4 C4          1.5770   -2.6950    0.0670 cd        1 5BE     -0.260900
      5 C5          2.1260   -4.0290   -0.1240 cd        1 5BE      0.358600
      6 N6          1.1430   -4.8630   -0.5790 nc        1 5BE     -0.502800
      7 N7          0.0240   -4.1480   -0.6560 na        1 5BE     -0.005600
      8 C8          3.5240   -4.4230    0.1300 c3        1 5BE     -0.138400
      9 C9          2.3220   -1.5370    0.5890 c         1 5BE      0.707700
     10 O10         3.0350   -1.6340    1.6120 o         1 5BE     -0.616100
     11 N11         2.2280   -0.3630   -0.1230 n         1 5BE     -0.555900
     12 C12         2.8810    0.8560    0.3000 c3        1 5BE      0.099700
     13 C13         1.8840    1.9450    0.7280 c3        1 5BE     -0.092400
     14 N14         3.5650    3.7110    0.2050 n3        1 5BE     -0.733600
     15 C15         4.4830    2.6960   -0.2940 c3        1 5BE      0.170800
     16 C16         3.7800    1.4410   -0.8020 c3        1 5BE     -0.092400
     17 N17        -0.8810   -0.6500   -0.9170 nd        1 5BE     -0.542100
     18 N18        -2.0720   -2.1150    0.4150 na        1 5BE     -0.273300
     19 C19        -2.8760   -0.9820    0.2520 ca        1 5BE     -0.070200
     20 C20        -2.1300   -0.0770   -0.6050 ca        1 5BE      0.062400
     21 C21        -2.7010    1.1450   -0.9870 ca        1 5BE     -0.064000
     22 C22        -3.9740    1.4590   -0.5220 ca        1 5BE     -0.091300
     23 C23        -4.6820    0.5670    0.3140 ca        1 5BE     -0.099000
     24 C24        -4.1570   -0.6520    0.7100 ca        1 5BE     -0.133000
     25 C25        -4.6020    2.7620   -0.9160 c3        1 5BE     -0.022400
     26 C26        -5.8770    2.5380   -1.7060 c3        1 5BE     -0.089100
     27 C27        -4.8740    3.6260    0.3010 c3        1 5BE     -0.089100
     28 C28         4.2540    4.8930    0.6700 c3        1 5BE      0.158100
     29 H1          1.8810    4.0000    1.4100 h1        1 5BE      0.031950
     30 H1A         3.1570    2.9460    2.1680 h1        1 5BE      0.031950
     31 HN7        -0.8020   -4.5400   -1.0460 hn        1 5BE      0.330700
     32 H8          3.5870   -5.4640    0.5330 hc        1 5BE      0.064367
     33 H8A         4.1120   -4.3760   -0.8210 hc        1 5BE      0.064367
     34 H8B         3.9770   -3.7170    0.8730 hc        1 5BE      0.064367
     35 HN11        1.6320   -0.3070   -0.9140 hn        1 5BE      0.330500
     36 H12         3.5340    0.6050    1.1920 h1        1 5BE      0.085700
     37 H13         1.2490    1.5780    1.5740 hc        1 5BE      0.053950
     38 H13A        1.2070    2.2030   -0.1270 hc        1 5BE      0.053950
     39 H15         5.0580    3.1550   -1.1480 h1        1 5BE      0.031950
     40 H15A        5.2320    2.3920    0.4960 h1        1 5BE      0.031950
     41 H16         4.5630    0.6970   -1.1020 hc        1 5BE      0.053950
     42 H16A        3.1680    1.6850   -1.7090 hc        1 5BE      0.053950
     43 HN18       -2.1840   -2.8040    1.1120 hn        1 5BE      0.308700
     44 H21        -2.1450    1.8330   -1.6410 ha        1 5BE      0.151000
     45 H23        -5.6870    0.8550    0.6620 ha        1 5BE      0.138000
     46 H24        -4.7230   -1.3340    1.3580 ha        1 5BE      0.139000
     47 H25        -3.8790    3.3210   -1.5800 hc        1 5BE      0.053700
     48 H26        -5.6700    1.9230   -2.6140 hc        1 5BE      0.037033
     49 H26A       -6.6390    2.0070   -1.0850 hc        1 5BE      0.037033
     50 H26B       -6.3030    3.5180   -2.0270 hc        1 5BE      0.037033
     51 H27        -3.9290    3.8110    0.8670 hc        1 5BE      0.037033
     52 H27A       -5.2980    4.6090   -0.0170 hc        1 5BE      0.037033
     53 H27B       -5.6040    3.1290    0.9840 hc        1 5BE      0.037033
     54 H28         4.9190    4.7030    1.5580 h1        1 5BE      0.031033
     55 H28A        4.8830    5.2970   -0.1660 h1        1 5BE      0.031033
     56 H28B        3.4930    5.6670    0.9540 h1        1 5BE      0.031033
@<TRIPOS>BOND
     1    1   13 1   
     2    1   14 1   
     3    1   29 1   
     4    1   30 1   
     5    2    3 1   
     6    2   17 2   
     7    2   18 1   
     8    3    4 2   
     9    3    7 1   
    10    4    5 1   
    11    4    9 1   
    12    5    6 2   
    13    5    8 1   
    14    6    7 1   
    15    7   31 1   
    16    8   32 1   
    17    8   33 1   
    18    8   34 1   
    19    9   10 2   
    20    9   11 1   
    21   11   12 1   
    22   11   35 1   
    23   12   13 1   
    24   12   16 1   
    25   12   36 1   
    26   13   37 1   
    27   13   38 1   
    28   14   15 1   
    29   14   28 1   
    30   15   16 1   
    31   15   39 1   
    32   15   40 1   
    33   16   41 1   
    34   16   42 1   
    35   17   20 1   
    36   18   19 1   
    37   18   43 1   
    38   19   20 ar  
    39   19   24 ar  
    40   20   21 ar  
    41   21   22 ar  
    42   21   44 1   
    43   22   23 ar  
    44   22   25 1   
    45   23   24 ar  
    46   23   45 1   
    47   24   46 1   
    48   25   26 1   
    49   25   27 1   
    50   25   47 1   
    51   26   48 1   
    52   26   49 1   
    53   26   50 1   
    54   27   51 1   
    55   27   52 1   
    56   27   53 1   
    57   28   54 1   
    58   28   55 1   
    59   28   56 1   
@<TRIPOS>SUBSTRUCTURE
     1 5BE         1 TEMP              0 ****  ****    0 ROOT
