@<TRIPOS>MOLECULE
5BF
   84    88     1     0     0
SMALL
bcc


@<TRIPOS>ATOM
      1 C01        -1.0700   -1.3710    1.0390 ca        1 5BF     -0.181000
      2 C02         0.2580   -0.9550    1.0700 ca        1 5BF     -0.087500
      3 C03         0.8630   -0.5680    2.2720 ca        1 5BF     -0.262300
      4 C04         2.2280    0.0120    2.2640 c3        1 5BF     -0.033100
      5 C05         0.1120   -0.6090    3.4600 ca        1 5BF     -0.087500
      6 C06        -1.2100   -1.0140    3.4510 ca        1 5BF     -0.181000
      7 C07        -1.8230   -1.3770    2.2250 ca        1 5BF      0.194100
      8 O08        -3.1380   -1.7190    2.3320 os        1 5BF     -0.308900
      9 C09        -3.9350   -1.7870    1.1350 c3        1 5BF      0.121400
     10 C10        -4.0400   -3.2200    0.6550 c3        1 5BF     -0.112400
     11 C11        -4.9450   -3.3040   -0.5540 c3        1 5BF     -0.110400
     12 C12        -5.1810   -4.7280   -1.0270 c3        1 5BF      0.126400
     13 O13        -4.0430   -5.2370   -1.7260 os        1 5BF     -0.322900
     14 C14        -3.1300   -6.0090   -1.0440 ca        1 5BF      0.141100
     15 C15        -3.1680   -6.3070    0.3230 ca        1 5BF     -0.182500
     16 C16        -2.1400   -7.0610    0.8870 ca        1 5BF     -0.092500
     17 C17        -2.0840   -6.5060   -1.8510 ca        1 5BF     -0.182500
     18 C18        -1.0670   -7.2490   -1.2690 ca        1 5BF     -0.092500
     19 C19        -1.0700   -7.5080    0.1080 ca        1 5BF     -0.147300
     20 C20         0.0780   -8.2020    0.7540 c3        1 5BF     -0.019100
     21 C21         0.9500   -7.1470    1.4180 c3        1 5BF     -0.176400
     22 C22         2.1350   -7.6910    2.1470 c         1 5BF      0.572700
     23 O23         2.4310   -8.8730    2.2770 o         1 5BF     -0.417100
     24 C24         3.0200   -6.6450    2.7590 cc        1 5BF     -0.035900
     25 N25         2.7400   -5.2970    2.7530 na        1 5BF     -0.154100
     26 C26         4.2710   -6.8590    3.4150 cd        1 5BF     -0.154000
     27 C27         4.7560   -5.6030    3.8210 cd        1 5BF      0.009000
     28 C28         3.7920   -4.6150    3.4030 cc        1 5BF     -0.292900
     29 C29         3.9360   -3.2270    3.6120 c         1 5BF      0.613700
     30 O30         4.8320   -2.6050    4.1940 o         1 5BF     -0.552100
     31 N31         2.8430   -2.3100    3.0480 n4        1 5BF     -0.681800
     32 C32         3.2870   -0.8800    2.9620 c3        1 5BF      0.074500
     33 C33         3.5670   -0.3480    4.3750 c         1 5BF      0.543100
     34 O34         2.7950   -0.4550    5.3170 o         1 5BF     -0.398100
     35 N35         4.8780    0.3280    4.5940 n4        1 5BF     -0.650800
     36 C36         4.7820    1.5640    5.4610 c3        1 5BF     -0.015500
     37 C37         4.1660    2.7510    4.7200 c         1 5BF      0.574900
     38 O38         3.7230    2.6290    3.5820 o         1 5BF     -0.510100
     39 C39         6.1690    1.9590    5.9960 c3        1 5BF     -0.044100
     40 C40         6.8430    0.8200    6.6710 ca        1 5BF     -0.174300
     41 C41         7.7770    0.0420    5.9720 ca        1 5BF     -0.132000
     42 C42         8.4530   -0.9890    6.6200 ca        1 5BF     -0.109500
     43 C43         8.2020   -1.2520    7.9690 ca        1 5BF     -0.090000
     44 C44         7.2740   -0.4790    8.6680 ca        1 5BF     -0.109500
     45 C45         6.5970    0.5550    8.0230 ca        1 5BF     -0.132000
     46 H1         -1.5280   -1.6730    0.0840 ha        1 5BF      0.176000
     47 H2          0.8220   -0.9050    0.1240 ha        1 5BF      0.140500
     48 H3          2.2240    1.0200    2.7680 hc        1 5BF      0.108200
     49 H4          2.5740    0.1760    1.2060 hc        1 5BF      0.108200
     50 H5          0.5670   -0.2780    4.4090 ha        1 5BF      0.140500
     51 H6         -1.8120   -1.0320    4.3740 ha        1 5BF      0.176000
     52 H7         -4.9360   -1.4110    1.4930 h1        1 5BF      0.078200
     53 H8         -3.5420   -1.1010    0.3430 h1        1 5BF      0.078200
     54 H9         -4.4460   -3.8540    1.4880 hc        1 5BF      0.056200
     55 H10        -3.0240   -3.6200    0.3970 hc        1 5BF      0.056200
     56 H11        -4.5020   -2.7110   -1.3970 hc        1 5BF      0.065700
     57 H12        -5.9440   -2.8550   -0.3080 hc        1 5BF      0.065700
     58 H13        -5.5020   -5.4000   -0.1930 h1        1 5BF      0.073700
     59 H14        -5.9780   -4.7280   -1.8260 h1        1 5BF      0.073700
     60 H15        -3.9950   -5.9670    0.9620 ha        1 5BF      0.153500
     61 H16        -2.1800   -7.3090    1.9580 ha        1 5BF      0.137000
     62 H17        -2.0960   -6.3030   -2.9330 ha        1 5BF      0.153500
     63 H18        -0.2550   -7.6430   -1.9000 ha        1 5BF      0.137000
     64 H19         0.6800   -8.7760    0.0010 hc        1 5BF      0.077700
     65 H20        -0.2810   -8.9370    1.5220 hc        1 5BF      0.077700
     66 H21         1.3130   -6.4350    0.6270 hc        1 5BF      0.064700
     67 H22         0.3150   -6.5740    2.1490 hc        1 5BF      0.064700
     68 H23         1.9050   -4.8970    2.4020 hn        1 5BF      0.309700
     69 H24         4.7360   -7.8380    3.5590 ha        1 5BF      0.221000
     70 H25         5.6850   -5.3800    4.3490 ha        1 5BF      0.199000
     71 H26         2.0000   -2.3550    3.6450 hn        1 5BF      0.479300
     72 H27         4.2360   -0.8760    2.3420 hx        1 5BF      0.127700
     73 H28         5.2870    0.5990    3.6920 hn        1 5BF      0.488300
     74 H29         4.1110    1.3000    6.3390 hx        1 5BF      0.149700
     75 H30         4.1570    3.6950    5.3070 h4        1 5BF      0.093200
     76 H31         6.8060    2.3570    5.1600 hc        1 5BF      0.100700
     77 H32         6.0090    2.8020    6.7260 hc        1 5BF      0.100700
     78 H33         8.0250    0.2810    4.9260 ha        1 5BF      0.136500
     79 H34         9.2040   -1.5830    6.0740 ha        1 5BF      0.162000
     80 H35         8.7510   -2.0570    8.4850 ha        1 5BF      0.166000
     81 H36         7.0890   -0.6730    9.7380 ha        1 5BF      0.162000
     82 H37         5.8870    1.1790    8.5890 ha        1 5BF      0.136500
     83 H312        2.5700   -2.5970    2.0990 hn        1 5BF      0.479300
     84 H352        5.5220   -0.3460    5.0640 hn        1 5BF      0.488300
@<TRIPOS>BOND
     1    1    2 ar  
     2    1    7 ar  
     3    1   46 1   
     4    2    3 ar  
     5    2   47 1   
     6    3    4 1   
     7    3    5 ar  
     8    4   32 1   
     9    4   48 1   
    10    4   49 1   
    11    5    6 ar  
    12    5   50 1   
    13    6    7 ar  
    14    6   51 1   
    15    7    8 1   
    16    8    9 1   
    17    9   10 1   
    18    9   52 1   
    19    9   53 1   
    20   10   11 1   
    21   10   54 1   
    22   10   55 1   
    23   11   12 1   
    24   11   56 1   
    25   11   57 1   
    26   12   13 1   
    27   12   58 1   
    28   12   59 1   
    29   13   14 1   
    30   14   15 ar  
    31   14   17 ar  
    32   15   16 ar  
    33   15   60 1   
    34   16   19 ar  
    35   16   61 1   
    36   17   18 ar  
    37   17   62 1   
    38   18   19 ar  
    39   18   63 1   
    40   19   20 1   
    41   20   21 1   
    42   20   64 1   
    43   20   65 1   
    44   21   22 1   
    45   21   66 1   
    46   21   67 1   
    47   22   23 2   
    48   22   24 1   
    49   24   25 1   
    50   24   26 2   
    51   25   28 1   
    52   25   68 1   
    53   26   27 1   
    54   26   69 1   
    55   27   28 2   
    56   27   70 1   
    57   28   29 1   
    58   29   30 2   
    59   29   31 1   
    60   31   32 1   
    61   31   71 1   
    62   31   83 1   
    63   32   33 1   
    64   32   72 1   
    65   33   34 2   
    66   33   35 1   
    67   35   36 1   
    68   35   73 1   
    69   35   84 1   
    70   36   37 1   
    71   36   39 1   
    72   36   74 1   
    73   37   38 2   
    74   37   75 1   
    75   39   40 1   
    76   39   76 1   
    77   39   77 1   
    78   40   41 ar  
    79   40   45 ar  
    80   41   42 ar  
    81   41   78 1   
    82   42   43 ar  
    83   42   79 1   
    84   43   44 ar  
    85   43   80 1   
    86   44   45 ar  
    87   44   81 1   
    88   45   82 1   
@<TRIPOS>SUBSTRUCTURE
     1 5BF         1 TEMP              0 ****  ****    0 ROOT
