@<TRIPOS>MOLECULE
5BF
   84    88     1     0     0
SMALL
bcc


@<TRIPOS>ATOM
      1 C01        -1.0740   -1.3670    1.0480 ca        1 5BF     -0.181000
      2 C02         0.2520   -0.9460    1.0820 ca        1 5BF     -0.087500
      3 C03         0.8560   -0.5660    2.2880 ca        1 5BF     -0.262300
      4 C04         2.2190    0.0190    2.2850 c3        1 5BF     -0.033100
      5 C05         0.1050   -0.6200    3.4760 ca        1 5BF     -0.087500
      6 C06        -1.2160   -1.0310    3.4630 ca        1 5BF     -0.181000
      7 C07        -1.8260   -1.3850    2.2330 ca        1 5BF      0.194100
      8 O08        -3.1400   -1.7340    2.3370 os        1 5BF     -0.308900
      9 C09        -3.9370   -1.7940    1.1400 c3        1 5BF      0.121400
     10 C10        -4.0360   -3.2240    0.6470 c3        1 5BF     -0.112400
     11 C11        -4.9410   -3.3010   -0.5620 c3        1 5BF     -0.110400
     12 C12        -5.1710   -4.7220   -1.0470 c3        1 5BF      0.126400
     13 O13        -4.0320   -5.2210   -1.7510 os        1 5BF     -0.322900
     14 C14        -3.1160   -5.9940   -1.0760 ca        1 5BF      0.141100
     15 C15        -3.1520   -6.3040    0.2890 ca        1 5BF     -0.182500
     16 C16        -2.1210   -7.0590    0.8450 ca        1 5BF     -0.092500
     17 C17        -2.0690   -6.4810   -1.8880 ca        1 5BF     -0.182500
     18 C18        -1.0480   -7.2240   -1.3120 ca        1 5BF     -0.092500
     19 C19        -1.0490   -7.4950    0.0630 ca        1 5BF     -0.147300
     20 C20         0.1020   -8.1900    0.7020 c3        1 5BF     -0.019100
     21 C21         0.9700   -7.1370    1.3750 c3        1 5BF     -0.176400
     22 C22         2.1570   -7.6830    2.1000 c         1 5BF      0.572700
     23 O23         2.4580   -8.8650    2.2190 o         1 5BF     -0.417100
     24 C24         3.0370   -6.6390    2.7210 cc        1 5BF     -0.035900
     25 N25         2.7520   -5.2920    2.7270 na        1 5BF     -0.154100
     26 C26         4.2890   -6.8530    3.3740 cd        1 5BF     -0.154000
     27 C27         4.7700   -5.5990    3.7910 cd        1 5BF      0.009000
     28 C28         3.8010   -4.6120    3.3840 cc        1 5BF     -0.292900
     29 C29         3.9400   -3.2250    3.6040 c         1 5BF      0.613700
     30 O30         4.8330   -2.6040    4.1920 o         1 5BF     -0.552100
     31 N31         2.8430   -2.3070    3.0490 ny        1 5BF     -0.681800
     32 C32         3.2810   -0.8750    2.9750 c3        1 5BF      0.074500
     33 C33         3.5590   -0.3540    4.3930 c         1 5BF      0.543100
     34 O34         2.7870   -0.4710    5.3340 o         1 5BF     -0.398100
     35 N35         4.8680    0.3250    4.6190 ny        1 5BF     -0.650800
     36 C36         4.7670    1.5540    5.4940 c3        1 5BF     -0.015500
     37 C37         4.1490    2.7450    4.7600 c         1 5BF      0.574900
     38 O38         3.7080    2.6290    3.6200 o         1 5BF     -0.510100
     39 C39         6.1520    1.9490    6.0340 c3        1 5BF     -0.044100
     40 C40         6.8260    0.8070    6.7030 ca        1 5BF     -0.174300
     41 C41         7.7640    0.0360    6.0010 ca        1 5BF     -0.132000
     42 C42         8.4410   -0.9980    6.6450 ca        1 5BF     -0.109500
     43 C43         8.1870   -1.2700    7.9910 ca        1 5BF     -0.090000
     44 C44         7.2560   -0.5040    8.6930 ca        1 5BF     -0.109500
     45 C45         6.5780    0.5330    8.0530 ca        1 5BF     -0.132000
     46 H1         -1.5300   -1.6620    0.0890 ha        1 5BF      0.176000
     47 H2          0.8170   -0.8860    0.1370 ha        1 5BF      0.140500
     48 H3          2.5640    0.1940    1.2280 hc        1 5BF      0.108200
     49 H4          2.2110    1.0220    2.7970 hc        1 5BF      0.108200
     50 H5          0.5580   -0.2950    4.4270 ha        1 5BF      0.140500
     51 H6         -1.8180   -1.0580    4.3850 ha        1 5BF      0.176000
     52 H7         -4.9390   -1.4250    1.5000 h1        1 5BF      0.078200
     53 H8         -3.5460   -1.1010    0.3530 h1        1 5BF      0.078200
     54 H9         -4.4400   -3.8660    1.4750 hc        1 5BF      0.056200
     55 H10        -3.0190   -3.6180    0.3860 hc        1 5BF      0.056200
     56 H11        -4.5010   -2.6990   -1.4010 hc        1 5BF      0.065700
     57 H12        -5.9420   -2.8580   -0.3130 hc        1 5BF      0.065700
     58 H13        -5.4890   -5.4030   -0.2190 h1        1 5BF      0.073700
     59 H14        -5.9690   -4.7180   -1.8450 h1        1 5BF      0.073700
     60 H15        -3.9800   -5.9730    0.9300 ha        1 5BF      0.153500
     61 H16        -2.1590   -7.3160    1.9150 ha        1 5BF      0.137000
     62 H17        -2.0820   -6.2680   -2.9670 ha        1 5BF      0.153500
     63 H18        -0.2340   -7.6100   -1.9470 ha        1 5BF      0.137000
     64 H19         0.7060   -8.7540   -0.0560 hc        1 5BF      0.077700
     65 H20        -0.2540   -8.9340    1.4640 hc        1 5BF      0.077700
     66 H21         0.3320   -6.5730    2.1120 hc        1 5BF      0.064700
     67 H22         1.3290   -6.4160    0.5910 hc        1 5BF      0.064700
     68 H23         1.9150   -4.8930    2.3800 hn        1 5BF      0.309700
     69 H24         4.7590   -7.8320    3.5090 ha        1 5BF      0.221000
     70 H25         5.6980   -5.3770    4.3220 ha        1 5BF      0.199000
     71 H26         2.5710   -2.5870    2.0980 hn        1 5BF      0.479300
     72 H27         4.2300   -0.8620    2.3560 hx        1 5BF      0.127700
     73 H28         5.5130   -0.3510    5.0840 hn        1 5BF      0.488300
     74 H29         4.0950    1.2830    6.3690 hx        1 5BF      0.149700
     75 H30         4.1360    3.6840    5.3530 h4        1 5BF      0.093200
     76 H31         6.7900    2.3530    5.2020 hc        1 5BF      0.100700
     77 H32         5.9890    2.7870    6.7690 hc        1 5BF      0.100700
     78 H33         8.0140    0.2830    4.9580 ha        1 5BF      0.136500
     79 H34         9.1950   -1.5860    6.0970 ha        1 5BF      0.162000
     80 H35         8.7370   -2.0770    8.5030 ha        1 5BF      0.166000
     81 H36         7.0690   -0.7050    9.7610 ha        1 5BF      0.162000
     82 H37         5.8650    1.1520    8.6210 ha        1 5BF      0.136500
     83 H312        2.0000   -2.3610    3.6460 hn        1 5BF      0.479300
     84 H352        5.2770    0.6030    3.7190 hn        1 5BF      0.488300
@<TRIPOS>BOND
     1    1    2 ar  
     2    1    7 ar  
     3    1   46 1   
     4    2    3 ar  
     5    2   47 1   
     6    3    4 1   
     7    3    5 ar  
     8    4   32 1   
     9    4   48 1   
    10    4   49 1   
    11    5    6 ar  
    12    5   50 1   
    13    6    7 ar  
    14    6   51 1   
    15    7    8 1   
    16    8    9 1   
    17    9   10 1   
    18    9   52 1   
    19    9   53 1   
    20   10   11 1   
    21   10   54 1   
    22   10   55 1   
    23   11   12 1   
    24   11   56 1   
    25   11   57 1   
    26   12   13 1   
    27   12   58 1   
    28   12   59 1   
    29   13   14 1   
    30   14   15 ar  
    31   14   17 ar  
    32   15   16 ar  
    33   15   60 1   
    34   16   19 ar  
    35   16   61 1   
    36   17   18 ar  
    37   17   62 1   
    38   18   19 ar  
    39   18   63 1   
    40   19   20 1   
    41   20   21 1   
    42   20   64 1   
    43   20   65 1   
    44   21   22 1   
    45   21   66 1   
    46   21   67 1   
    47   22   23 2   
    48   22   24 1   
    49   24   25 1   
    50   24   26 2   
    51   25   28 1   
    52   25   68 1   
    53   26   27 1   
    54   26   69 1   
    55   27   28 2   
    56   27   70 1   
    57   28   29 1   
    58   29   30 2   
    59   29   31 1   
    60   31   32 1   
    61   31   71 1   
    62   31   83 1   
    63   32   33 1   
    64   32   72 1   
    65   33   34 2   
    66   33   35 1   
    67   35   36 1   
    68   35   73 1   
    69   35   84 1   
    70   36   37 1   
    71   36   39 1   
    72   36   74 1   
    73   37   38 2   
    74   37   75 1   
    75   39   40 1   
    76   39   76 1   
    77   39   77 1   
    78   40   41 ar  
    79   40   45 ar  
    80   41   42 ar  
    81   41   78 1   
    82   42   43 ar  
    83   42   79 1   
    84   43   44 ar  
    85   43   80 1   
    86   44   45 ar  
    87   44   81 1   
    88   45   82 1   
@<TRIPOS>SUBSTRUCTURE
     1 5BF         1 TEMP              0 ****  ****    0 ROOT
