@<TRIPOS>MOLECULE
5BF
   84    88     1     0     0
SMALL
bcc


@<TRIPOS>ATOM
      1 C01        -1.0840   -1.3650    1.0650 ca        1 5BF     -0.181000
      2 C02         0.2430   -0.9470    1.0900 ca        1 5BF     -0.087500
      3 C03         0.8560   -0.5670    2.2910 ca        1 5BF     -0.262300
      4 C04         2.2190    0.0160    2.2790 c3        1 5BF     -0.033100
      5 C05         0.1120   -0.6170    3.4830 ca        1 5BF     -0.087500
      6 C06        -1.2100   -1.0260    3.4800 ca        1 5BF     -0.181000
      7 C07        -1.8290   -1.3810    2.2550 ca        1 5BF      0.194100
      8 O08        -3.1420   -1.7270    2.3680 os        1 5BF     -0.308900
      9 C09        -3.9470   -1.7880    1.1760 c3        1 5BF      0.121400
     10 C10        -4.0510   -3.2190    0.6860 c3        1 5BF     -0.112400
     11 C11        -4.9630   -3.2970   -0.5180 c3        1 5BF     -0.110400
     12 C12        -5.1980   -4.7180   -1.0000 c3        1 5BF      0.126400
     13 O13        -4.0640   -5.2180   -1.7100 os        1 5BF     -0.322900
     14 C14        -3.1450   -5.9930   -1.0390 ca        1 5BF      0.141100
     15 C15        -3.1730   -6.3010    0.3270 ca        1 5BF     -0.182500
     16 C16        -2.1400   -7.0560    0.8780 ca        1 5BF     -0.092500
     17 C17        -2.1040   -6.4830   -1.8560 ca        1 5BF     -0.182500
     18 C18        -1.0810   -7.2270   -1.2860 ca        1 5BF     -0.092500
     19 C19        -1.0740   -7.4960    0.0900 ca        1 5BF     -0.147300
     20 C20         0.0800   -8.1910    0.7230 c3        1 5BF     -0.019100
     21 C21         0.9540   -7.1390    1.3890 c3        1 5BF     -0.176400
     22 C22         2.1440   -7.6850    2.1070 c         1 5BF      0.572700
     23 O23         2.4440   -8.8680    2.2270 o         1 5BF     -0.417100
     24 C24         3.0300   -6.6420    2.7220 cc        1 5BF     -0.035900
     25 N25         2.7470   -5.2940    2.7270 na        1 5BF     -0.154100
     26 C26         4.2850   -6.8570    3.3680 cd        1 5BF     -0.154000
     27 C27         4.7700   -5.6030    3.7800 cd        1 5BF      0.009000
     28 C28         3.8010   -4.6150    3.3760 cc        1 5BF     -0.292900
     29 C29         3.9430   -3.2280    3.5930 c         1 5BF      0.613700
     30 O30         4.8410   -2.6080    4.1740 o         1 5BF     -0.552100
     31 N31         2.8440   -2.3090    3.0420 n4        1 5BF     -0.681800
     32 C32         3.2840   -0.8780    2.9630 c3        1 5BF      0.074500
     33 C33         3.5720   -0.3540    4.3790 c         1 5BF      0.543100
     34 O34         2.8060   -0.4700    5.3250 o         1 5BF     -0.398100
     35 N35         4.8830    0.3230    4.5950 n4        1 5BF     -0.650800
     36 C36         4.7890    1.5530    5.4680 c3        1 5BF     -0.015500
     37 C37         4.1670    2.7440    4.7370 c         1 5BF      0.574900
     38 O38         3.7190    2.6270    3.6000 o         1 5BF     -0.510100
     39 C39         6.1780    1.9480    5.9990 c3        1 5BF     -0.044100
     40 C40         6.8550    0.8060    6.6650 ca        1 5BF     -0.174300
     41 C41         7.7880    0.0340    5.9580 ca        1 5BF     -0.132000
     42 C42         8.4680   -1.0000    6.5980 ca        1 5BF     -0.109500
     43 C43         8.2230   -1.2700    7.9470 ca        1 5BF     -0.090000
     44 C44         7.2980   -0.5020    8.6540 ca        1 5BF     -0.109500
     45 C45         6.6160    0.5350    8.0180 ca        1 5BF     -0.132000
     46 H1         -1.5470   -1.6620    0.1100 ha        1 5BF      0.176000
     47 H2          0.8020   -0.8890    0.1410 ha        1 5BF      0.140500
     48 H3          2.2160    1.0210    2.7880 hc        1 5BF      0.108200
     49 H4          2.5580    0.1890    1.2190 hc        1 5BF      0.108200
     50 H5          0.5720   -0.2920    4.4310 ha        1 5BF      0.140500
     51 H6         -1.8060   -1.0510    4.4060 ha        1 5BF      0.176000
     52 H7         -4.9460   -1.4180    1.5420 h1        1 5BF      0.078200
     53 H8         -3.5610   -1.0960    0.3860 h1        1 5BF      0.078200
     54 H9         -3.0360   -3.6140    0.4190 hc        1 5BF      0.056200
     55 H10        -4.4510   -3.8590    1.5170 hc        1 5BF      0.056200
     56 H11        -4.5270   -2.6960   -1.3600 hc        1 5BF      0.065700
     57 H12        -5.9620   -2.8520   -0.2630 hc        1 5BF      0.065700
     58 H13        -5.5120   -5.3970   -0.1690 h1        1 5BF      0.073700
     59 H14        -6.0000   -4.7140   -1.7930 h1        1 5BF      0.073700
     60 H15        -3.9970   -5.9670    0.9730 ha        1 5BF      0.153500
     61 H16        -2.1720   -7.3120    1.9490 ha        1 5BF      0.137000
     62 H17        -2.1230   -6.2720   -2.9360 ha        1 5BF      0.153500
     63 H18        -0.2720   -7.6160   -1.9250 ha        1 5BF      0.137000
     64 H19         0.6780   -8.7590   -0.0380 hc        1 5BF      0.077700
     65 H20        -0.2730   -8.9330    1.4880 hc        1 5BF      0.077700
     66 H21         1.3100   -6.4210    0.6010 hc        1 5BF      0.064700
     67 H22         0.3220   -6.5720    2.1280 hc        1 5BF      0.064700
     68 H23         1.9090   -4.8940    2.3830 hn        1 5BF      0.309700
     69 H24         4.7530   -7.8360    3.5020 ha        1 5BF      0.221000
     70 H25         5.7010   -5.3810    4.3050 ha        1 5BF      0.199000
     71 H26         2.5660   -2.5900    2.0930 hn        1 5BF      0.479300
     72 H27         4.2300   -0.8680    2.3380 hx        1 5BF      0.127700
     73 H28         5.2870    0.5990    3.6920 hn        1 5BF      0.488300
     74 H29         4.1230    1.2840    6.3480 hx        1 5BF      0.149700
     75 H30         4.1590    3.6840    5.3290 h4        1 5BF      0.093200
     76 H31         6.8100    2.3500    5.1620 hc        1 5BF      0.100700
     77 H32         6.0200    2.7870    6.7340 hc        1 5BF      0.100700
     78 H33         8.0310    0.2780    4.9130 ha        1 5BF      0.136500
     79 H34         9.2180   -1.5900    6.0470 ha        1 5BF      0.162000
     80 H35         8.7760   -2.0770    8.4570 ha        1 5BF      0.166000
     81 H36         7.1180   -0.7010    9.7240 ha        1 5BF      0.162000
     82 H37         5.9080    1.1550    8.5890 ha        1 5BF      0.136500
     83 H312        2.0050   -2.3610    3.6440 hn        1 5BF      0.479300
     84 H352        5.5300   -0.3530    5.0570 hn        1 5BF      0.488300
@<TRIPOS>BOND
     1    1    2 ar  
     2    1    7 ar  
     3    1   46 1   
     4    2    3 ar  
     5    2   47 1   
     6    3    4 1   
     7    3    5 ar  
     8    4   32 1   
     9    4   48 1   
    10    4   49 1   
    11    5    6 ar  
    12    5   50 1   
    13    6    7 ar  
    14    6   51 1   
    15    7    8 1   
    16    8    9 1   
    17    9   10 1   
    18    9   52 1   
    19    9   53 1   
    20   10   11 1   
    21   10   54 1   
    22   10   55 1   
    23   11   12 1   
    24   11   56 1   
    25   11   57 1   
    26   12   13 1   
    27   12   58 1   
    28   12   59 1   
    29   13   14 1   
    30   14   15 ar  
    31   14   17 ar  
    32   15   16 ar  
    33   15   60 1   
    34   16   19 ar  
    35   16   61 1   
    36   17   18 ar  
    37   17   62 1   
    38   18   19 ar  
    39   18   63 1   
    40   19   20 1   
    41   20   21 1   
    42   20   64 1   
    43   20   65 1   
    44   21   22 1   
    45   21   66 1   
    46   21   67 1   
    47   22   23 2   
    48   22   24 1   
    49   24   25 1   
    50   24   26 2   
    51   25   28 1   
    52   25   68 1   
    53   26   27 1   
    54   26   69 1   
    55   27   28 2   
    56   27   70 1   
    57   28   29 1   
    58   29   30 2   
    59   29   31 1   
    60   31   32 1   
    61   31   71 1   
    62   31   83 1   
    63   32   33 1   
    64   32   72 1   
    65   33   34 2   
    66   33   35 1   
    67   35   36 1   
    68   35   73 1   
    69   35   84 1   
    70   36   37 1   
    71   36   39 1   
    72   36   74 1   
    73   37   38 2   
    74   37   75 1   
    75   39   40 1   
    76   39   76 1   
    77   39   77 1   
    78   40   41 ar  
    79   40   45 ar  
    80   41   42 ar  
    81   41   78 1   
    82   42   43 ar  
    83   42   79 1   
    84   43   44 ar  
    85   43   80 1   
    86   44   45 ar  
    87   44   81 1   
    88   45   82 1   
@<TRIPOS>SUBSTRUCTURE
     1 5BF         1 TEMP              0 ****  ****    0 ROOT
