@<TRIPOS>MOLECULE
5BJ
   34    33     1     0     0
SMALL
bcc


@<TRIPOS>ATOM
      1 C1          0.2000   -0.2490   -0.2410 c2        1 5BJ      0.134000
      2 C2          1.5640   -0.4480   -0.3440 c2        1 5BJ     -0.445000
      3 C3         -0.4230   -0.4400    1.0760 c2        1 5BJ     -0.085000
      4 C11         3.1990   -1.3200   -1.9230 c2        1 5BJ     -0.212000
      5 C12         1.1740    0.8950    2.4050 c2        1 5BJ     -0.414000
      6 C14         3.3070    1.1100   -3.3240 c2        1 5BJ     -0.139000
      7 C15         1.6450    2.0940   -1.8210 c2        1 5BJ     -0.119000
      8 C16         4.1120   -1.2030   -3.0730 c3        1 5BJ     -0.180000
      9 C19         4.1520    0.0730   -3.7810 c1        1 5BJ     -0.133000
     10 C20         3.3880    2.4100   -3.9750 c2        1 5BJ     -0.376000
     11 C21         0.7360    2.7280   -2.5760 c2        1 5BJ     -0.150000
     12 C22         2.5700    3.4320   -3.7910 c1        1 5BJ      0.058000
     13 C4         -0.6460    0.0680   -1.2990 c2        1 5BJ     -0.424000
     14 C5          2.3760   -0.3040   -1.5210 c2        1 5BJ      0.040000
     15 C6          1.7080    1.3860    3.4940 c1        1 5BJ      0.099000
     16 N7         -3.1790    0.3860   -1.0840 n1        1 5BJ     -0.279000
     17 C8          0.0020    0.0650    2.2450 c2        1 5BJ     -0.127000
     18 C9         -2.0190    0.2420   -1.1660 c1        1 5BJ      0.000000
     19 C10         2.4300    0.9450   -2.2600 c2        1 5BJ      0.084000
     20 O17        -5.9250    0.0890    0.1810 o         1 5BJ     -0.225500
     21 O18        -5.9770    1.2710   -1.8820 o         1 5BJ     -0.225500
     22 H1          3.1980   -2.2740   -1.3780 ha        1 5BJ      0.120000
     23 H2          1.6930    1.1330    1.4370 ha        1 5BJ      0.227000
     24 H3          1.8580    2.4170   -0.7850 ha        1 5BJ      0.145000
     25 H4          5.1700   -1.4390   -2.7540 hc        1 5BJ      0.135500
     26 H5          3.8370   -1.9830   -3.8460 hc        1 5BJ      0.135500
     27 H6          4.2300    2.5130   -4.6880 ha        1 5BJ      0.185000
     28 H7          0.4120    2.3620   -3.5620 ha        1 5BJ      0.126500
     29 H8          0.1970    3.6090   -2.2060 ha        1 5BJ      0.126500
     30 H9         -0.2300    0.1930   -2.3070 ha        1 5BJ      0.129000
     31 H10         2.0890   -0.8860    0.5180 ha        1 5BJ      0.107000
     32 H11        -1.3520   -1.0400    1.0580 ha        1 5BJ      0.128000
     33 H12        -0.5670   -0.1350    3.1680 ha        1 5BJ      0.107000
     34 C13        -5.9030    0.6750   -0.8540 c1        1 5BJ      0.446000
@<TRIPOS>BOND
     1    1    2 1   
     2    1    3 1   
     3    1   13 1   
     4    2   14 1   
     5    2   31 1   
     6    3   17 1   
     7    3   32 1   
     8    4    8 1   
     9    4   14 1   
    10    4   22 1   
    11    5   15 1   
    12    5   17 1   
    13    5   23 1   
    14    6    9 1   
    15    6   10 1   
    16    6   19 1   
    17    7   11 1   
    18    7   19 1   
    19    7   24 1   
    20    8    9 1   
    21    8   25 1   
    22    8   26 1   
    23   10   12 1   
    24   10   27 1   
    25   11   28 1   
    26   11   29 1   
    27   13   18 1   
    28   13   30 1   
    29   14   19 1   
    30   16   18 1   
    31   17   33 1   
    32   20   34 1   
    33   21   34 1   
@<TRIPOS>SUBSTRUCTURE
     1 5BJ         1 TEMP              0 ****  ****    0 ROOT
