@<TRIPOS>MOLECULE
5BK
   32    35     1     0     0
SMALL
bcc


@<TRIPOS>ATOM
      1 C1          0.0340   -0.3140    0.0030 ca        1 5BK     -0.152000
      2 C2          1.4190   -0.2290   -0.0280 ca        1 5BK     -0.143000
      3 C3          1.3630    0.0430    2.4490 ca        1 5BK     -0.064800
      4 C11        -0.6790   -0.2280    1.2050 ca        1 5BK     -0.157000
      5 C12        -0.0350   -0.0440    2.4330 cp        1 5BK     -0.023000
      6 C13         0.2510    2.1640    4.7320 cc        1 5BK     -0.140200
      7 C15        -0.0590    2.8210    5.9100 cd        1 5BK     -0.143100
      8 C16        -0.6640    1.0440    4.6070 ca        1 5BK     -0.078800
      9 C17        -0.8410    0.0360    3.6510 cp        1 5BK      0.047000
     10 C18        -1.8520   -0.9060    3.8780 ca        1 5BK     -0.162000
     11 C19        -2.6680   -0.8560    5.0140 ca        1 5BK     -0.119000
     12 C20        -2.5240    0.1370    5.9750 ca        1 5BK     -0.163000
     13 C21        -1.5210    1.0910    5.7710 ca        1 5BK     -0.057200
     14 C4          2.0900   -0.0530    1.1880 ca        1 5BK     -0.069200
     15 N5          3.4470    0.0630    1.4710 na        1 5BK     -0.170400
     16 C6          3.6160    0.2190    2.8510 cc        1 5BK     -0.069300
     17 C7          2.3620    0.2090    3.4740 cd        1 5BK     -0.223200
     18 C8          5.0050    0.3790    3.4590 c         1 5BK      0.926800
     19 O9          5.0750    0.5720    4.6990 o         1 5BK     -0.815300
     20 O10         5.9880    0.3100    2.6690 o         1 5BK     -0.815300
     21 N14        -1.1870    2.2320    6.5240 na        1 5BK     -0.196400
     22 H1         -0.5200   -0.4510   -0.9370 ha        1 5BK      0.108000
     23 H2          1.9700   -0.2980   -0.9740 ha        1 5BK      0.117000
     24 H3         -1.7760   -0.2970    1.1810 ha        1 5BK      0.113000
     25 H6         -2.0010   -1.7130    3.1450 ha        1 5BK      0.130000
     26 H7         -3.4410   -1.6270    5.1500 ha        1 5BK      0.115000
     27 H8         -3.1710    0.1710    6.8600 ha        1 5BK      0.119000
     28 H9          4.1950    0.0250    0.8300 hn        1 5BK      0.308700
     29 H10         2.1880    0.3050    4.5410 ha        1 5BK      0.166000
     30 H12        -1.3280    2.2660    7.5010 hn        1 5BK      0.270700
     31 H4          1.0460    2.4000    4.0250 ha        1 5BK      0.184000
     32 H5          0.4090    3.6970    6.3590 h4        1 5BK      0.159000
@<TRIPOS>BOND
     1    1    2 ar  
     2    1    4 ar  
     3    1   22 1   
     4    2   14 ar  
     5    2   23 1   
     6    3    5 ar  
     7    3   14 ar  
     8    3   17 1   
     9    4    5 ar  
    10    4   24 1   
    11    5    9 1   
    12    6    7 2   
    13    6    8 1   
    14    6   31 1   
    15    7   21 1   
    16    7   32 1   
    17    8    9 ar  
    18    8   13 ar  
    19    9   10 ar  
    20   10   11 ar  
    21   10   25 1   
    22   11   12 ar  
    23   11   26 1   
    24   12   13 ar  
    25   12   27 1   
    26   13   21 1   
    27   14   15 1   
    28   15   16 1   
    29   15   28 1   
    30   16   17 2   
    31   16   18 1   
    32   17   29 1   
    33   18   19 1   
    34   18   20 1   
    35   21   30 1   
@<TRIPOS>SUBSTRUCTURE
     1 5BK         1 TEMP              0 ****  ****    0 ROOT
