@<TRIPOS>MOLECULE
5BL
   43    47     1     0     0
SMALL
bcc


@<TRIPOS>ATOM
      1 C1          0.3480   -0.7110   -0.0960 cc        1 5BL     -0.201000
      2 C2          1.7170   -0.2990   -0.0240 cc        1 5BL     -0.192000
      3 C3          2.1330   -0.4450    1.3150 cd        1 5BL     -0.047300
      4 C11         7.8190    1.0060    0.4830 ca        1 5BL     -0.081000
      5 C12         8.9090    0.9610   -0.4150 ca        1 5BL     -0.117000
      6 C13         9.1740   -0.1790   -1.1320 ca        1 5BL     -0.134000
      7 C14         7.2770   -1.3030   -0.0510 ca        1 5BL     -0.020000
      8 C15         8.3660   -1.3340   -0.9630 ca        1 5BL     -0.040000
      9 C16         8.6390   -2.5300   -1.6850 ca        1 5BL     -0.123000
     10 C17         7.8740   -3.6530   -1.4970 ca        1 5BL     -0.139000
     11 C18         6.8040   -3.6340   -0.5710 ca        1 5BL     -0.145000
     12 C19         6.5160   -2.4910    0.1340 ca        1 5BL     -0.107000
     13 C20         6.0250    0.3730    2.9440 ca        1 5BL      0.421600
     14 C21         4.8560    0.4580    3.7640 ca        1 5BL     -0.167300
     15 C22         5.0270    0.8270    5.1330 ca        1 5BL     -0.127000
     16 C23         6.2800    1.0930    5.6040 ca        1 5BL     -0.206300
     17 C24         7.4080    0.9980    4.7070 ca        1 5BL      0.405800
     18 C26         8.7870    1.3540    5.3250 c         1 5BL      0.826100
     19 N4          1.0450   -0.9350    2.0490 na        1 5BL     -0.175100
     20 C5         -0.0380   -1.1000    1.1950 cd        1 5BL     -0.178300
     21 C6          5.8480   -0.0040    1.5650 cp        1 5BL     -0.085300
     22 C7          4.5820   -0.2550    1.0760 ca        1 5BL     -0.114000
     23 C8          3.4320   -0.1650    1.8990 ca        1 5BL     -0.052000
     24 C9          3.5780    0.1890    3.2280 ca        1 5BL     -0.100000
     25 C10         7.0020   -0.0930    0.6620 cp        1 5BL     -0.006000
     26 N25         7.2890    0.6440    3.4370 nb        1 5BL     -0.663000
     27 O27         9.2980    0.4870    6.0760 o         1 5BL     -0.799800
     28 O28         9.2380    2.4970    5.0680 o         1 5BL     -0.799800
     29 H1         -0.2750   -0.7200   -0.9840 ha        1 5BL      0.142000
     30 H2          2.3270    0.0680   -0.8430 ha        1 5BL      0.152000
     31 H3          7.6410    1.9310    1.0560 ha        1 5BL      0.158000
     32 H4          9.5450    1.8530   -0.5190 ha        1 5BL      0.130000
     33 H5         10.0180   -0.2220   -1.8350 ha        1 5BL      0.120000
     34 H6          9.4820   -2.5330   -2.3910 ha        1 5BL      0.121000
     35 H7          8.0860   -4.5780   -2.0520 ha        1 5BL      0.118000
     36 H8          6.2130   -4.5480   -0.4190 ha        1 5BL      0.122000
     37 H9          5.6930   -2.4810    0.8670 ha        1 5BL      0.144000
     38 H10         4.1380    0.8900    5.7770 ha        1 5BL      0.114000
     39 H11         6.4760    1.3750    6.6480 ha        1 5BL      0.150000
     40 H12         1.0640   -1.1430    3.0110 hn        1 5BL      0.291700
     41 H13        -0.9940   -1.4740    1.5590 h4        1 5BL      0.154000
     42 H14         4.4500   -0.5350    0.0180 ha        1 5BL      0.136000
     43 H15         2.7070    0.2850    3.8920 ha        1 5BL      0.114000
@<TRIPOS>BOND
     1    1    2 1   
     2    1   20 2   
     3    1   29 1   
     4    2    3 2   
     5    2   30 1   
     6    3   19 1   
     7    3   23 1   
     8    4    5 ar  
     9    4   25 ar  
    10    4   31 1   
    11    5    6 ar  
    12    5   32 1   
    13    6    8 ar  
    14    6   33 1   
    15    7    8 ar  
    16    7   12 ar  
    17    7   25 ar  
    18    8    9 ar  
    19    9   10 ar  
    20    9   34 1   
    21   10   11 ar  
    22   10   35 1   
    23   11   12 ar  
    24   11   36 1   
    25   12   37 1   
    26   13   14 ar  
    27   13   21 ar  
    28   13   26 ar  
    29   14   15 ar  
    30   14   24 ar  
    31   15   16 ar  
    32   15   38 1   
    33   16   17 ar  
    34   16   39 1   
    35   17   18 1   
    36   17   26 ar  
    37   18   27 1   
    38   18   28 1   
    39   19   20 1   
    40   19   40 1   
    41   20   41 1   
    42   21   22 ar  
    43   21   25 1   
    44   22   23 ar  
    45   22   42 1   
    46   23   24 ar  
    47   24   43 1   
@<TRIPOS>SUBSTRUCTURE
     1 5BL         1 TEMP              0 ****  ****    0 ROOT
