@<TRIPOS>MOLECULE
5BM
   42    36     1     0     0
SMALL
bcc


@<TRIPOS>ATOM
      1 C01         0.0740    0.1430    1.5100 c1        1 5BM     -0.146000
      2 C02        -0.7670    0.2270    2.7640 c1        1 5BM     -0.075000
      3 N03        -1.4010    0.2900    3.7080 n1        1 5BM     -0.091000
      4 C04         1.4170    0.0830    1.6030 c1        1 5BM     -0.059000
      5 N05         2.0410    0.0980    2.8770 n2        1 5BM     -0.334000
      6 S06         2.4030   -0.0160    0.1340 ss        1 5BM      0.385000
      7 C07         4.0820    0.3920    0.5210 c2        1 5BM     -0.428000
      8 C08         4.6360    1.5680    0.0410 c1        1 5BM      0.158000
      9 C09         5.9790    1.8380    0.2520 c1        1 5BM     -0.129750
     10 C10         6.7680    0.9320    0.9420 c1        1 5BM     -0.129750
     11 C11         6.2150   -0.2440    1.4210 c1        1 5BM     -0.208000
     12 C12         4.8720   -0.5140    1.2110 c2        1 5BM     -0.025000
     13 N13         3.8340    2.4830   -0.6910 n3        1 5BM     -0.352000
     14 C21        -0.5920    0.1270    0.1520 c2        1 5BM     -0.134000
     15 C22        -0.4200    1.2980   -0.7870 c1        1 5BM     -0.056000
     16 N23        -0.2910    2.1800   -1.4950 n1        1 5BM     -0.091000
     17 C24        -1.3380   -0.9310   -0.2200 c1        1 5BM     -0.069000
     18 N25        -1.4990   -2.0320    0.6630 n2        1 5BM     -0.334000
     19 S26        -2.1180   -0.9500   -1.8140 ss        1 5BM      0.371000
     20 C27        -3.8510   -0.6410   -1.6270 c2        1 5BM     -0.416000
     21 C28        -4.7720   -1.4740   -2.2420 c2        1 5BM      0.170000
     22 C29        -6.1240   -1.1740   -2.1860 c1        1 5BM     -0.225000
     23 C30        -6.5550   -0.0410   -1.5150 c1        1 5BM     -0.129750
     24 C31        -5.6340    0.7920   -0.8990 c1        1 5BM     -0.129750
     25 C32        -4.2830    0.4920   -0.9550 c1        1 5BM     -0.035000
     26 N33        -4.3260   -2.6050   -2.9750 n3        1 5BM     -0.358000
     27 HN05        2.2010    0.8930    3.2980 hn        1 5BM      0.215500
     28 HN0A        2.2780   -0.6890    3.2790 hn        1 5BM      0.215500
     29 H09         6.3700    2.6670   -0.0860 ha        1 5BM      0.136500
     30 H10         7.7140    1.1220    1.0900 ha        1 5BM      0.136500
     31 H11         6.7720   -0.8830    1.9070 ha        1 5BM      0.139000
     32 H12         4.4830   -1.3430    1.5490 ha        1 5BM      0.144000
     33 HN13        4.1990    3.2590   -1.0060 hn        1 5BM      0.225000
     34 HN1A        2.9560    2.2920   -0.8530 hn        1 5BM      0.225000
     35 HN25       -1.1310   -2.8420    0.4560 hn        1 5BM      0.215500
     36 HN2A       -1.9790   -1.9320    1.4360 hn        1 5BM      0.215500
     37 H29        -6.7720   -1.7610   -2.6200 ha        1 5BM      0.137000
     38 H30        -7.5070    0.1700   -1.4750 ha        1 5BM      0.136500
     39 H31        -5.9390    1.5900   -0.4260 ha        1 5BM      0.136500
     40 H32        -3.6350    1.0780   -0.5220 ha        1 5BM      0.143000
     41 HN33       -3.4420   -2.8410   -2.9590 hn        1 5BM      0.224500
     42 HN3A       -4.9220   -3.1000   -3.4580 hn        1 5BM      0.224500
@<TRIPOS>BOND
     1    1    4 1   
     2    1   14 1   
     3    2    3 1   
     4    4    6 1   
     5    5   27 1   
     6    5   28 1   
     7    6    7 1   
     8    7    8 1   
     9    7   12 1   
    10    8   13 1   
    11    9   10 1   
    12    9   29 1   
    13   10   30 1   
    14   11   12 1   
    15   11   31 1   
    16   12   32 1   
    17   13   33 1   
    18   13   34 1   
    19   14   15 1   
    20   14   17 1   
    21   15   16 1   
    22   17   19 1   
    23   18   35 1   
    24   18   36 1   
    25   19   20 1   
    26   20   21 1   
    27   20   25 1   
    28   21   22 1   
    29   21   26 1   
    30   22   37 1   
    31   23   24 1   
    32   23   38 1   
    33   24   39 1   
    34   25   40 1   
    35   26   41 1   
    36   26   42 1   
@<TRIPOS>SUBSTRUCTURE
     1 5BM         1 TEMP              0 ****  ****    0 ROOT
