@<TRIPOS>MOLECULE
5BM
   42    43     1     0     0
SMALL
bcc


@<TRIPOS>ATOM
      1 C01         0.7960    1.6610   -0.1930 ce        1 5BM     -0.102700
      2 C02         1.2330    2.9540    0.1860 cg        1 5BM      0.220500
      3 N03         1.5650    4.0270    0.4950 n1        1 5BM     -0.394300
      4 C04         1.6480    0.5840   -0.0940 c2        1 5BM      0.252600
      5 N05         1.2510   -0.7110   -0.3440 nh        1 5BM     -0.822600
      6 S06         3.2320    0.9410    0.4850 ss        1 5BM     -0.106500
      7 C07         4.1250   -0.4990    0.3690 ca        1 5BM     -0.171600
      8 C08         4.5840   -1.0040   -0.8760 ca        1 5BM      0.218100
      9 C09         5.4490   -2.1290   -0.8770 ca        1 5BM     -0.216000
     10 C10         5.8270   -2.7250    0.3150 ca        1 5BM     -0.049500
     11 C11         5.3650   -2.2300    1.5390 ca        1 5BM     -0.197000
     12 C12         4.5160   -1.1310    1.5550 ca        1 5BM     -0.031000
     13 N13         4.1260   -0.4590   -2.0700 nh        1 5BM     -0.839700
     14 C21        -0.5660    1.5530   -0.7080 ce        1 5BM     -0.102700
     15 C22        -0.8160    2.1320   -1.9750 cg        1 5BM      0.220500
     16 N23        -0.9910    2.6050   -3.0250 n1        1 5BM     -0.394300
     17 C24        -1.5860    0.9510   -0.0030 c2        1 5BM      0.252600
     18 N25        -1.3790    0.2500    1.1600 nh        1 5BM     -0.822600
     19 S26        -3.1560    1.0750   -0.7060 ss        1 5BM     -0.106500
     20 C27        -4.1900    0.1520    0.2740 ca        1 5BM     -0.171600
     21 C28        -4.5150   -1.1910   -0.0570 ca        1 5BM      0.218100
     22 C29        -5.4920   -1.8670    0.7280 ca        1 5BM     -0.216000
     23 C30        -6.0950   -1.2320    1.7970 ca        1 5BM     -0.049500
     24 C31        -5.7640    0.0900    2.1250 ca        1 5BM     -0.197000
     25 C32        -4.8220    0.7640    1.3640 ca        1 5BM     -0.031000
     26 N33        -3.8640   -1.8490   -1.0800 nh        1 5BM     -0.839700
     27 HN05        0.3820   -0.8190   -0.8220 hn        1 5BM      0.422550
     28 HN0A        1.9640   -1.3520   -0.6110 hn        1 5BM      0.422550
     29 H09         5.8220   -2.5320   -1.8310 ha        1 5BM      0.137500
     30 H10         6.4990   -3.5970    0.2980 ha        1 5BM      0.135500
     31 H11         5.6710   -2.7090    2.4790 ha        1 5BM      0.140000
     32 H12         4.1440   -0.7360    2.5150 ha        1 5BM      0.145500
     33 HN13        3.8130    0.4880   -2.0130 hn        1 5BM      0.418300
     34 HN1A        4.6780   -0.6630   -2.8720 hn        1 5BM      0.418300
     35 HN25       -0.4960    0.3640    1.6060 hn        1 5BM      0.422550
     36 HN2A       -2.1630    0.1350    1.7620 hn        1 5BM      0.422550
     37 H29        -5.7630   -2.9050    0.4840 ha        1 5BM      0.137500
     38 H30        -6.8460   -1.7690    2.3980 ha        1 5BM      0.135500
     39 H31        -6.2540    0.5860    2.9740 ha        1 5BM      0.140000
     40 H32        -4.5650    1.8090    1.6060 ha        1 5BM      0.145500
     41 HN33       -3.3510   -1.2900   -1.7240 hn        1 5BM      0.418300
     42 HN3A       -4.2880   -2.6710   -1.4370 hn        1 5BM      0.418300
@<TRIPOS>BOND
     1    1    2 1   
     2    1    4 2   
     3    1   14 1   
     4    2    3 3   
     5    4    5 1   
     6    4    6 1   
     7    5   27 1   
     8    5   28 1   
     9    6    7 1   
    10    7    8 ar  
    11    7   12 ar  
    12    8    9 ar  
    13    8   13 1   
    14    9   10 ar  
    15    9   29 1   
    16   10   11 ar  
    17   10   30 1   
    18   11   12 ar  
    19   11   31 1   
    20   12   32 1   
    21   13   33 1   
    22   13   34 1   
    23   14   15 1   
    24   14   17 2   
    25   15   16 3   
    26   17   18 1   
    27   17   19 1   
    28   18   35 1   
    29   18   36 1   
    30   19   20 1   
    31   20   21 ar  
    32   20   25 ar  
    33   21   22 ar  
    34   21   26 1   
    35   22   23 ar  
    36   22   37 1   
    37   23   24 ar  
    38   23   38 1   
    39   24   25 ar  
    40   24   39 1   
    41   25   40 1   
    42   26   41 1   
    43   26   42 1   
@<TRIPOS>SUBSTRUCTURE
     1 5BM         1 TEMP              0 ****  ****    0 ROOT
