@<TRIPOS>MOLECULE
5BM
   46    47     1     0     0
SMALL
bcc


@<TRIPOS>ATOM
      1 C01         0.9500    0.7730    0.9820 ce        1 5BM      0.082800
      2 C02         0.6750    1.5950   -0.1530 cg        1 5BM      0.080000
      3 N03         0.4770    2.2480   -1.0990 n1        1 5BM     -0.178800
      4 C04         2.1000    0.0080    0.8740 c2        1 5BM      0.049100
      5 N05         2.6110   -0.8130    1.9610 n4        1 5BM     -0.721400
      6 S06         2.8710    0.0610   -0.6450 ss        1 5BM      0.086000
      7 C07         4.4830   -0.4490   -0.4910 ca        1 5BM     -0.161100
      8 C08         5.0720   -1.3250   -1.4420 ca        1 5BM      0.009600
      9 C09         6.4420   -1.6220   -1.3960 ca        1 5BM     -0.078000
     10 C10         7.2530   -1.0410   -0.4140 ca        1 5BM     -0.013000
     11 C11         6.6970   -0.1560    0.5090 ca        1 5BM     -0.062000
     12 C12         5.3330    0.1350    0.4590 ca        1 5BM     -0.098000
     13 N13         4.2920   -1.9010   -2.5430 n4        1 5BM     -0.720000
     14 C21        -0.0240    0.7830    2.0630 ce        1 5BM      0.082800
     15 C22         0.0110   -0.3200    2.9700 cg        1 5BM      0.080000
     16 N23        -0.0050   -1.2250    3.7040 n1        1 5BM     -0.178800
     17 C24        -1.0270    1.7060    2.3110 c2        1 5BM      0.049100
     18 N25        -1.2830    2.8500    1.4490 n4        1 5BM     -0.721400
     19 S26        -1.9570    1.4280    3.7140 ss        1 5BM      0.086000
     20 C27        -3.4230    2.2780    3.5910 ca        1 5BM     -0.161100
     21 C28        -3.9850    2.9470    4.7120 ca        1 5BM      0.009600
     22 C29        -5.2640    3.5190    4.6430 ca        1 5BM     -0.078000
     23 C30        -6.0140    3.4200    3.4640 ca        1 5BM     -0.013000
     24 C31        -5.4900    2.7410    2.3650 ca        1 5BM     -0.062000
     25 C32        -4.2160    2.1760    2.4390 ca        1 5BM     -0.098000
     26 N33        -3.2860    3.0120    5.9990 n4        1 5BM     -0.720000
     27 HN05        2.0910   -1.7070    2.0120 hn        1 5BM      0.490800
     28 HN0A        2.5220   -0.3270    2.8670 hn        1 5BM      0.490800
     29 H09         6.9150   -2.3010   -2.1360 ha        1 5BM      0.206000
     30 H10         8.3390   -1.2740   -0.3910 ha        1 5BM      0.226000
     31 H11         7.3430    0.3340    1.2660 ha        1 5BM      0.213000
     32 H12         4.9310    0.8880    1.1600 ha        1 5BM      0.155500
     33 HN13        4.5640   -2.8880   -2.6860 hn        1 5BM      0.483800
     34 HN1A        3.2850   -1.8530   -2.3530 hn        1 5BM      0.483800
     35 HN25       -2.0030    3.4610    1.8740 hn        1 5BM      0.490800
     36 HN2A       -0.4230    3.4060    1.3080 hn        1 5BM      0.490800
     37 H29        -5.7160    4.0400    5.5120 ha        1 5BM      0.206000
     38 H30        -7.0300    3.8670    3.4210 ha        1 5BM      0.226000
     39 H31        -6.0950    2.6300    1.4420 ha        1 5BM      0.213000
     40 H32        -3.8540    1.5870    1.5780 ha        1 5BM      0.155500
     41 HN33       -2.2800    2.8390    5.8880 hn        1 5BM      0.483800
     42 HN3A       -3.6830    2.3030    6.6390 hn        1 5BM      0.483800
     43 H053        3.6120   -1.0240    1.8050 hn        1 5BM      0.490800
     44 H133        4.4970   -1.3810   -3.4140 hn        1 5BM      0.483800
     45 H253       -1.6330    2.5370    0.5270 hn        1 5BM      0.490800
     46 H333       -3.4240    3.9430    6.4260 hn        1 5BM      0.483800
@<TRIPOS>BOND
     1    1    2 1   
     2    1    4 2   
     3    1   14 1   
     4    2    3 3   
     5    4    5 1   
     6    4    6 1   
     7    5   27 1   
     8    5   28 1   
     9    5   43 1   
    10    6    7 1   
    11    7    8 ar  
    12    7   12 ar  
    13    8    9 ar  
    14    8   13 1   
    15    9   10 ar  
    16    9   29 1   
    17   10   11 ar  
    18   10   30 1   
    19   11   12 ar  
    20   11   31 1   
    21   12   32 1   
    22   13   33 1   
    23   13   34 1   
    24   13   44 1   
    25   14   15 1   
    26   14   17 2   
    27   15   16 3   
    28   17   18 1   
    29   17   19 1   
    30   18   35 1   
    31   18   36 1   
    32   18   45 1   
    33   19   20 1   
    34   20   21 ar  
    35   20   25 ar  
    36   21   22 ar  
    37   21   26 1   
    38   22   23 ar  
    39   22   37 1   
    40   23   24 ar  
    41   23   38 1   
    42   24   25 ar  
    43   24   39 1   
    44   25   40 1   
    45   26   41 1   
    46   26   42 1   
    47   26   46 1   
@<TRIPOS>SUBSTRUCTURE
     1 5BM         1 TEMP              0 ****  ****    0 ROOT
