@<TRIPOS>MOLECULE
5BM
   44    45     1     0     0
SMALL
bcc


@<TRIPOS>ATOM
      1 C01         0.8110    0.9450    0.6080 ce        1 5BM     -0.000200
      2 C02         0.5670    2.0260   -0.2860 cg        1 5BM      0.126500
      3 N03         0.3800    2.9000   -1.0340 n1        1 5BM     -0.256300
      4 C04         2.0540    0.3450    0.5010 c2        1 5BM      0.039100
      5 N05         2.4630   -0.7120    1.4170 n4        1 5BM     -0.711400
      6 S06         3.0610    0.8280   -0.7560 ss        1 5BM      0.171000
      7 C07         4.5560    0.1360   -0.4540 ca        1 5BM     -0.274600
      8 C08         4.8320   -1.2460   -0.6520 ca        1 5BM      0.163100
      9 C09         6.1630   -1.7010   -0.5350 ca        1 5BM     -0.183000
     10 C10         7.1920   -0.8100   -0.2530 ca        1 5BM     -0.007500
     11 C11         6.9220    0.5520   -0.0670 ca        1 5BM     -0.149000
     12 C12         5.6200    1.0130   -0.1620 ca        1 5BM     -0.026000
     13 N13         3.7630   -2.1370   -0.8580 nh        1 5BM     -0.850700
     14 C21        -0.2710    0.5320    1.4790 ce        1 5BM     -0.000200
     15 C22        -0.3270   -0.8470    1.8300 cg        1 5BM      0.126500
     16 N23        -0.3930   -1.9790    2.0980 n1        1 5BM     -0.256300
     17 C24        -1.2990    1.3210    1.9670 c2        1 5BM      0.039100
     18 N25        -1.3930    2.7320    1.6170 n4        1 5BM     -0.711400
     19 S26        -2.4220    0.5970    2.9880 ss        1 5BM      0.171000
     20 C27        -3.5700    1.7610    3.3500 ca        1 5BM     -0.274600
     21 C28        -3.3430    2.8190    4.2750 ca        1 5BM      0.163100
     22 C29        -4.4270    3.6420    4.6510 ca        1 5BM     -0.183000
     23 C30        -5.6990    3.4110    4.1390 ca        1 5BM     -0.007500
     24 C31        -5.9230    2.3660    3.2330 ca        1 5BM     -0.149000
     25 C32        -4.8690    1.5580    2.8430 ca        1 5BM     -0.026000
     26 N33        -2.0320    3.0850    4.7040 nh        1 5BM     -0.850700
     27 HN05        3.4970   -0.7330    1.4790 hn        1 5BM      0.481800
     28 HN0A        2.0740   -0.5580    2.3550 hn        1 5BM      0.481800
     29 H09         6.3980   -2.7690   -0.6880 ha        1 5BM      0.171000
     30 H10         8.2320   -1.1790   -0.1850 ha        1 5BM      0.179000
     31 H11         7.7470    1.2530    0.1440 ha        1 5BM      0.179500
     32 H12         5.4070    2.0880   -0.0260 ha        1 5BM      0.162500
     33 HN13        4.0680   -3.0820   -1.0050 hn        1 5BM      0.411050
     34 HN1A        3.1500   -1.8410   -1.5960 hn        1 5BM      0.411050
     35 HN25       -2.0890    3.2090    2.2170 hn        1 5BM      0.481800
     36 HN2A       -0.4830    3.1960    1.7350 hn        1 5BM      0.481800
     37 H29        -4.2730    4.4650    5.3690 ha        1 5BM      0.171000
     38 H30        -6.5410    4.0520    4.4580 ha        1 5BM      0.179000
     39 H31        -6.9390    2.1850    2.8410 ha        1 5BM      0.179500
     40 H32        -5.0460    0.7270    2.1360 ha        1 5BM      0.162500
     41 HN33       -1.9830    3.8320    5.3710 hn        1 5BM      0.411050
     42 HN3A       -1.5590    2.2690    5.0410 hn        1 5BM      0.411050
     43 H053        2.1440   -1.6290    1.0610 hn        1 5BM      0.481800
     44 H253       -1.6950    2.8250    0.6350 hn        1 5BM      0.481800
@<TRIPOS>BOND
     1    1    2 1   
     2    1    4 2   
     3    1   14 1   
     4    2    3 3   
     5    4    5 1   
     6    4    6 1   
     7    5   27 1   
     8    5   28 1   
     9    5   43 1   
    10    6    7 1   
    11    7    8 ar  
    12    7   12 ar  
    13    8    9 ar  
    14    8   13 1   
    15    9   10 ar  
    16    9   29 1   
    17   10   11 ar  
    18   10   30 1   
    19   11   12 ar  
    20   11   31 1   
    21   12   32 1   
    22   13   33 1   
    23   13   34 1   
    24   14   15 1   
    25   14   17 2   
    26   15   16 3   
    27   17   18 1   
    28   17   19 1   
    29   18   35 1   
    30   18   36 1   
    31   18   44 1   
    32   19   20 1   
    33   20   21 ar  
    34   20   25 ar  
    35   21   22 ar  
    36   21   26 1   
    37   22   23 ar  
    38   22   37 1   
    39   23   24 ar  
    40   23   38 1   
    41   24   25 ar  
    42   24   39 1   
    43   25   40 1   
    44   26   41 1   
    45   26   42 1   
@<TRIPOS>SUBSTRUCTURE
     1 5BM         1 TEMP              0 ****  ****    0 ROOT
