@<TRIPOS>MOLECULE
5BN
   40    43     1     0     0
SMALL
bcc


@<TRIPOS>ATOM
      1 N22         1.3760    1.0830   -0.9800 n4        1 5BN     -0.831600
      2 C21         1.8550   -0.1290   -0.2640 c3        1 5BN      0.071800
      3 C20         2.2230    0.1650    1.2050 c3        1 5BN      0.076800
      4 N19         2.8560   -1.0100    1.8770 n4        1 5BN     -0.618400
      5 C7          3.6980   -0.5870    3.0070 ca        1 5BN     -0.055400
      6 C8          3.2280   -0.7130    4.3090 ca        1 5BN     -0.075000
      7 C9          4.0070   -0.3410    5.4580 ca        1 5BN      0.124000
      8 C14         3.4470   -0.4760    6.7690 cc        1 5BN     -0.200300
      9 C15         3.6870    0.3350    7.9090 cd        1 5BN     -0.056000
     10 C16         2.8770   -0.1610    8.9680 cd        1 5BN     -0.194000
     11 C17         2.1710   -1.2720    8.4690 cc        1 5BN     -0.071300
     12 N18         2.4760   -1.4400    7.1300 na        1 5BN     -0.179100
     13 C10         5.2730    0.1630    5.2030 ca        1 5BN     -0.069000
     14 C11         6.4300    0.6480    6.0520 c         1 5BN      0.311800
     15 O13         6.5150    0.7660    7.2690 o         1 5BN     -0.221000
     16 N12         7.4890    0.9890    5.1480 n         1 5BN     -0.277300
     17 C6          7.0950    0.7650    3.8330 ca        1 5BN      0.088800
     18 C1          7.7210    0.9130    2.6070 ca        1 5BN     -0.147000
     19 C2          7.0000    0.5790    1.4410 ca        1 5BN     -0.037000
     20 C3          5.6880    0.1060    1.4730 ca        1 5BN      0.000900
     21 F           5.0440   -0.1910    0.3060 f         1 5BN     -0.192900
     22 C4          5.0080   -0.0780    2.7180 ca        1 5BN     -0.036000
     23 C5          5.7310    0.2690    3.8580 ca        1 5BN     -0.076000
     24 H221        2.1050    1.8100   -0.9950 hn        1 5BN      0.484467
     25 H222        1.1440    0.8330   -1.9540 hn        1 5BN      0.484467
     26 H211        2.7670   -0.5130   -0.8200 hx        1 5BN      0.138700
     27 H212        1.0380   -0.9090   -0.3210 hx        1 5BN      0.138700
     28 H201        1.3110    0.4600    1.8010 hx        1 5BN      0.134700
     29 H202        2.9740    1.0150    1.2500 hx        1 5BN      0.134700
     30 H19         2.1320   -1.6610    2.2080 hn        1 5BN      0.472300
     31 H8          2.2100   -1.1000    4.4960 ha        1 5BN      0.154000
     32 H15         4.3700    1.1830    7.9600 ha        1 5BN      0.184000
     33 H16         2.8170    0.2380    9.9800 ha        1 5BN      0.188000
     34 H17         1.4700   -1.9370    8.9830 h4        1 5BN      0.194000
     35 H18         2.2880   -2.2570    6.6100 hn        1 5BN      0.290700
     36 H12         8.3850    1.3020    5.4330 hn        1 5BN      0.340700
     37 H1          8.7580    1.2750    2.5180 ha        1 5BN      0.188000
     38 H2          7.5020    0.6920    0.4630 ha        1 5BN      0.179000
     39 H223        0.5350    1.4690   -0.5320 hn        1 5BN      0.484467
     40 H192        3.4730   -1.5030    1.2060 hn        1 5BN      0.472300
@<TRIPOS>BOND
     1    1    2 1   
     2    1   24 1   
     3    1   25 1   
     4    1   39 1   
     5    2    3 1   
     6    2   26 1   
     7    2   27 1   
     8    3    4 1   
     9    3   28 1   
    10    3   29 1   
    11    4    5 1   
    12    4   30 1   
    13    4   40 1   
    14    5    6 ar  
    15    5   22 ar  
    16    6    7 ar  
    17    6   31 1   
    18    7    8 1   
    19    7   13 ar  
    20    8    9 2   
    21    8   12 1   
    22    9   10 1   
    23    9   32 1   
    24   10   11 2   
    25   10   33 1   
    26   11   12 1   
    27   11   34 1   
    28   12   35 1   
    29   13   14 1   
    30   13   23 ar  
    31   14   15 2   
    32   14   16 1   
    33   16   17 1   
    34   16   36 1   
    35   17   18 ar  
    36   17   23 ar  
    37   18   19 ar  
    38   18   37 1   
    39   19   20 ar  
    40   19   38 1   
    41   20   21 1   
    42   20   22 ar  
    43   22   23 ar  
@<TRIPOS>SUBSTRUCTURE
     1 5BN         1 TEMP              0 ****  ****    0 ROOT
