@<TRIPOS>MOLECULE
5BN
   38    41     1     0     0
SMALL
bcc


@<TRIPOS>ATOM
      1 N22         3.6770    0.2530    4.7810 n3        1 5BN     -0.915800
      2 C21         2.2830    0.0550    4.4700 c3        1 5BN      0.148800
      3 C20         2.0500   -0.0280    2.9430 c3        1 5BN      0.200800
      4 N19         0.6660   -0.2570    2.6190 nh        1 5BN     -0.760600
      5 C7          0.2020   -0.1170    1.3250 ca        1 5BN      0.250600
      6 C8          1.0790   -0.0730    0.2290 ca        1 5BN     -0.267000
      7 C9          0.6630   -0.0070   -1.1330 ca        1 5BN      0.164000
      8 C14         1.6670    0.0130   -2.1750 cc        1 5BN     -0.127300
      9 C15         1.6120    0.6140   -3.4520 cd        1 5BN     -0.116000
     10 C16         2.8640    0.3750   -4.0950 cd        1 5BN     -0.210000
     11 C17         3.6540   -0.3720   -3.2040 cc        1 5BN     -0.138300
     12 N18         2.9350   -0.5790   -2.0400 na        1 5BN     -0.170100
     13 C10        -0.6940    0.0410   -1.3830 ca        1 5BN     -0.188000
     14 C11        -1.5670    0.1160   -2.5950 c         1 5BN      0.328800
     15 O13        -1.2890    0.1880   -3.7960 o         1 5BN     -0.325000
     16 N12        -2.9210    0.1050   -2.1380 n         1 5BN     -0.300300
     17 C6         -2.9580    0.0390   -0.7390 ca        1 5BN      0.016800
     18 C1         -3.9840    0.0060    0.1810 ca        1 5BN     -0.140000
     19 C2         -3.6430   -0.0630    1.5510 ca        1 5BN     -0.146000
     20 C3         -2.3250   -0.1030    2.0000 ca        1 5BN      0.111900
     21 F          -2.0970   -0.1640    3.3370 f         1 5BN     -0.151900
     22 C4         -1.2280   -0.0780    1.0740 ca        1 5BN     -0.088000
     23 C5         -1.5890   -0.0010   -0.2660 ca        1 5BN     -0.028000
     24 H221        3.8030    0.3480    5.7680 hn        1 5BN      0.355800
     25 H222        4.2350   -0.5060    4.4450 hn        1 5BN      0.355800
     26 H211        1.8560   -0.8750    4.9520 h1        1 5BN      0.035200
     27 H212        1.7140    0.9380    4.8810 h1        1 5BN      0.035200
     28 H201        2.4200    0.9250    2.4630 h1        1 5BN      0.050200
     29 H202        2.6540   -0.8820    2.5200 h1        1 5BN      0.050200
     30 H19         0.0080   -0.1120    3.3540 hn        1 5BN      0.438800
     31 H8          2.1620   -0.0640    0.4270 ha        1 5BN      0.135000
     32 H15         0.7580    1.1440   -3.8700 ha        1 5BN      0.179000
     33 H16         3.1520    0.7050   -5.0880 ha        1 5BN      0.156000
     34 H17         4.6650   -0.7620   -3.3250 h4        1 5BN      0.165000
     35 H18         3.2230   -1.1200   -1.2680 hn        1 5BN      0.293700
     36 H12        -3.7120    0.1430   -2.7220 hn        1 5BN      0.303700
     37 H1         -5.0410    0.0320   -0.1140 ha        1 5BN      0.146000
     38 H2         -4.4580   -0.0860    2.2920 ha        1 5BN      0.149000
@<TRIPOS>BOND
     1    1    2 1   
     2    1   24 1   
     3    1   25 1   
     4    2    3 1   
     5    2   26 1   
     6    2   27 1   
     7    3    4 1   
     8    3   28 1   
     9    3   29 1   
    10    4    5 1   
    11    4   30 1   
    12    5    6 ar  
    13    5   22 ar  
    14    6    7 ar  
    15    6   31 1   
    16    7    8 1   
    17    7   13 ar  
    18    8    9 2   
    19    8   12 1   
    20    9   10 1   
    21    9   32 1   
    22   10   11 2   
    23   10   33 1   
    24   11   12 1   
    25   11   34 1   
    26   12   35 1   
    27   13   14 1   
    28   13   23 ar  
    29   14   15 2   
    30   14   16 1   
    31   16   17 1   
    32   16   36 1   
    33   17   18 ar  
    34   17   23 ar  
    35   18   19 ar  
    36   18   37 1   
    37   19   20 ar  
    38   19   38 1   
    39   20   21 1   
    40   20   22 ar  
    41   22   23 ar  
@<TRIPOS>SUBSTRUCTURE
     1 5BN         1 TEMP              0 ****  ****    0 ROOT
