@<TRIPOS>MOLECULE
5BN
   39    42     1     0     0
SMALL
bcc


@<TRIPOS>ATOM
      1 N22         0.6170    0.8940   -0.5090 nz        1 5BN     -0.836600
      2 C21         1.2650   -0.2410    0.2090 c3        1 5BN      0.086800
      3 C20         2.4870    0.2330    1.0310 c3        1 5BN      0.151800
      4 N19         3.0790   -0.9020    1.7110 nu        1 5BN     -0.704600
      5 C7          3.8820   -0.5370    2.8380 ca        1 5BN      0.099600
      6 C8          3.3180   -0.5730    4.1060 ca        1 5BN     -0.118000
      7 C9          4.0390   -0.2720    5.3130 ca        1 5BN      0.114000
      8 C14         3.3520   -0.3460    6.5790 cc        1 5BN     -0.153300
      9 C15         3.5720    0.4150    7.7490 cd        1 5BN     -0.099000
     10 C16         2.6230   -0.0130    8.7260 cd        1 5BN     -0.203000
     11 C17         1.8550   -1.0330    8.1400 cc        1 5BN     -0.118300
     12 N18         2.2730   -1.2160    6.8330 na        1 5BN     -0.175100
     13 C10         5.3620    0.0850    5.1770 ca        1 5BN     -0.115000
     14 C11         6.4840    0.4680    6.1060 c         1 5BN      0.319800
     15 O13         6.4930    0.6130    7.3280 o         1 5BN     -0.282000
     16 N12         7.6410    0.6830    5.2960 ns        1 5BN     -0.292300
     17 C6          7.3380    0.4640    3.9480 ca        1 5BN      0.044800
     18 C1          8.0750    0.5260    2.7820 ca        1 5BN     -0.144000
     19 C2          7.4180    0.2440    1.5620 ca        1 5BN     -0.103000
     20 C3          6.0690   -0.0950    1.4920 ca        1 5BN      0.068900
     21 F           5.5040   -0.3390    0.2790 f         1 5BN     -0.164900
     22 C4          5.2710   -0.1840    2.6820 ca        1 5BN     -0.063000
     23 C5          5.9380    0.1070    3.8660 ca        1 5BN     -0.066000
     24 H221       -0.1850    0.5530   -1.0490 hn        1 5BN      0.462800
     25 H222        0.2940    1.5990    0.1630 hn        1 5BN      0.462800
     26 H211        0.4960   -0.7080    0.8910 hx        1 5BN      0.121200
     27 H212        1.5790   -1.0020   -0.5610 hx        1 5BN      0.121200
     28 H201        3.2180    0.7450    0.3360 h1        1 5BN      0.062700
     29 H202        2.1500    0.9830    1.8020 h1        1 5BN      0.062700
     30 H19         3.6210   -1.4560    1.0690 hn        1 5BN      0.400800
     31 H8          2.2510   -0.8370    4.2040 ha        1 5BN      0.143000
     32 H15         4.3390    1.1770    7.8810 ha        1 5BN      0.179000
     33 H16         2.5190    0.3720    9.7360 ha        1 5BN      0.168000
     34 H17         1.0440   -1.6270    8.5660 h4        1 5BN      0.175000
     35 H18         2.0000   -1.9540    6.2400 hn        1 5BN      0.292700
     36 H12         8.5390    0.8950    5.6480 hn        1 5BN      0.318700
     37 H1          9.1440    0.7830    2.7750 ha        1 5BN      0.162000
     38 H2          8.0040    0.2950    0.6300 ha        1 5BN      0.159000
     39 H223        1.2870    1.3370   -1.1470 hn        1 5BN      0.462800
@<TRIPOS>BOND
     1    1    2 1   
     2    1   24 1   
     3    1   25 1   
     4    1   39 1   
     5    2    3 1   
     6    2   26 1   
     7    2   27 1   
     8    3    4 1   
     9    3   28 1   
    10    3   29 1   
    11    4    5 1   
    12    4   30 1   
    13    5    6 ar  
    14    5   22 ar  
    15    6    7 ar  
    16    6   31 1   
    17    7    8 1   
    18    7   13 ar  
    19    8    9 2   
    20    8   12 1   
    21    9   10 1   
    22    9   32 1   
    23   10   11 2   
    24   10   33 1   
    25   11   12 1   
    26   11   34 1   
    27   12   35 1   
    28   13   14 1   
    29   13   23 ar  
    30   14   15 2   
    31   14   16 1   
    32   16   17 1   
    33   16   36 1   
    34   17   18 ar  
    35   17   23 ar  
    36   18   19 ar  
    37   18   37 1   
    38   19   20 ar  
    39   19   38 1   
    40   20   21 1   
    41   20   22 ar  
    42   22   23 ar  
@<TRIPOS>SUBSTRUCTURE
     1 5BN         1 TEMP              0 ****  ****    0 ROOT
