@<TRIPOS>MOLECULE
5BN
   39    42     1     0     0
SMALL
bcc


@<TRIPOS>ATOM
      1 N22         0.6100    0.8840   -0.5050 n4        1 5BN     -0.836600
      2 C21         1.2570   -0.2480    0.2160 c3        1 5BN      0.086800
      3 C20         2.4820    0.2260    1.0330 c3        1 5BN      0.151800
      4 N19         3.0730   -0.9070    1.7160 nh        1 5BN     -0.704600
      5 C7          3.8800   -0.5400    2.8400 ca        1 5BN      0.099600
      6 C8          3.3180   -0.5710    4.1090 ca        1 5BN     -0.118000
      7 C9          4.0420   -0.2670    5.3140 ca        1 5BN      0.114000
      8 C14         3.3580   -0.3360    6.5820 cc        1 5BN     -0.153300
      9 C15         3.5820    0.4290    7.7480 cd        1 5BN     -0.099000
     10 C16         2.6350    0.0050    8.7290 cd        1 5BN     -0.203000
     11 C17         1.8640   -1.0170    8.1480 cc        1 5BN     -0.118300
     12 N18         2.2790   -1.2040    6.8410 na        1 5BN     -0.175100
     13 C10         5.3660    0.0880    5.1730 ca        1 5BN     -0.115000
     14 C11         6.4890    0.4740    6.0980 c         1 5BN      0.319800
     15 O13         6.5010    0.6230    7.3210 o         1 5BN     -0.282000
     16 N12         7.6460    0.6850    5.2850 n         1 5BN     -0.292300
     17 C6          7.3390    0.4620    3.9390 ca        1 5BN      0.044800
     18 C1          8.0740    0.5190    2.7720 ca        1 5BN     -0.144000
     19 C2          7.4130    0.2340    1.5540 ca        1 5BN     -0.103000
     20 C3          6.0640   -0.1040    1.4880 ca        1 5BN      0.068900
     21 F           5.4960   -0.3520    0.2770 f         1 5BN     -0.164900
     22 C4          5.2690   -0.1890    2.6790 ca        1 5BN     -0.063000
     23 C5          5.9380    0.1060    3.8610 ca        1 5BN     -0.066000
     24 H221        0.2890    1.5920    0.1650 hn        1 5BN      0.462800
     25 H222        1.2790    1.3240   -1.1460 hn        1 5BN      0.462800
     26 H211        1.5690   -1.0140   -0.5520 hx        1 5BN      0.120700
     27 H212        0.4890   -0.7120    0.9010 hx        1 5BN      0.120700
     28 H201        3.2120    0.7350    0.3350 h1        1 5BN      0.062700
     29 H202        2.1470    0.9800    1.8020 h1        1 5BN      0.062700
     30 H19         3.6140   -1.4650    1.0740 hn        1 5BN      0.400800
     31 H8          2.2520   -0.8330    4.2100 ha        1 5BN      0.143000
     32 H15         4.3490    1.1910    7.8760 ha        1 5BN      0.179000
     33 H16         2.5330    0.3930    9.7380 ha        1 5BN      0.168000
     34 H17         1.0530   -1.6090    8.5780 h4        1 5BN      0.175000
     35 H18         2.0040   -1.9440    6.2510 hn        1 5BN      0.292700
     36 H12         8.5440    0.8980    5.6350 hn        1 5BN      0.318700
     37 H1          9.1420    0.7750    2.7610 ha        1 5BN      0.162000
     38 H2          7.9970    0.2810    0.6200 ha        1 5BN      0.159000
     39 H223       -0.1940    0.5430   -1.0410 hn        1 5BN      0.462800
@<TRIPOS>BOND
     1    1    2 1   
     2    1   24 1   
     3    1   25 1   
     4    1   39 1   
     5    2    3 1   
     6    2   26 1   
     7    2   27 1   
     8    3    4 1   
     9    3   28 1   
    10    3   29 1   
    11    4    5 1   
    12    4   30 1   
    13    5    6 ar  
    14    5   22 ar  
    15    6    7 ar  
    16    6   31 1   
    17    7    8 1   
    18    7   13 ar  
    19    8    9 2   
    20    8   12 1   
    21    9   10 1   
    22    9   32 1   
    23   10   11 2   
    24   10   33 1   
    25   11   12 1   
    26   11   34 1   
    27   12   35 1   
    28   13   14 1   
    29   13   23 ar  
    30   14   15 2   
    31   14   16 1   
    32   16   17 1   
    33   16   36 1   
    34   17   18 ar  
    35   17   23 ar  
    36   18   19 ar  
    37   18   37 1   
    38   19   20 ar  
    39   19   38 1   
    40   20   21 1   
    41   20   22 ar  
    42   22   23 ar  
@<TRIPOS>SUBSTRUCTURE
     1 5BN         1 TEMP              0 ****  ****    0 ROOT
