@<TRIPOS>MOLECULE
5BN
   38    33     1     0     0
SMALL
bcc


@<TRIPOS>ATOM
      1 N22        -0.6670    4.1150   -3.8390 n3        1 5BN     -0.337000
      2 C21         0.1100    3.0790   -3.2840 c3        1 5BN     -0.085000
      3 C20        -0.6670    2.4140   -2.1590 c3        1 5BN     -0.107000
      4 N19         0.2580    1.7180   -1.2770 n3        1 5BN     -0.263000
      5 C7         -0.2430    0.7030   -0.3420 c2        1 5BN      0.103000
      6 C8          0.0870   -0.5580   -0.8650 c1        1 5BN     -0.211000
      7 C9          0.1460   -1.6800   -0.0100 c1        1 5BN      0.152000
      8 C14         1.3540   -2.4570   -0.1110 c1        1 5BN     -0.106500
      9 C15         1.5290   -3.5760   -0.8870 c1        1 5BN     -0.180500
     10 C16         2.8030   -4.0290   -0.6940 c1        1 5BN     -0.180500
     11 C17         3.4230   -3.1860    0.2070 c1        1 5BN     -0.106500
     12 N18         2.5290   -2.2190    0.5650 n2        1 5BN     -0.139000
     13 C10        -0.1290   -1.5280    1.3820 c1        1 5BN     -0.182000
     14 C11        -0.7490   -2.5380    2.3400 c1        1 5BN      0.374000
     15 O13        -0.7600   -3.7400    2.1980 o         1 5BN     -0.363000
     16 N12        -1.3750   -1.8250    3.3670 n3        1 5BN     -0.328000
     17 C6         -1.1830   -0.3810    3.1030 c2        1 5BN      0.046000
     18 C1         -2.0160    0.6680    3.4840 c2        1 5BN     -0.125000
     19 C2         -2.1180    1.8310    2.6620 c1        1 5BN     -0.160000
     20 C3         -1.3650    1.9170    1.4490 c1        1 5BN      0.103000
     21 F          -2.1000    2.9160    0.9970 f         1 5BN     -0.095000
     22 C4         -0.5170    0.8440    1.0620 c2        1 5BN     -0.048000
     23 C5         -0.3410   -0.2440    1.9160 c2        1 5BN     -0.044000
     24 H221       -1.2590    3.7630   -4.4300 hn        1 5BN      0.144500
     25 H222       -1.1150    4.5370   -3.1810 hn        1 5BN      0.144500
     26 H211        0.3150    2.4210   -3.9720 h1        1 5BN      0.101000
     27 H212        0.9600    3.4570   -2.9240 h1        1 5BN      0.101000
     28 H201       -1.2980    1.7790   -2.5320 h1        1 5BN      0.079000
     29 H202       -1.1400    3.0790   -1.6640 h1        1 5BN      0.079000
     30 H19         1.1060    1.9730   -1.2370 hn        1 5BN      0.178000
     31 H8          0.3050   -0.6540   -1.8260 ha        1 5BN      0.144000
     32 H15         0.8430   -3.9880   -1.4880 DU        1 5BN      0.188500
     33 H16         3.2110   -4.8230   -1.1260 DU        1 5BN      0.188500
     34 H17         4.3540   -3.2680    0.5370 DU        1 5BN      0.188500
     35 H18         2.6910   -1.5040    1.1760 DU        1 5BN      0.188500
     36 H12        -1.7730   -2.1970    4.1330 hn        1 5BN      0.258000
     37 H1         -2.5390    0.6070    4.3280 ha        1 5BN      0.147000
     38 H2         -2.6720    2.5740    2.9420 ha        1 5BN      0.151000
@<TRIPOS>BOND
     1    1    2 1   
     2    1   24 1   
     3    1   25 1   
     4    2    3 1   
     5    2   26 1   
     6    2   27 1   
     7    3    4 1   
     8    3   28 1   
     9    3   29 1   
    10    4    5 1   
    11    4   30 1   
    12    5    6 1   
    13    5   22 1   
    14    6   31 1   
    15    7   13 1   
    16    8    9 1   
    17    8   12 1   
    18    9   10 1   
    19   10   11 1   
    20   11   12 1   
    21   13   23 1   
    22   14   15 1   
    23   14   16 1   
    24   16   17 1   
    25   16   36 1   
    26   17   18 1   
    27   17   23 1   
    28   18   19 1   
    29   18   37 1   
    30   19   38 1   
    31   20   21 1   
    32   20   22 1   
    33   22   23 1   
@<TRIPOS>SUBSTRUCTURE
     1 5BN         1 TEMP              0 ****  ****    0 ROOT
