@<TRIPOS>MOLECULE
5BO
   57    53     1     0     0
SMALL
bcc


@<TRIPOS>ATOM
      1 CAA         1.8190   -0.9400   -3.2390 c3        1 5BO     -0.303000
      2 CAB         5.9280   -2.4620   -1.0540 c3        1 5BO     -0.192000
      3 OAD         4.6660    3.5060   -0.0300 o         1 5BO     -0.343000
      4 OAE         9.4670    0.1270    6.9110 o         1 5BO     -0.915000
      5 OAF         7.7210    0.9290    8.3180 o         1 5BO     -0.915000
      6 BRAG        5.3850    1.8890   -2.6430 br        1 5BO      0.094000
      7 CAH         6.0810    1.6440    6.0900 c2        1 5BO      0.037000
      8 CAI         4.9760    1.5860    5.3470 cv        1 5BO     -0.067000
      9 CAJ         4.8460   -1.3100    3.4510 c1        1 5BO      0.325000
     10 CAK         3.0740   -1.5000   -3.6740 c1        1 5BO     -0.080000
     11 CAL         5.6610   -1.0730   -1.5710 c3        1 5BO     -0.161000
     12 CAM         3.6490    2.2400    5.4030 cv        1 5BO     -0.138000
     13 CAN         5.0190   -4.3030    5.4010 c1        1 5BO     -0.245000
     14 CAO         5.4560   -3.5120    8.4840 c1        1 5BO     -0.249500
     15 CAP         7.2810   -1.9370    6.1410 c1        1 5BO     -0.166000
     16 CAQ         5.6990   -3.1750    9.6070 c1        1 5BO     -0.249500
     17 NAR         5.1870   -0.4660    0.7800 n2        1 5BO     -0.246000
     18 NAS         4.7100    1.7880    1.4480 n         1 5BO     -0.299000
     19 OAT         3.2290    1.6100    4.2780 os        1 5BO      0.046000
     20 CAU         7.3210    0.9130    5.7980 c3        1 5BO     -0.848000
     21 CAV         4.4580    0.9430    4.1370 cv        1 5BO     -0.291000
     22 CAW         5.3350   -0.0420   -0.5300 c2        1 5BO      0.116000
     23 CAX         5.1810    1.2900   -0.8920 c2        1 5BO     -0.363000
     24 CAY         4.7350   -0.0140    3.1230 c2        1 5BO     -0.268000
     25 CAZ         4.8890    0.4430    1.7160 c2        1 5BO      0.211000
     26 CBA         4.8460    2.2860    0.1300 c2        1 5BO      0.344000
     27 NBB         4.8090   -5.5460    5.0910 n3        1 5BO     -0.169000
     28 NBC         7.4030   -1.3110    7.2850 n3        1 5BO     -0.675000
     29 HAA         1.6960   -1.0940   -2.1340 hc        1 5BO      0.111667
     30 HAAA        0.8930   -1.3010   -3.7550 hc        1 5BO      0.111667
     31 HAAB        1.9070    0.1730   -3.4030 hc        1 5BO      0.111667
     32 HAB         6.1720   -3.1320   -1.9160 hc        1 5BO      0.074000
     33 HABA        5.0320   -2.8770   -0.5330 hc        1 5BO      0.074000
     34 HABB        6.7880   -2.4730   -0.3420 hc        1 5BO      0.074000
     35 HAC         3.8640   -7.1330    6.1020 h1        1 5BO      0.095667
     36 HACA        5.0690   -6.1710    7.0880 h1        1 5BO      0.095667
     37 HACB        5.6550   -7.3380    5.8050 h1        1 5BO      0.095667
     38 HAH         7.1400    0.1400    4.9890 h1        1 5BO      0.202500
     39 HAI         6.1030    2.2880    6.9940 ha        1 5BO      0.167000
     40 HAJ         8.0410    1.6430    5.3200 h1        1 5BO      0.202500
     41 HAK         3.0670    2.9550    5.9570 h4        1 5BO      0.215000
     42 HAKA        3.0660   -2.0740   -4.6130 ha        1 5BO      0.040000
     43 HAL         4.7920   -1.1110   -2.3010 hc        1 5BO      0.136500
     44 HALA        6.5630   -0.7130   -2.1390 hc        1 5BO      0.136500
     45 HAM         2.9910   -3.5060   -2.5730 ha        1 5BO      0.010500
     46 HAMA        3.5710   -3.2440   -2.3260 ha        1 5BO      0.010500
     47 HAN         4.9170   -1.0930    5.7230 ha        1 5BO      0.010500
     48 HANA        4.7710   -1.7570    5.7890 ha        1 5BO      0.010500
     49 HAO         4.6050   -5.8750    4.1640 hn        1 5BO      0.166000
     50 HAOA        5.2390   -3.8110    7.4700 ha        1 5BO      0.243500
     51 HAP         6.8610   -2.9600    6.1030 ha        1 5BO      0.117000
     52 HAPA        4.9650   -3.5630    4.5750 ha        1 5BO      0.088000
     53 HAQ         7.1110   -1.6800    8.1740 hn        1 5BO      0.220000
     54 HAQA        5.9030   -2.8870   10.6080 ha        1 5BO      0.243500
     55 HNAS        4.4910    2.4210    2.1880 hn        1 5BO      0.262000
     56 SBD         8.0960    0.2070    7.1700 s6        1 5BO      2.792000
     57 CAC         4.8520   -6.6010    6.0740 c3        1 5BO     -0.108000
@<TRIPOS>BOND
     1    1   10 1   
     2    1   29 1   
     3    1   30 1   
     4    1   31 1   
     5    2   11 1   
     6    2   32 1   
     7    2   33 1   
     8    2   34 1   
     9    3   26 1   
    10    4   56 1   
    11    5   56 1   
    12    6   23 1   
    13    7    8 1   
    14    7   20 1   
    15    7   39 1   
    16    8   12 1   
    17    8   21 1   
    18    9   24 1   
    19   10   42 1   
    20   11   22 1   
    21   11   43 1   
    22   11   44 1   
    23   12   19 1   
    24   12   41 1   
    25   13   27 1   
    26   13   52 1   
    27   14   16 1   
    28   14   50 1   
    29   15   28 1   
    30   15   51 1   
    31   16   54 1   
    32   17   22 1   
    33   17   25 1   
    34   18   25 1   
    35   18   26 1   
    36   18   55 1   
    37   19   21 1   
    38   20   38 1   
    39   20   40 1   
    40   20   56 1   
    41   21   24 1   
    42   22   23 1   
    43   23   26 1   
    44   24   25 1   
    45   27   49 1   
    46   27   57 1   
    47   28   53 1   
    48   28   56 1   
    49   35   57 1   
    50   36   57 1   
    51   37   57 1   
    52   45   46 1   
    53   47   48 1   
@<TRIPOS>SUBSTRUCTURE
     1 5BO         1 TEMP              0 ****  ****    0 ROOT
