@<TRIPOS>MOLECULE
5BO
   57    55     1     0     0
SMALL
bcc


@<TRIPOS>ATOM
      1 CAA        -4.0950    1.9070   -4.0440 c3        1 5BO     -0.213000
      2 CAB         4.5860    0.8940   -4.4490 c3        1 5BO     -0.208000
      3 CAC        -0.4490    2.5130    6.4360 c3        1 5BO     -0.120000
      4 OAD         1.5260   -3.3070   -5.2960 o         1 5BO     -0.332000
      5 OAE        -0.0550   -3.2100    3.3180 o         1 5BO     -0.928500
      6 OAF         1.8500   -2.3420    2.7140 o         1 5BO     -0.928500
      7 BRAG        3.0860   -0.9780   -6.6490 br        1 5BO      0.104000
      8 CAH        -1.6040   -1.2950    1.1760 c1        1 5BO     -0.101500
      9 CAI        -2.1760   -1.0040   -0.0870 c1        1 5BO     -0.101500
     10 CAJ         0.6000   -1.4800    0.1300 c1        1 5BO      0.066000
     11 CAK        -3.1160    0.7470   -4.0170 c3        1 5BO     -0.168000
     12 CAL         3.1450    1.2630   -4.4010 c3        1 5BO     -0.127000
     13 CAM        -2.8950    0.3070   -2.5810 c3        1 5BO     -0.021000
     14 CAN        -1.0200    0.3410    5.7160 c3        1 5BO     -0.085500
     15 CAO         0.9240    1.4310    4.8330 c3        1 5BO     -0.085500
     16 CAP        -0.5570   -0.9650    5.1030 c3        1 5BO     -0.010500
     17 CAQ         1.3810    0.1420    4.2350 c3        1 5BO     -0.010500
     18 NAR         1.7010   -0.0340   -2.7430 n1        1 5BO     -0.224000
     19 NAS         0.8570   -2.3750   -3.2820 n         1 5BO     -0.298000
     20 OAT        -1.9340   -0.7240   -2.5480 os        1 5BO     -0.220000
     21 CAU        -0.2160   -1.5330    1.2830 c1        1 5BO     -0.864000
     22 CAV        -1.3610   -0.9520   -1.2340 c1        1 5BO      0.172000
     23 CAW         2.3270    0.0500   -4.0360 c1        1 5BO      0.091000
     24 CAX         2.2350   -1.0730   -4.9650 c2        1 5BO     -0.336000
     25 CAY         0.0300   -1.1900   -1.1260 c1        1 5BO     -0.133000
     26 CAZ         0.8990   -1.2150   -2.3830 c2        1 5BO      0.200000
     27 CBA         1.5020   -2.3100   -4.5650 c2        1 5BO      0.342000
     28 NBB         0.0690    1.2320    5.9830 n3        1 5BO     -0.254000
     29 NBC         0.2850   -0.7640    3.9650 n3        1 5BO     -0.835000
     30 SBD         0.4890   -1.9960    2.8500 s6        1 5BO      2.850000
     31 HAA        -4.9690    1.5900   -3.8320 hc        1 5BO      0.080667
     32 HAAA       -4.1010    2.3080   -4.9330 hc        1 5BO      0.080667
     33 HAAB       -3.8290    2.5660   -3.3980 hc        1 5BO      0.080667
     34 HAB         5.0920    1.6240   -4.8250 hc        1 5BO      0.083333
     35 HABA        4.7020    0.0850   -5.0140 hc        1 5BO      0.083333
     36 HABB        4.9050    0.7080   -3.5430 hc        1 5BO      0.083333
     37 HAC        -0.9700    2.3810    7.3090 h1        1 5BO      0.074000
     38 HACA       -1.0470    2.8880    5.7500 h1        1 5BO      0.074000
     39 HACB        0.3090    3.1400    6.5940 h1        1 5BO      0.074000
     40 HAH        -2.1880   -1.3320    1.9980 ha        1 5BO      0.157500
     41 HAI        -3.1420   -0.8370   -0.1620 ha        1 5BO      0.157500
     42 HAJ         1.5560   -1.6440    0.2030 ha        1 5BO      0.171000
     43 HAK        -3.4730    0.0190   -4.5220 hc        1 5BO      0.102500
     44 HAKA       -2.2760    1.0250   -4.4010 hc        1 5BO      0.102500
     45 HAL         2.8620    1.5960   -5.2830 hc        1 5BO      0.107500
     46 HALA        3.0100    1.9630   -3.7300 hc        1 5BO      0.107500
     47 HAM        -3.7430   -0.0240   -2.2030 h1        1 5BO      0.088000
     48 HAMA       -2.5770    1.0650   -2.0540 h1        1 5BO      0.088000
     49 HAN        -1.4760    0.1510    6.5450 h1        1 5BO      0.079250
     50 HANA       -1.6280    0.7650    5.1200 h1        1 5BO      0.079250
     51 HAO         1.7360    1.9640    5.1200 h1        1 5BO      0.079250
     52 HAOA        0.4260    1.9490    4.1410 h1        1 5BO      0.079250
     53 HAP        -1.3330   -1.4740    4.8290 h1        1 5BO      0.100750
     54 HAPA       -0.0720   -1.4690    5.7650 h1        1 5BO      0.100750
     55 HAQ         1.8570    0.3330    3.3830 h1        1 5BO      0.100750
     56 HAQA        2.0100   -0.2930    4.8600 h1        1 5BO      0.100750
     57 HNAS        0.3460   -3.1280   -3.0520 hn        1 5BO      0.262000
@<TRIPOS>BOND
     1    1   11 1   
     2    1   31 1   
     3    1   32 1   
     4    1   33 1   
     5    2   12 1   
     6    2   34 1   
     7    2   35 1   
     8    2   36 1   
     9    3   28 1   
    10    3   37 1   
    11    3   38 1   
    12    3   39 1   
    13    4   27 1   
    14    5   30 1   
    15    6   30 1   
    16    7   24 1   
    17    8    9 1   
    18    8   40 1   
    19    9   41 1   
    20   10   21 1   
    21   10   42 1   
    22   11   13 1   
    23   11   43 1   
    24   11   44 1   
    25   12   23 1   
    26   12   45 1   
    27   12   46 1   
    28   13   20 1   
    29   13   47 1   
    30   13   48 1   
    31   14   16 1   
    32   14   28 1   
    33   14   49 1   
    34   14   50 1   
    35   15   17 1   
    36   15   28 1   
    37   15   51 1   
    38   15   52 1   
    39   16   29 1   
    40   16   53 1   
    41   16   54 1   
    42   17   29 1   
    43   17   55 1   
    44   17   56 1   
    45   18   26 1   
    46   19   26 1   
    47   19   27 1   
    48   19   57 1   
    49   20   22 1   
    50   21   30 1   
    51   22   25 1   
    52   23   24 1   
    53   24   27 1   
    54   25   26 1   
    55   29   30 1   
@<TRIPOS>SUBSTRUCTURE
     1 5BO         1 TEMP              0 ****  ****    0 ROOT
