@<TRIPOS>MOLECULE
5BO
   57    54     1     0     0
SMALL
bcc


@<TRIPOS>ATOM
      1 CAA         0.0430   -1.6450    0.9050 c3        1 5BO     -0.059900
      2 CAB         4.9660    0.3260   -3.3730 c3        1 5BO     -0.093100
      3 OAD         9.6350   -0.9450   -0.5590 o         1 5BO     -0.603500
      4 OAE         8.0170    0.6880    5.6910 o         1 5BO     -0.633800
      5 OAF         6.6430    1.3150    7.5580 o         1 5BO     -0.633800
      6 BrAG        8.6740    0.2860   -3.2980 br        1 5BO     -0.017700
      7 CAH         5.4180   -0.0650    4.3800 cc        1 5BO      0.141000
      8 CAI         4.1590   -0.3610    3.6740 cc        1 5BO     -0.298000
      9 CAJ         6.4520    0.1090    3.3120 cc        1 5BO     -0.108000
     10 CAK         1.5040   -1.5140    0.7660 c2        1 5BO     -0.172200
     11 CAL         5.7300    1.3470   -2.5660 c3        1 5BO     -0.044200
     12 CAM         2.2390   -0.7260    1.5620 c2        1 5BO     -0.022900
     13 CAN         6.8060   -4.2040    7.1180 c1        1 5BO     -0.172500
     14 CAO         4.2710   -2.6790    8.7310 c1        1 5BO     -0.177500
     15 CAP         8.2800   -1.1650    8.0290 c1        1 5BO     -0.081500
     16 CAQ         3.3410   -2.1920    9.3040 c1        1 5BO     -0.177500
     17 NAR         5.8670    0.6080   -0.2350 nc        1 5BO     -0.611300
     18 NAS         7.7900   -0.4970    0.6800 ns        1 5BO     -0.474400
     19 OAT         3.6050   -0.6060    1.2610 os        1 5BO     -0.203200
     20 CAU         5.5930    0.0250    5.7020 cf        1 5BO     -0.437100
     21 CAV         4.4130   -0.3610    2.3270 cd        1 5BO      0.180100
     22 CAW         6.5130    0.6870   -1.4630 cc        1 5BO      0.223400
     23 CAX         7.7880    0.1900   -1.6630 cd        1 5BO     -0.221500
     24 CAY         5.8580   -0.0650    2.0970 cd        1 5BO     -0.146600
     25 CAZ         6.5060    0.0300    0.7800 cd        1 5BO      0.570200
     26 CBA         8.4970   -0.4470   -0.5440 c         1 5BO      0.703700
     27 NBB         6.3800   -5.4010    6.8490 n7        1 5BO     -0.532000
     28 NBC         7.2200   -1.1510    7.2630 n7        1 5BO     -0.543900
     29 HAA        -0.3530   -1.0520    1.7660 hc        1 5BO      0.047700
     30 HAAA       -0.2290   -2.7200    1.0620 hc        1 5BO      0.047700
     31 HAAB       -0.4620   -1.2910   -0.0290 hc        1 5BO      0.047700
     32 HAB         4.4130    0.8390   -4.1970 hc        1 5BO      0.044700
     33 HABA        4.2260   -0.2090   -2.7290 hc        1 5BO      0.044700
     34 HABB        5.6560   -0.4260   -3.8250 hc        1 5BO      0.044700
     35 HAC         4.7480   -6.5710    7.4800 h1        1 5BO      0.061367
     36 HACA        4.3570   -4.8330    7.0540 h1        1 5BO      0.061367
     37 HACB        4.7180   -6.0430    5.7290 h1        1 5BO      0.061367
     38 HAH         4.6800   -0.1110    6.3190 h4        1 5BO      0.186000
     39 HAI         3.2210   -0.5540    4.1890 ha        1 5BO      0.168000
     40 HAJ         7.4930    0.3660    3.5380 ha        1 5BO      0.206000
     41 HAK         1.8740   -0.1120    2.3960 h4        1 5BO      0.151000
     42 HAKA        1.9740   -2.0860   -0.0510 ha        1 5BO      0.144000
     43 HAL         6.4350    1.9180   -3.2270 hc        1 5BO      0.071200
     44 HALA        5.0060    2.0920   -2.1330 hc        1 5BO      0.071200
     45 HAM         3.0550    0.7880   -1.1010 ha        1 5BO      0.000500
     46 HAMA        2.6670    0.3160   -0.8060 ha        1 5BO      0.000500
     47 HAN         4.6280   -2.4490    5.5750 ha        1 5BO      0.000500
     48 HANA        4.8520   -2.9880    5.9210 ha        1 5BO      0.000500
     49 HAO         5.1070   -3.1150    8.2250 ha        1 5BO      0.174000
     50 HAOA        6.9800   -6.1880    6.6720 hn        1 5BO      0.374800
     51 HAP         7.9090   -4.0760    7.1500 ha        1 5BO     -0.001500
     52 HAPA        8.5690   -2.0960    8.5490 ha        1 5BO      0.015500
     53 HAQ         6.6130   -1.9380    7.0950 hn        1 5BO      0.434800
     54 HAQA        2.5190   -1.7560    9.8150 ha        1 5BO      0.174000
     55 HNAS        8.2330   -0.9030    1.4750 hn        1 5BO      0.343500
     56 SBD         6.9870    0.3730    6.5870 sy        1 5BO      1.512800
     57 CAC         4.9760   -5.7280    6.7750 c3        1 5BO      0.164100
@<TRIPOS>BOND
     1    1   10 1   
     2    1   29 1   
     3    1   30 1   
     4    1   31 1   
     5    2   11 1   
     6    2   32 1   
     7    2   33 1   
     8    2   34 1   
     9    3   26 2   
    10    4   56 2   
    11    5   56 2   
    12    6   23 1   
    13    7    8 1   
    14    7    9 1   
    15    7   20 2   
    16    8   21 2   
    17    8   39 1   
    18    9   24 2   
    19    9   40 1   
    20   10   12 2   
    21   10   42 1   
    22   11   22 1   
    23   11   43 1   
    24   11   44 1   
    25   12   19 1   
    26   12   41 1   
    27   13   27 3   
    28   13   51 1   
    29   14   16 3   
    30   14   49 1   
    31   15   28 3   
    32   15   52 1   
    33   16   54 1   
    34   17   22 1   
    35   17   25 2   
    36   18   25 1   
    37   18   26 1   
    38   18   55 1   
    39   19   21 1   
    40   20   38 1   
    41   20   56 1   
    42   21   24 1   
    43   22   23 2   
    44   23   26 1   
    45   24   25 1   
    46   27   50 1   
    47   27   57 1   
    48   28   53 1   
    49   28   56 1   
    50   35   57 1   
    51   36   57 1   
    52   37   57 1   
    53   45   46 1   
    54   47   48 1   
@<TRIPOS>SUBSTRUCTURE
     1 5BO         1 TEMP              0 ****  ****    0 ROOT
