@<TRIPOS>MOLECULE
5BO
   57    59     1     0     0
SMALL
bcc


@<TRIPOS>ATOM
      1 CAA        -1.1280    6.8630   -1.1980 c3        1 5BO     -0.095100
      2 CAB        -2.6990   -2.9990    1.8150 c3        1 5BO     -0.090100
      3 OAD        -4.5100    1.2690   -1.4310 o         1 5BO     -0.607500
      4 OAE         2.9820   -2.1360   -1.6030 o         1 5BO     -0.649300
      5 OAF         4.6940   -0.4710   -1.9420 o         1 5BO     -0.649300
      6 BRAG       -5.5420   -0.6740    0.8280 br        1 5BO     -0.021700
      7 CAH         2.7930    1.5900   -1.3650 ca        1 5BO      0.038000
      8 CAI         1.8430    2.6010   -1.3230 ca        1 5BO     -0.241000
      9 CAJ         1.1330   -0.0340   -0.7350 ca        1 5BO      0.066000
     10 CAK        -1.3930    5.4000   -0.9620 c3        1 5BO     -0.089400
     11 CAL        -2.8040   -1.5600    2.2580 c3        1 5BO     -0.044200
     12 CAM        -0.1160    4.5980   -1.1490 c3        1 5BO      0.129400
     13 CAN         3.0870   -1.3760    2.6430 c3        1 5BO      0.151300
     14 CAO         4.8290    0.2750    2.2960 c3        1 5BO      0.151300
     15 CAP         3.4610   -2.0440    1.3030 c3        1 5BO      0.226300
     16 CAQ         5.1960   -0.4020    0.9580 c3        1 5BO      0.226300
     17 NAR        -1.3990   -0.2510    0.7390 nc        1 5BO     -0.652300
     18 NAS        -2.2820    1.0740   -1.0510 n         1 5BO     -0.458400
     19 OAT        -0.4860    3.2270   -0.9160 os        1 5BO     -0.336900
     20 CAU         2.4580    0.2630   -1.0680 ca        1 5BO     -0.419500
     21 CAV         0.5150    2.2940   -0.9810 ca        1 5BO      0.217100
     22 CAW        -2.6900   -0.6240    1.0840 cc        1 5BO      0.227400
     23 CAX        -3.8020   -0.1730    0.3960 cd        1 5BO     -0.229500
     24 CAY         0.1520    0.9580   -0.6850 ca        1 5BO     -0.216900
     25 CAZ        -1.2320    0.5760   -0.2960 cd        1 5BO      0.578500
     26 CBA        -3.6220    0.7500   -0.7330 c         1 5BO      0.703700
     27 NBB         4.1920   -0.6360    3.2350 n3        1 5BO     -0.728600
     28 NBC         4.1110   -1.1500    0.3770 n3        1 5BO     -0.815500
     29 HAA        -0.7570    7.0370   -2.2370 hc        1 5BO      0.041367
     30 HAAA       -2.0710    7.4460   -1.0590 hc        1 5BO      0.041367
     31 HAAB       -0.3640    7.2510   -0.4810 hc        1 5BO      0.041367
     32 HAB        -1.7140   -3.1910    1.3250 hc        1 5BO      0.044033
     33 HABA       -2.7930   -3.6720    2.7010 hc        1 5BO      0.044033
     34 HABB       -3.5110   -3.2520    1.0900 hc        1 5BO      0.044033
     35 HAC         3.4240   -0.7570    5.1800 h1        1 5BO      0.034700
     36 HACA        4.7340    0.4840    4.9200 h1        1 5BO      0.034700
     37 HACB        3.0380    0.8130    4.3370 h1        1 5BO      0.034700
     38 HAH         3.8340    1.8310   -1.6520 ha        1 5BO      0.163000
     39 HAI         2.1370    3.6320   -1.5630 ha        1 5BO      0.152000
     40 HAJ         0.8570   -1.0840   -0.5210 ha        1 5BO      0.171000
     41 HAK        -1.7840    5.2370    0.0770 hc        1 5BO      0.063200
     42 HAKA       -2.1750    5.0250   -1.6730 hc        1 5BO      0.063200
     43 HAL        -3.7840   -1.3860    2.7780 hc        1 5BO      0.068200
     44 HALA       -1.9930   -1.3380    3.0050 hc        1 5BO      0.068200
     45 HAM         0.2790    4.7000   -2.1930 h1        1 5BO      0.048700
     46 HAMA        0.6680    4.9020   -0.4080 h1        1 5BO      0.048700
     47 HAN         2.1810   -0.7210    2.4850 h1        1 5BO      0.039950
     48 HANA        2.8000   -2.1930    3.3620 h1        1 5BO      0.039950
     49 HAO         5.7850    0.6390    2.7680 h1        1 5BO      0.039950
     50 HAOA        4.1830    1.1770    2.0850 h1        1 5BO      0.039950
     51 HAP         4.1490   -2.9140    1.5120 h1        1 5BO      0.061450
     52 HAPA        2.5190   -2.4460    0.8320 h1        1 5BO      0.061450
     53 HAQ         5.5270    0.3960    0.2340 h1        1 5BO      0.061450
     54 HAQA        6.0660   -1.0990    1.1340 h1        1 5BO      0.061450
     55 HNAS       -2.1070    1.7410   -1.7730 hn        1 5BO      0.348500
     56 SBD         3.6250   -0.9620   -1.1590 sy        1 5BO      1.511200
     57 CAC         3.8200    0.0160    4.4710 c3        1 5BO      0.156100
@<TRIPOS>BOND
     1    1   10 1   
     2    1   29 1   
     3    1   30 1   
     4    1   31 1   
     5    2   11 1   
     6    2   32 1   
     7    2   33 1   
     8    2   34 1   
     9    3   26 2   
    10    4   56 2   
    11    5   56 2   
    12    6   23 1   
    13    7    8 ar  
    14    7   20 ar  
    15    7   38 1   
    16    8   21 ar  
    17    8   39 1   
    18    9   20 ar  
    19    9   24 ar  
    20    9   40 1   
    21   10   12 1   
    22   10   41 1   
    23   10   42 1   
    24   11   22 1   
    25   11   43 1   
    26   11   44 1   
    27   12   19 1   
    28   12   45 1   
    29   12   46 1   
    30   13   15 1   
    31   13   27 1   
    32   13   47 1   
    33   13   48 1   
    34   14   16 1   
    35   14   27 1   
    36   14   49 1   
    37   14   50 1   
    38   15   28 1   
    39   15   51 1   
    40   15   52 1   
    41   16   28 1   
    42   16   53 1   
    43   16   54 1   
    44   17   22 1   
    45   17   25 2   
    46   18   25 1   
    47   18   26 1   
    48   18   55 1   
    49   19   21 1   
    50   20   56 1   
    51   21   24 ar  
    52   22   23 2   
    53   23   26 1   
    54   24   25 1   
    55   27   57 1   
    56   28   56 1   
    57   35   57 1   
    58   36   57 1   
    59   37   57 1   
@<TRIPOS>SUBSTRUCTURE
     1 5BO         1 TEMP              0 ****  ****    0 ROOT
