@<TRIPOS>MOLECULE
5BO
   57    53     1     0     0
SMALL
bcc


@<TRIPOS>ATOM
      1 CAA         2.0030    0.2660   -2.8520 c3        1 5BO     -0.214500
      2 CAB         4.9030    2.3380   -0.7620 c2        1 5BO     -0.152000
      3 OAD         8.3310   -2.1210    1.3980 o         1 5BO     -0.384000
      4 OAE         5.8350   -0.7550    6.9070 o         1 5BO     -0.556900
      5 OAF         6.8060   -1.7930    5.0820 o         1 5BO     -0.556900
      6 BRAG        8.5940    0.0790   -0.8440 br        1 5BO      0.096000
      7 CAH         2.0490   -1.1670    5.0770 ca        1 5BO     -0.113000
      8 CAI         1.8130   -1.1910    3.7040 ca        1 5BO     -0.128000
      9 CAJ         4.4300   -0.8160    4.6960 ca        1 5BO     -0.491000
     10 CAK         1.4130   -1.1130   -2.8310 c3        1 5BO     -0.214500
     11 CAL         6.0620    1.8900   -0.2790 c2        1 5BO     -0.150000
     12 CAM         1.5270   -0.8650    0.9650 c1        1 5BO     -0.043000
     13 CAN         8.6660   -3.2720    6.7390 cx        1 5BO     -0.114500
     14 CAO         6.5390   -2.3030   10.7390 c1        1 5BO     -0.242000
     15 CAP        10.2250   -3.7280    3.2990 c1        1 5BO     -0.151000
     16 CAQ         6.1410   -1.6130    9.8450 c1        1 5BO     -0.242000
     17 NAR         5.1890    0.4960    1.5140 n2        1 5BO     -0.204000
     18 NAS         6.3590   -1.4440    2.3060 n         1 5BO     -0.297000
     19 OAT         2.7350   -1.1120    1.4400 os        1 5BO     -0.135000
     20 CAU         3.3450   -0.9920    5.5590 ca        1 5BO     -0.093000
     21 CAV         2.8970   -1.0180    2.8390 ca        1 5BO      0.068000
     22 CAW         6.1930    0.7020    0.5780 c2        1 5BO      0.119000
     23 CAX         7.2780   -0.1530    0.4510 c2        1 5BO     -0.342000
     24 CAY         4.2020   -0.8090    3.3140 ca        1 5BO     -0.018000
     25 CAZ         5.2960   -0.5550    2.3320 c2        1 5BO      0.185000
     26 CBA         7.4020   -1.2890    1.3700 c2        1 5BO      0.352000
     27 NBB         7.4170   -3.0390    7.4900 n4        1 5BO     -0.131000
     28 NBC        10.5700   -4.1650    4.3170 n1        1 5BO     -0.128000
     29 HAA         2.2240    0.6180   -1.8130 hc        1 5BO      0.071500
     30 HAAA        1.2960    0.9910   -3.3230 hc        1 5BO      0.071500
     31 HAAB        2.9570    0.2790   -3.4350 hc        1 5BO      0.071500
     32 HAB         1.1900   -1.4640   -3.8680 hc        1 5BO      0.071500
     33 HABA        4.8560    3.2270   -1.4050 ha        1 5BO      0.123500
     34 HABB        3.9350    1.8570   -0.5580 ha        1 5BO      0.123500
     35 HAC         6.8980   -4.2520    5.7340 hx        1 5BO      0.171000
     36 HACA        7.5790   -5.2260    7.1730 hx        1 5BO      0.171000
     37 HACB        7.4120   -3.1230    8.4980 hn        1 5BO      0.291500
     38 HAH         1.2100   -1.2900    5.7770 ha        1 5BO      0.139000
     39 HAI         0.8020   -1.3260    3.2880 ha        1 5BO      0.171000
     40 HAJ         3.5340   -0.9890    6.6480 ha        1 5BO      0.164000
     41 HAK         1.5980   -0.9970   -0.1490 ha        1 5BO      0.044000
     42 HAKA        0.4610   -1.1270   -2.2460 hc        1 5BO      0.071500
     43 HAL         2.1220   -1.8390   -2.3620 hc        1 5BO      0.071500
     44 HALA        7.0150    2.3990   -0.5030 ha        1 5BO      0.146000
     45 HAM         1.8950    1.3920    0.2550 ha        1 5BO      0.004750
     46 HAMA        1.6350    1.4760    0.8770 ha        1 5BO      0.004750
     47 HAN         5.9010   -4.2700    3.7260 ha        1 5BO      0.004750
     48 HANA        5.6200   -3.7870    4.1100 ha        1 5BO      0.004750
     49 HAO         6.7840   -2.2660    7.1430 hn        1 5BO      0.291500
     50 HAOA        6.8750   -2.8950   11.5530 ha        1 5BO      0.244500
     51 HAP         9.5830   -3.5030    7.3210 hx        1 5BO      0.171000
     52 HAPA        9.8850   -3.3120    2.3650 ha        1 5BO      0.278000
     53 HAQ         5.7900   -0.9990    9.0380 ha        1 5BO      0.244500
     54 HAQA        8.8390   -2.5710    5.8840 hx        1 5BO      0.171000
     55 HNAS        6.4570   -2.1370    3.0350 hn        1 5BO      0.296000
     56 SBD         6.0110   -0.5180    5.3980 s4        1 5BO      0.704800
     57 CAC         7.5360   -4.2470    6.6530 cx        1 5BO     -0.114500
@<TRIPOS>BOND
     1    1   10 1   
     2    1   29 1   
     3    1   30 1   
     4    1   31 1   
     5    2   11 1   
     6    2   33 1   
     7    2   34 1   
     8    3   26 1   
     9    4   56 1   
    10    5   56 1   
    11    6   23 1   
    12    7    8 1   
    13    7   20 1   
    14    7   38 1   
    15    8   21 1   
    16    8   39 1   
    17    9   20 1   
    18    9   24 1   
    19    9   56 1   
    20   10   32 1   
    21   10   42 1   
    22   10   43 1   
    23   11   22 1   
    24   11   44 1   
    25   12   19 1   
    26   12   41 1   
    27   13   27 1   
    28   13   51 1   
    29   13   54 1   
    30   13   57 1   
    31   14   16 1   
    32   14   50 1   
    33   15   28 1   
    34   15   52 1   
    35   16   53 1   
    36   17   22 1   
    37   17   25 1   
    38   18   25 1   
    39   18   26 1   
    40   18   55 1   
    41   19   21 1   
    42   20   40 1   
    43   21   24 1   
    44   22   23 1   
    45   23   26 1   
    46   24   25 1   
    47   27   37 1   
    48   27   49 1   
    49   27   57 1   
    50   35   57 1   
    51   36   57 1   
    52   45   46 1   
    53   47   48 1   
@<TRIPOS>SUBSTRUCTURE
     1 5BO         1 TEMP              0 ****  ****    0 ROOT
