@<TRIPOS>MOLECULE
5BP
   31    34     1     0     0
SMALL
bcc


@<TRIPOS>ATOM
      1 N1         -0.0210    0.6040    0.1290 nc        1 5BP     -0.505100
      2 C4          0.6340   -0.0100    2.2640 cc        1 5BP     -0.039300
      3 C5          0.3370   -0.3730    3.6120 cc        1 5BP     -0.051000
      4 C6         -0.9750   -0.4210    3.9930 cd        1 5BP     -0.233300
      5 C7         -1.9870   -0.1070    3.0180 cd        1 5BP      0.350200
      6 C10         3.1880   -0.0210    1.8810 ca        1 5BP      0.584100
      7 C15         4.1890   -0.0800    0.8800 ca        1 5BP     -0.413600
      8 C17         6.4340   -0.2370    5.3820 cx        1 5BP      0.154500
      9 C2          1.3320    0.5280    0.1790 cd        1 5BP      0.384500
     10 C3          1.8060    0.1470    1.4900 cd        1 5BP     -0.351400
     11 N8         -1.7520    0.2310    1.7560 nc        1 5BP     -0.423800
     12 N9         -0.4690    0.2830    1.3690 na        1 5BP      0.342500
     13 N11         3.4930   -0.1100    3.2000 nb        1 5BP     -0.771000
     14 C12         4.8320   -0.2770    3.5250 ca        1 5BP      0.868900
     15 N13         5.8720   -0.3200    2.6020 nb        1 5BP     -0.736000
     16 C14         5.5150   -0.2260    1.3130 ca        1 5BP      0.463200
     17 N16         5.1200   -0.4980    4.8920 nh        1 5BP     -0.785900
     18 C18         6.8710    1.1100    5.9320 cx        1 5BP     -0.150400
     19 C19         6.6700   -0.0450    6.8670 cx        1 5BP     -0.150400
     20 H5          1.1700   -0.5990    4.2940 ha        1 5BP      0.182000
     21 H6         -1.2830   -0.6920    5.0110 ha        1 5BP      0.157000
     22 H7         -3.0570   -0.1370    3.2940 h4        1 5BP      0.047100
     23 H15         3.9410   -0.0160   -0.1840 ha        1 5BP      0.153000
     24 H17         7.1920   -0.8220    4.8120 h1        1 5BP      0.117700
     25 H2          1.9360    0.7490   -0.7040 h4        1 5BP      0.060800
     26 H14         6.3490   -0.2680    0.5880 h4        1 5BP      0.027100
     27 HN16        4.3870   -0.2150    5.5130 hn        1 5BP      0.416800
     28 H18         7.8950    1.4560    5.7060 hc        1 5BP      0.076200
     29 H18A        6.1540    1.9490    5.9640 hc        1 5BP      0.076200
     30 H19         5.8130   -0.0240    7.5640 hc        1 5BP      0.076200
     31 H19A        7.5490   -0.5420    7.3140 hc        1 5BP      0.076200
@<TRIPOS>BOND
     1    1    9 2   
     2    1   12 1   
     3    2    3 1   
     4    2   10 2   
     5    2   12 1   
     6    3    4 2   
     7    3   20 1   
     8    4    5 1   
     9    4   21 1   
    10    5   11 2   
    11    5   22 1   
    12    6    7 ar  
    13    6   10 1   
    14    6   13 ar  
    15    7   16 ar  
    16    7   23 1   
    17    8   17 1   
    18    8   18 1   
    19    8   19 1   
    20    8   24 1   
    21    9   10 1   
    22    9   25 1   
    23   11   12 1   
    24   13   14 ar  
    25   14   15 ar  
    26   14   17 1   
    27   15   16 ar  
    28   16   26 1   
    29   17   27 1   
    30   18   19 1   
    31   18   28 1   
    32   18   29 1   
    33   19   30 1   
    34   19   31 1   
@<TRIPOS>SUBSTRUCTURE
     1 5BP         1 TEMP              0 ****  ****    0 ROOT
