@<TRIPOS>MOLECULE
5BP
   31    25     1     0     0
SMALL
bcc


@<TRIPOS>ATOM
      1 N1         -3.4890    1.4840    1.0280 n2        1 5BP     -0.041000
      2 C4         -2.8210   -0.6340    1.0890 c1        1 5BP     -0.037000
      3 C5         -2.9640   -2.0200    1.1190 c1        1 5BP     -0.130500
      4 C6         -4.2110   -2.5780    1.1160 c1        1 5BP     -0.130500
      5 C7         -5.3300   -1.7660    1.0830 c1        1 5BP     -0.121000
      6 C10        -0.3060    0.2620    0.9610 c1        1 5BP      0.142000
      7 C15         0.4850    0.1390    2.0720 c1        1 5BP     -0.130500
      8 C17         3.3790    0.2430   -2.0550 cx        1 5BP     -0.041000
      9 C2         -2.1310    1.4900    1.0440 c1        1 5BP     -0.097000
     10 C3         -1.7010    0.1850    1.0810 c1        1 5BP     -0.151000
     11 N8         -5.1880   -0.4120    1.0530 n1        1 5BP      0.017000
     12 N9         -3.9160    0.1570    1.0560 n2        1 5BP     -0.030000
     13 N11         0.2530    0.5050   -0.2380 n1        1 5BP     -0.229000
     14 C12         1.6110    0.6280   -0.3480 c1        1 5BP      0.152000
     15 N13         2.4010    0.5050    0.7610 n1        1 5BP     -0.210000
     16 C14         1.8440    0.2630    1.9610 c1        1 5BP     -0.130500
     17 N16         2.2010    0.9430   -1.6160 n3        1 5BP     -0.232000
     18 C18         3.9120    0.6410   -3.4220 cx        1 5BP     -0.229000
     19 C19         4.6430    1.0810   -2.1640 cx        1 5BP     -0.229000
     20 H5         -2.1700   -2.5950    1.1430 ha        1 5BP      0.157750
     21 H6         -4.3130   -3.5540    1.1380 ha        1 5BP      0.157750
     22 H7         -6.2260   -2.1660    1.0810 ha        1 5BP      0.185000
     23 H15         0.0780   -0.0380    2.9470 ha        1 5BP      0.157750
     24 H17         3.5110   -0.6970   -1.8040 h1        1 5BP      0.156000
     25 H2         -1.5570    2.2860    1.0420 DU        1 5BP      0.202000
     26 H14         2.4110    0.1740    2.7570 ha        1 5BP      0.157750
     27 HN16        1.8090    1.5680   -2.1610 hn        1 5BP      0.219000
     28 H18         4.3430   -0.0750   -3.9370 hc        1 5BP      0.115750
     29 H18A        3.4080    1.3420   -3.8880 hc        1 5BP      0.115750
     30 H19         4.5480    2.0280   -1.9250 hc        1 5BP      0.115750
     31 H19A        5.4840    0.6100   -1.9730 hc        1 5BP      0.115750
@<TRIPOS>BOND
     1    1    9 1   
     2    1   12 1   
     3    2   12 1   
     4    3    4 1   
     5    3   20 1   
     6    4   21 1   
     7    5   11 1   
     8    5   22 1   
     9    6   13 1   
    10    7   16 1   
    11    7   23 1   
    12    8   17 1   
    13    8   18 1   
    14    8   19 1   
    15    8   24 1   
    16    9   10 1   
    17   14   15 1   
    18   14   17 1   
    19   16   26 1   
    20   17   27 1   
    21   18   19 1   
    22   18   28 1   
    23   18   29 1   
    24   19   30 1   
    25   19   31 1   
@<TRIPOS>SUBSTRUCTURE
     1 5BP         1 TEMP              0 ****  ****    0 ROOT
