@<TRIPOS>MOLECULE
5BP
   32    35     1     0     0
SMALL
bcc


@<TRIPOS>ATOM
      1 N1          0.2010    0.9930    0.3300 nc        1 5BP     -0.471100
      2 C4          0.8660    0.1930    2.4000 cc        1 5BP     -0.004300
      3 C5          0.5900   -0.1870    3.7450 cc        1 5BP     -0.089000
      4 C6         -0.6970   -0.0660    4.2020 cd        1 5BP     -0.185300
      5 C7         -1.7000    0.4370    3.3020 cd        1 5BP      0.355200
      6 C10         3.3640   -0.1570    1.8370 ca        1 5BP      0.618100
      7 C15         4.3200   -0.2000    0.7780 ca        1 5BP     -0.327600
      8 C17         6.2190   -0.0250    5.2940 cx        1 5BP      0.006500
      9 C2          1.5220    0.7230    0.2900 cd        1 5BP      0.413500
     10 C3          2.0110    0.2160    1.5590 cd        1 5BP     -0.422400
     11 N8         -1.4770    0.7970    2.0420 nc        1 5BP     -0.390800
     12 N9         -0.2220    0.6800    1.5890 na        1 5BP      0.357500
     13 N11         3.7390   -0.4670    3.1170 nb        1 5BP     -0.719000
     14 C12         5.0530   -0.8060    3.2830 ca        1 5BP      0.723900
     15 N13         6.0390   -0.8730    2.3370 nb        1 5BP     -0.689000
     16 C14         5.6360   -0.5640    1.0820 ca        1 5BP      0.463200
     17 N16         5.4690   -1.1400    4.6850 n4        1 5BP     -0.706700
     18 C18         5.5000    1.1210    5.9750 cx        1 5BP     -0.101400
     19 C19         6.2560    0.1280    6.8020 cx        1 5BP     -0.101400
     20 H5          1.4070   -0.5660    4.3740 ha        1 5BP      0.163000
     21 H6         -0.9880   -0.3400    5.2260 ha        1 5BP      0.171000
     22 H7         -2.7510    0.5500    3.6340 h4        1 5BP      0.070100
     23 H15         4.0270    0.0400   -0.2540 ha        1 5BP      0.187000
     24 H17         7.1370    0.1880    4.6960 hx        1 5BP      0.158700
     25 H2          2.0950    0.8990   -0.6260 h4        1 5BP      0.070800
     26 H14         6.4260   -0.6200    0.3050 h4        1 5BP      0.068100
     27 HN16        4.6330   -1.3530    5.2450 hn        1 5BP      0.469300
     28 H18         5.9090    2.1390    5.8220 hc        1 5BP      0.111200
     29 H18A        4.3940    1.1310    6.0220 hc        1 5BP      0.111200
     30 H19         5.6940   -0.5730    7.4480 hc        1 5BP      0.111200
     31 H19A        7.2260    0.4110    7.2570 hc        1 5BP      0.111200
     32 H162        6.0780   -1.9710    4.6570 hn        1 5BP      0.469300
@<TRIPOS>BOND
     1    1    9 2   
     2    1   12 1   
     3    2    3 1   
     4    2   10 2   
     5    2   12 1   
     6    3    4 2   
     7    3   20 1   
     8    4    5 1   
     9    4   21 1   
    10    5   11 2   
    11    5   22 1   
    12    6    7 ar  
    13    6   10 1   
    14    6   13 ar  
    15    7   16 ar  
    16    7   23 1   
    17    8   17 1   
    18    8   18 1   
    19    8   19 1   
    20    8   24 1   
    21    9   10 1   
    22    9   25 1   
    23   11   12 1   
    24   13   14 ar  
    25   14   15 ar  
    26   14   17 1   
    27   15   16 ar  
    28   16   26 1   
    29   17   27 1   
    30   17   32 1   
    31   18   19 1   
    32   18   28 1   
    33   18   29 1   
    34   19   30 1   
    35   19   31 1   
@<TRIPOS>SUBSTRUCTURE
     1 5BP         1 TEMP              0 ****  ****    0 ROOT
