@<TRIPOS>MOLECULE
5BP
   31    34     1     0     0
SMALL
bcc


@<TRIPOS>ATOM
      1 N1         -0.0260    0.6130    0.1360 nc        1 5BP     -0.505100
      2 C4          0.6310    0.0020    2.2710 cc        1 5BP     -0.039300
      3 C5          0.3360   -0.3550    3.6210 cc        1 5BP     -0.051000
      4 C6         -0.9760   -0.3950    4.0050 cd        1 5BP     -0.233300
      5 C7         -1.9880   -0.0770    3.0320 cd        1 5BP      0.350200
      6 C10         3.1830   -0.0260    1.8810 ca        1 5BP      0.584100
      7 C15         4.1810   -0.0940    0.8780 ca        1 5BP     -0.413600
      8 C17         6.4370   -0.2500    5.3740 cx        1 5BP      0.154500
      9 C2          1.3270    0.5290    0.1830 cd        1 5BP      0.384500
     10 C3          1.8010    0.1500    1.4930 cd        1 5BP     -0.351400
     11 N8         -1.7550    0.2560    1.7680 nc        1 5BP     -0.423800
     12 N9         -0.4720    0.2990    1.3790 na        1 5BP      0.342500
     13 N11         3.4920   -0.1120    3.2000 nb        1 5BP     -0.771000
     14 C12         4.8310   -0.2860    3.5220 ca        1 5BP      0.868900
     15 N13         5.8670   -0.3390    2.5960 nb        1 5BP     -0.736000
     16 C14         5.5080   -0.2470    1.3080 ca        1 5BP      0.463200
     17 N16         5.1200   -0.5040    4.8890 nu        1 5BP     -0.785900
     18 C18         6.8860    1.0960    5.9160 cx        1 5BP     -0.150400
     19 C19         6.6790   -0.0530    6.8570 cx        1 5BP     -0.150400
     20 H5          1.1690   -0.5850    4.3010 ha        1 5BP      0.182000
     21 H6         -1.2830   -0.6600    5.0250 ha        1 5BP      0.157000
     22 H7         -3.0580   -0.1000    3.3110 h4        1 5BP      0.047100
     23 H15         3.9300   -0.0330   -0.1850 ha        1 5BP      0.153000
     24 H17         7.1900   -0.8440    4.8050 h1        1 5BP      0.117700
     25 H2          1.9290    0.7450   -0.7030 h4        1 5BP      0.060800
     26 H14         6.3400   -0.2970    0.5810 h4        1 5BP      0.027100
     27 HN16        4.3910   -0.2140    5.5110 hn        1 5BP      0.416800
     28 H18         7.9120    1.4330    5.6860 hc        1 5BP      0.076200
     29 H18A        6.1750    1.9410    5.9460 hc        1 5BP      0.076200
     30 H19         5.8250   -0.0220    7.5570 hc        1 5BP      0.076200
     31 H19A        7.5550   -0.5540    7.3050 hc        1 5BP      0.076200
@<TRIPOS>BOND
     1    1    9 2   
     2    1   12 1   
     3    2    3 1   
     4    2   10 2   
     5    2   12 1   
     6    3    4 2   
     7    3   20 1   
     8    4    5 1   
     9    4   21 1   
    10    5   11 2   
    11    5   22 1   
    12    6    7 ar  
    13    6   10 1   
    14    6   13 ar  
    15    7   16 ar  
    16    7   23 1   
    17    8   17 1   
    18    8   18 1   
    19    8   19 1   
    20    8   24 1   
    21    9   10 1   
    22    9   25 1   
    23   11   12 1   
    24   13   14 ar  
    25   14   15 ar  
    26   14   17 1   
    27   15   16 ar  
    28   16   26 1   
    29   17   27 1   
    30   18   19 1   
    31   18   28 1   
    32   18   29 1   
    33   19   30 1   
    34   19   31 1   
@<TRIPOS>SUBSTRUCTURE
     1 5BP         1 TEMP              0 ****  ****    0 ROOT
