@<TRIPOS>MOLECULE
5BP
   31    34     1     0     0
SMALL
bcc


@<TRIPOS>ATOM
      1 N1         -3.6280    1.2870    0.6850 nc        1 5BP     -0.505100
      2 C4         -2.1330   -0.3470    0.0080 cc        1 5BP     -0.039300
      3 C5         -1.8300   -1.6830   -0.3890 cc        1 5BP     -0.051000
      4 C6         -2.8530   -2.5890   -0.4410 cd        1 5BP     -0.233300
      5 C7         -4.1790   -2.1480   -0.0930 cd        1 5BP      0.350200
      6 C10         0.0100    1.0940   -0.0080 ca        1 5BP      0.584100
      7 C15         0.4850    2.4290   -0.0450 ca        1 5BP     -0.413600
      8 C17         4.4380   -0.6720   -0.3410 cx        1 5BP      0.154500
      9 C2         -2.3850    1.8240    0.5990 cd        1 5BP      0.384500
     10 C3         -1.4030    0.8510    0.1800 cd        1 5BP     -0.351400
     11 N8         -4.5020   -0.9150    0.2780 nc        1 5BP     -0.423800
     12 N9         -3.5070   -0.0180    0.3330 na        1 5BP      0.342500
     13 N11         0.8500    0.0360   -0.1350 nb        1 5BP     -0.771000
     14 C12         2.1960    0.3200   -0.3200 ca        1 5BP      0.868900
     15 N13         2.7390    1.5990   -0.3440 nb        1 5BP     -0.736000
     16 C14         1.8670    2.6090   -0.2120 ca        1 5BP      0.463200
     17 N16         3.0370   -0.7870   -0.5790 nh        1 5BP     -0.785900
     18 C18         5.0930   -1.0090    0.9880 cx        1 5BP     -0.150400
     19 C19         5.2920   -1.9160   -0.1900 cx        1 5BP     -0.150400
     20 H5         -0.7890   -1.9370   -0.6400 ha        1 5BP      0.182000
     21 H6         -2.7000   -3.6340   -0.7370 ha        1 5BP      0.157000
     22 H7         -5.0280   -2.8560   -0.1240 h4        1 5BP      0.047100
     23 H15        -0.1940    3.2810    0.0490 ha        1 5BP      0.153000
     24 H17         4.8690    0.1800   -0.9170 h1        1 5BP      0.117700
     25 H2         -2.2140    2.8750    0.8420 h4        1 5BP      0.060800
     26 H14         2.3090    3.6230   -0.2400 h4        1 5BP      0.027100
     27 HN16        2.6460   -1.6680   -0.3090 hn        1 5BP      0.416800
     28 H18         5.9280   -0.3730    1.3310 hc        1 5BP      0.076200
     29 H18A        4.4740   -1.3630    1.8310 hc        1 5BP      0.076200
     30 H19         4.8160   -2.9130   -0.1810 hc        1 5BP      0.076200
     31 H19A        6.2680   -1.9330   -0.7050 hc        1 5BP      0.076200
@<TRIPOS>BOND
     1    1    9 2   
     2    1   12 1   
     3    2    3 1   
     4    2   10 2   
     5    2   12 1   
     6    3    4 2   
     7    3   20 1   
     8    4    5 1   
     9    4   21 1   
    10    5   11 2   
    11    5   22 1   
    12    6    7 ar  
    13    6   10 1   
    14    6   13 ar  
    15    7   16 ar  
    16    7   23 1   
    17    8   17 1   
    18    8   18 1   
    19    8   19 1   
    20    8   24 1   
    21    9   10 1   
    22    9   25 1   
    23   11   12 1   
    24   13   14 ar  
    25   14   15 ar  
    26   14   17 1   
    27   15   16 ar  
    28   16   26 1   
    29   17   27 1   
    30   18   19 1   
    31   18   28 1   
    32   18   29 1   
    33   19   30 1   
    34   19   31 1   
@<TRIPOS>SUBSTRUCTURE
     1 5BP         1 TEMP              0 ****  ****    0 ROOT
