@<TRIPOS>MOLECULE
5BR
   17    16     1     0     0
SMALL
bcc


@<TRIPOS>ATOM
      1 BR1         0.0060    0.0000   -1.9940 br        1 5BR     -0.179400
      2 C1         -0.7730   -0.0000   -0.2320 c3        1 5BR     -0.008000
      3 C2          0.2530   -0.0000    0.8730 c3        1 5BR     -0.081400
      4 C3         -0.4300    0.0000    2.2270 c3        1 5BR     -0.081400
      5 C4          0.5860    0.0000    3.3490 c3        1 5BR     -0.079400
      6 C5         -0.0840    0.0000    4.6990 c3        1 5BR     -0.093100
      7 H11        -1.4170   -0.9080   -0.1730 h1        1 5BR      0.071700
      8 H12        -1.4170    0.9080   -0.1730 h1        1 5BR      0.071700
      9 H21         0.9130    0.9040    0.7880 hc        1 5BR      0.055700
     10 H22         0.9130   -0.9040    0.7880 hc        1 5BR      0.055700
     11 H31        -1.0890   -0.9030    2.3170 hc        1 5BR      0.041700
     12 H32        -1.0890    0.9030    2.3170 hc        1 5BR      0.041700
     13 H41         1.2460    0.9030    3.2560 hc        1 5BR      0.040700
     14 H42         1.2460   -0.9030    3.2560 hc        1 5BR      0.040700
     15 H51         0.6820    0.0000    5.5120 hc        1 5BR      0.034367
     16 H52        -0.7270    0.9050    4.8210 hc        1 5BR      0.034367
     17 H53        -0.7270   -0.9050    4.8210 hc        1 5BR      0.034367
@<TRIPOS>BOND
     1    1    2 1   
     2    2    3 1   
     3    2    7 1   
     4    2    8 1   
     5    3    4 1   
     6    3    9 1   
     7    3   10 1   
     8    4    5 1   
     9    4   11 1   
    10    4   12 1   
    11    5    6 1   
    12    5   13 1   
    13    5   14 1   
    14    6   15 1   
    15    6   16 1   
    16    6   17 1   
@<TRIPOS>SUBSTRUCTURE
     1 5BR         1 TEMP              0 ****  ****    0 ROOT
