@<TRIPOS>MOLECULE
5BR
   17    16     1     0     0
SMALL
bcc


@<TRIPOS>ATOM
      1 BR1        -3.6960    0.0000   -1.6780 br        1 5BR     -0.179400
      2 C1         -1.7840    0.0000   -1.6780 c3        1 5BR     -0.008000
      3 C2         -1.2800    0.0000   -0.2520 c3        1 5BR     -0.081400
      4 C3          0.2330   -0.0000   -0.2520 c3        1 5BR     -0.081400
      5 C4          0.7370   -0.0000    1.1750 c3        1 5BR     -0.079400
      6 C5          2.2500   -0.0000    1.1750 c3        1 5BR     -0.093100
      7 H11        -1.4590   -0.7970   -2.1380 h1        1 5BR      0.071700
      8 H12        -1.4590    0.7970   -2.1380 h1        1 5BR      0.071700
      9 H21        -1.6050   -0.7970    0.2080 hc        1 5BR      0.055700
     10 H22        -1.6050    0.7970    0.2080 hc        1 5BR      0.055700
     11 H31         0.5580   -0.7970   -0.7120 hc        1 5BR      0.041700
     12 H32         0.5580    0.7970   -0.7120 hc        1 5BR      0.041700
     13 H41         0.4120   -0.7970    1.6350 hc        1 5BR      0.040700
     14 H42         0.4120    0.7970    1.6350 hc        1 5BR      0.040700
     15 H51         2.5760    0.7970    0.7150 hc        1 5BR      0.034367
     16 H52         2.5760   -0.0000    2.0950 hc        1 5BR      0.034367
     17 H53         2.5760   -0.7970    0.7150 hc        1 5BR      0.034367
@<TRIPOS>BOND
     1    1    2 1   
     2    2    3 1   
     3    2    7 1   
     4    2    8 1   
     5    3    4 1   
     6    3    9 1   
     7    3   10 1   
     8    4    5 1   
     9    4   11 1   
    10    4   12 1   
    11    5    6 1   
    12    5   13 1   
    13    5   14 1   
    14    6   15 1   
    15    6   16 1   
    16    6   17 1   
@<TRIPOS>SUBSTRUCTURE
     1 5BR         1 TEMP              0 ****  ****    0 ROOT
