@<TRIPOS>MOLECULE
5BT
   30    31     1     0     0
SMALL
bcc


@<TRIPOS>ATOM
      1 N1         -0.2520    0.4370   -0.3010 n         1 5BT     -0.340000
      2 C2          1.1790    0.5790   -0.4380 c         1 5BT      0.845900
      3 O2          1.6910    1.0470   -1.4610 o         1 5BT     -0.522500
      4 N3          2.0180    0.1860    0.6500 nc        1 5BT     -0.616100
      5 C4          1.4600   -0.3210    1.7250 cd        1 5BT      0.631500
      6 N4          2.3690   -0.7600    2.8180 n4        1 5BT     -0.802600
      7 C5          0.0430   -0.4940    1.9180 cd        1 5BT     -0.387900
      8 BR5        -0.6950   -1.1830    3.4650 br        1 5BT      0.019300
      9 C6         -0.7540   -0.1190    0.8360 cc        1 5BT      0.162600
     10 C1'        -1.1950    0.6390   -1.4360 c3        1 5BT      0.296500
     11 C2'        -0.7830    1.6740   -2.4950 c3        1 5BT     -0.142400
     12 C3'        -0.3110    0.8450   -3.7030 c3        1 5BT      0.129100
     13 O3'        -1.0580    1.1590   -4.8600 oh        1 5BT     -0.582800
     14 C4'        -0.6370   -0.6210   -3.3430 c3        1 5BT      0.086100
     15 O4'        -1.3820   -0.6000   -2.1100 os        1 5BT     -0.404600
     16 C5'         0.6130   -1.4860   -3.1520 c3        1 5BT      0.105400
     17 O5'         0.5370   -2.2290   -1.9520 oh        1 5BT     -0.610800
     18 HN4         3.3560   -0.5880    2.5740 hn        1 5BT      0.482800
     19 HN4A        2.2260   -1.7670    2.9740 hn        1 5BT      0.482800
     20 H6         -1.8590   -0.2640    0.8830 h4        1 5BT      0.209000
     21 H1'        -2.1960    0.8900   -0.9720 h2        1 5BT      0.106700
     22 H2'        -1.6940    2.2670   -2.7730 hc        1 5BT      0.096200
     23 H2'A        0.0050    2.3830   -2.1480 hc        1 5BT      0.096200
     24 H3'         0.7880    0.9920   -3.8800 h1        1 5BT      0.079700
     25 HO3'       -0.6940    1.9770   -5.2230 ho        1 5BT      0.421000
     26 H4'        -1.3420   -1.0740   -4.0940 h1        1 5BT      0.118700
     27 H5'         0.7350   -2.1700   -4.0330 h1        1 5BT      0.070700
     28 H5'A        1.5390   -0.8590   -3.0320 h1        1 5BT      0.070700
     29 HO5'       -0.2590   -2.7750   -2.0020 ho        1 5BT      0.415000
     30 H43         2.1300   -0.2430    3.6730 hn        1 5BT      0.482800
@<TRIPOS>BOND
     1    1    2 1   
     2    1    9 1   
     3    1   10 1   
     4    2    3 2   
     5    2    4 1   
     6    4    5 2   
     7    5    6 1   
     8    5    7 1   
     9    6   18 1   
    10    6   19 1   
    11    6   30 1   
    12    7    8 1   
    13    7    9 2   
    14    9   20 1   
    15   10   11 1   
    16   10   15 1   
    17   10   21 1   
    18   11   12 1   
    19   11   22 1   
    20   11   23 1   
    21   12   13 1   
    22   12   14 1   
    23   12   24 1   
    24   13   25 1   
    25   14   15 1   
    26   14   16 1   
    27   14   26 1   
    28   16   17 1   
    29   16   27 1   
    30   16   28 1   
    31   17   29 1   
@<TRIPOS>SUBSTRUCTURE
     1 5BT         1 TEMP              0 ****  ****    0 ROOT
