@<TRIPOS>MOLECULE
5BT
   29    30     1     0     0
SMALL
bcc


@<TRIPOS>ATOM
      1 N1          0.4030   -0.2310   -0.3350 n         1 5BT     -0.390000
      2 C2          0.5370    1.1180   -0.8560 c         1 5BT      0.843900
      3 O2          1.6160    1.4370   -1.3940 o         1 5BT     -0.628500
      4 N3         -0.5270    2.0170   -0.7610 nc        1 5BT     -0.730100
      5 C4         -1.6630    1.6480   -0.1410 cd        1 5BT      0.789500
      6 N4         -2.7080    2.5320   -0.0780 nh        1 5BT     -0.919800
      7 C5         -1.8060    0.3150    0.4590 cd        1 5BT     -0.355900
      8 BR5        -3.3430   -0.2120    1.3610 br        1 5BT     -0.043700
      9 C6         -0.7440   -0.5530    0.3410 cc        1 5BT      0.105600
     10 C1'         1.4880   -1.2140   -0.3630 c3        1 5BT      0.307500
     11 C2'         2.3600   -1.2160   -1.6330 c3        1 5BT     -0.133400
     12 C3'         3.7090   -0.6300   -1.1980 c3        1 5BT      0.124100
     13 O3'         4.7850   -1.4810   -1.5540 oh        1 5BT     -0.593800
     14 C4'         3.6590   -0.5720    0.3400 c3        1 5BT      0.100100
     15 O4'         2.3630   -1.0310    0.7590 os        1 5BT     -0.432600
     16 C5'         3.8790    0.8450    0.8690 c3        1 5BT      0.113400
     17 O5'         3.8390    0.8720    2.2810 oh        1 5BT     -0.595800
     18 HN4        -2.6130    3.4480   -0.4430 hn        1 5BT      0.452300
     19 HN4A       -3.5180    2.2950    0.4380 hn        1 5BT      0.452300
     20 H6         -0.7900   -1.5680    0.7910 h4        1 5BT      0.170000
     21 H1'         1.0210   -2.2330   -0.1980 h2        1 5BT      0.078700
     22 H2'         2.4910   -2.2730   -1.9770 hc        1 5BT      0.080200
     23 H2'A        1.9140   -0.6210   -2.4650 hc        1 5BT      0.080200
     24 H3'         3.8530    0.3960   -1.6340 h1        1 5BT      0.081700
     25 HO3'        4.9030   -1.3930   -2.5070 ho        1 5BT      0.407000
     26 H4'         4.3930   -1.2880    0.8040 h1        1 5BT      0.099700
     27 H5'         4.9100    1.1960    0.5990 h1        1 5BT      0.065700
     28 H5'A        3.1090    1.5420    0.4400 h1        1 5BT      0.065700
     29 HO5'        2.9860    0.5050    2.5460 ho        1 5BT      0.408000
@<TRIPOS>BOND
     1    1    2 1   
     2    1    9 1   
     3    1   10 1   
     4    2    3 2   
     5    2    4 1   
     6    4    5 2   
     7    5    6 1   
     8    5    7 1   
     9    6   18 1   
    10    6   19 1   
    11    7    8 1   
    12    7    9 2   
    13    9   20 1   
    14   10   11 1   
    15   10   15 1   
    16   10   21 1   
    17   11   12 1   
    18   11   22 1   
    19   11   23 1   
    20   12   13 1   
    21   12   14 1   
    22   12   24 1   
    23   13   25 1   
    24   14   15 1   
    25   14   16 1   
    26   14   26 1   
    27   16   17 1   
    28   16   27 1   
    29   16   28 1   
    30   17   29 1   
@<TRIPOS>SUBSTRUCTURE
     1 5BT         1 TEMP              0 ****  ****    0 ROOT
