@<TRIPOS>MOLECULE
5BT
   29    29     1     0     0
SMALL
bcc


@<TRIPOS>ATOM
      1 N1          0.2060   -1.0430    0.1010 n         1 5BT     -0.284000
      2 C2          1.6690   -1.0430    0.1010 c2        1 5BT      0.365000
      3 O2          2.2750   -1.1090   -0.9490 o         1 5BT     -0.330000
      4 N3          2.4020   -1.0430    1.3690 n2        1 5BT     -0.301000
      5 C4          1.7080   -1.2390    2.5910 c1        1 5BT      0.264000
      6 N4          2.4380   -1.4560    3.8010 n3        1 5BT     -0.360000
      7 C5          0.2390   -1.3110    2.5950 c1        1 5BT     -0.396000
      8 BR5        -0.6950   -1.7020    4.2180 br        1 5BT      0.078000
      9 C6         -0.5030   -1.2000    1.3250 c2        1 5BT      0.100000
     10 C1'        -0.5090   -1.0460   -1.1470 c3        1 5BT      0.138000
     11 C2'        -1.8760   -0.2510   -1.0020 c3        1 5BT     -0.197000
     12 C3'        -1.6560    1.1110   -1.7680 c3        1 5BT      0.009000
     13 O3'        -2.3940    1.1020   -3.0500 oh        1 5BT     -0.309000
     14 C4'        -0.3890    1.1720   -1.9830 c3        1 5BT     -0.064000
     15 O4'         0.1530   -0.4110   -2.0410 os        1 5BT     -0.276000
     16 C5'         0.2830    1.9010   -0.8800 c3        1 5BT     -0.028000
     17 O5'         1.5480    2.3570   -1.3170 oh        1 5BT     -0.317000
     18 HN4         3.3490   -1.4860    3.7850 hn        1 5BT      0.247500
     19 HN4A        1.9930   -1.5430    4.5930 hn        1 5BT      0.247500
     20 H6         -1.4790   -1.2240    1.3250 h4        1 5BT      0.162000
     21 H1'        -0.6790   -1.9620   -1.4380 h2        1 5BT      0.180000
     22 H2'        -2.0700   -0.0810   -0.0600 hc        1 5BT      0.127000
     23 H2'A       -2.6050   -0.7550   -1.4110 hc        1 5BT      0.127000
     24 H3'        -1.9430    1.8620   -1.2140 h1        1 5BT      0.086000
     25 HO3'       -3.0880    1.6540   -2.9970 ho        1 5BT      0.209000
     26 H4'        -0.2150    1.6170   -2.8340 h1        1 5BT      0.133000
     27 H5'        -0.2640    2.6640   -0.6140 h1        1 5BT      0.086500
     28 H5'A        0.3980    1.3020   -0.1170 h1        1 5BT      0.086500
     29 HO5'        1.7030    3.1640   -0.9830 ho        1 5BT      0.218000
@<TRIPOS>BOND
     1    1    2 1   
     2    1    9 1   
     3    1   10 1   
     4    2    3 1   
     5    2    4 1   
     6    4    5 1   
     7    5    6 1   
     8    6   18 1   
     9    6   19 1   
    10    7    8 1   
    11    7    9 1   
    12    9   20 1   
    13   10   11 1   
    14   10   15 1   
    15   10   21 1   
    16   11   12 1   
    17   11   22 1   
    18   11   23 1   
    19   12   13 1   
    20   12   14 1   
    21   12   24 1   
    22   13   25 1   
    23   14   15 1   
    24   14   16 1   
    25   14   26 1   
    26   16   17 1   
    27   16   27 1   
    28   16   28 1   
    29   17   29 1   
@<TRIPOS>SUBSTRUCTURE
     1 5BT         1 TEMP              0 ****  ****    0 ROOT
