@<TRIPOS>MOLECULE
5BT
   30    31     1     0     0
SMALL
bcc


@<TRIPOS>ATOM
      1 N1         -0.2730    0.4010   -0.2900 n         1 5BT     -0.340000
      2 C2          1.1520    0.6010   -0.4200 c         1 5BT      0.845900
      3 O2          1.6480    1.1120   -1.4300 o         1 5BT     -0.522500
      4 N3          2.0030    0.2140    0.6610 nc        1 5BT     -0.616100
      5 C4          1.4630   -0.3400    1.7220 cd        1 5BT      0.631500
      6 N4          2.3860   -0.7700    2.8060 n4        1 5BT     -0.802600
      7 C5          0.0530   -0.5700    1.9070 cd        1 5BT     -0.387900
      8 BR5        -0.6610   -1.3240    3.4360 br        1 5BT      0.019300
      9 C6         -0.7560   -0.2000    0.8320 cc        1 5BT      0.162600
     10 C1'        -1.2200    0.5950   -1.4220 c3        1 5BT      0.296500
     11 C2'        -0.8470    1.6710   -2.4550 c3        1 5BT     -0.142400
     12 C3'        -0.3410    0.8890   -3.6810 c3        1 5BT      0.129100
     13 O3'        -1.0970    1.2030   -4.8330 oh        1 5BT     -0.582800
     14 C4'        -0.6120   -0.5970   -3.3580 c3        1 5BT      0.086100
     15 O4'        -1.3600   -0.6330   -2.1260 os        1 5BT     -0.404600
     16 C5'         0.6690   -1.4180   -3.1840 c3        1 5BT      0.105400
     17 O5'         0.6200   -2.1930   -2.0020 oh        1 5BT     -0.610800
     18 HN4         2.2810   -1.7850    2.9380 hn        1 5BT      0.482800
     19 HN4A        2.1270   -0.2830    3.6730 hn        1 5BT      0.482800
     20 H6         -1.8540   -0.3880    0.8730 h4        1 5BT      0.209000
     21 H1'        -2.2320    0.7970   -0.9550 h2        1 5BT      0.106700
     22 H2'        -1.7780    2.2350   -2.7210 hc        1 5BT      0.096200
     23 H2'A       -0.0860    2.4000   -2.0890 hc        1 5BT      0.096200
     24 H3'         0.7520    1.0810   -3.8520 h1        1 5BT      0.079700
     25 HO3'       -0.7640    2.0420   -5.1750 ho        1 5BT      0.421000
     26 H4'        -1.2980   -1.0580   -4.1210 h1        1 5BT      0.118700
     27 H5'         1.5710   -0.7590   -3.0470 h1        1 5BT      0.070700
     28 H5'A        0.8190   -2.0750   -4.0810 h1        1 5BT      0.070700
     29 HO5'       -0.1550   -2.7660   -2.0670 ho        1 5BT      0.415000
     30 H43         3.3660   -0.5550    2.5690 hn        1 5BT      0.482800
@<TRIPOS>BOND
     1    1    2 1   
     2    1    9 1   
     3    1   10 1   
     4    2    3 2   
     5    2    4 1   
     6    4    5 2   
     7    5    6 1   
     8    5    7 1   
     9    6   18 1   
    10    6   19 1   
    11    6   30 1   
    12    7    8 1   
    13    7    9 2   
    14    9   20 1   
    15   10   11 1   
    16   10   15 1   
    17   10   21 1   
    18   11   12 1   
    19   11   22 1   
    20   11   23 1   
    21   12   13 1   
    22   12   14 1   
    23   12   24 1   
    24   13   25 1   
    25   14   15 1   
    26   14   16 1   
    27   14   26 1   
    28   16   17 1   
    29   16   27 1   
    30   16   28 1   
    31   17   29 1   
@<TRIPOS>SUBSTRUCTURE
     1 5BT         1 TEMP              0 ****  ****    0 ROOT
