@<TRIPOS>MOLECULE
5BT
   30    31     1     0     0
SMALL
bcc


@<TRIPOS>ATOM
      1 N1         -0.2560    0.4330   -0.3010 n         1 5BT     -0.340000
      2 C2          1.1730    0.5900   -0.4410 c         1 5BT      0.845900
      3 O2          1.6790    1.0620   -1.4650 o         1 5BT     -0.522500
      4 N3          2.0180    0.2070    0.6460 nc        1 5BT     -0.616100
      5 C4          1.4670   -0.3040    1.7230 cd        1 5BT      0.631500
      6 N4          2.3820   -0.7330    2.8150 nz        1 5BT     -0.802600
      7 C5          0.0530   -0.4920    1.9190 cd        1 5BT     -0.387900
      8 Br5        -0.6760   -1.1870    3.4680 br        1 5BT      0.019300
      9 C6         -0.7510   -0.1270    0.8380 cc        1 5BT      0.162600
     10 C1'        -1.2030    0.6240   -1.4340 c3        1 5BT      0.296500
     11 C2'        -0.8040    1.6620   -2.4950 c3        1 5BT     -0.142400
     12 C3'        -0.3250    0.8370   -3.7030 c3        1 5BT      0.129100
     13 O3'        -1.0770    1.1420   -4.8600 oh        1 5BT     -0.582800
     14 C4'        -0.6350   -0.6330   -3.3410 c3        1 5BT      0.086100
     15 O4'        -1.3790   -0.6180   -2.1070 os        1 5BT     -0.404600
     16 C5'         0.6240   -1.4840   -3.1510 c3        1 5BT      0.105400
     17 O5'         0.5580   -2.2270   -1.9500 oh        1 5BT     -0.610800
     18 HN4         2.1400   -0.2160    3.6700 hn        1 5BT      0.482800
     19 HN4A        3.3670   -0.5500    2.5700 hn        1 5BT      0.482800
     20 H6         -1.8530   -0.2840    0.8870 h4        1 5BT      0.209000
     21 H1'        -2.2060    0.8650   -0.9690 h2        1 5BT      0.106700
     22 H2'        -1.7210    2.2450   -2.7720 hc        1 5BT      0.096200
     23 H2'A       -0.0220    2.3800   -2.1510 hc        1 5BT      0.096200
     24 H3'         0.7720    0.9950   -3.8820 h1        1 5BT      0.079700
     25 HO3'       -0.7230    1.9630   -5.2240 ho        1 5BT      0.421000
     26 H4'        -1.3370   -1.0930   -4.0900 h1        1 5BT      0.118700
     27 H5'         1.5440   -0.8470   -3.0330 h1        1 5BT      0.070700
     28 H5'A        0.7520   -2.1670   -4.0320 h1        1 5BT      0.070700
     29 HO5'       -0.2320   -2.7810   -1.9990 ho        1 5BT      0.415000
     30 H43         2.2510   -1.7400    2.9720 hn        1 5BT      0.482800
@<TRIPOS>BOND
     1    1    2 1   
     2    1    9 1   
     3    1   10 1   
     4    2    3 2   
     5    2    4 1   
     6    4    5 2   
     7    5    6 1   
     8    5    7 1   
     9    6   18 1   
    10    6   19 1   
    11    6   30 1   
    12    7    8 1   
    13    7    9 2   
    14    9   20 1   
    15   10   11 1   
    16   10   15 1   
    17   10   21 1   
    18   11   12 1   
    19   11   22 1   
    20   11   23 1   
    21   12   13 1   
    22   12   14 1   
    23   12   24 1   
    24   13   25 1   
    25   14   15 1   
    26   14   16 1   
    27   14   26 1   
    28   16   17 1   
    29   16   27 1   
    30   16   28 1   
    31   17   29 1   
@<TRIPOS>SUBSTRUCTURE
     1 5BT         1 TEMP              0 ****  ****    0 ROOT
