@<TRIPOS>MOLECULE
5BU
   32    32     1     0     0
SMALL
bcc


@<TRIPOS>ATOM
      1 P           0.2740    2.3610    3.3090 p4        1 5BU      1.712200
      2 OP1         0.2600    2.2770    4.8190 o         1 5BU     -0.839500
      3 OP2        -0.5330    3.5570    2.8670 os        1 5BU     -0.825000
      4 OP3         1.7090    2.5070    2.8200 o         1 5BU     -0.888300
      5 O5'        -0.3650    1.0280    2.6910 os        1 5BU     -0.599200
      6 C5'        -0.2870    0.8340    1.2920 c3        1 5BU      0.175400
      7 C4'        -1.6350    0.3150    0.7690 c3        1 5BU      0.050100
      8 O4'        -1.7020    0.4650   -0.8120 os        1 5BU     -0.441600
      9 C3'        -1.7510   -0.9480    1.0200 c3        1 5BU      0.279100
     10 O3'        -3.1830   -1.3020    1.2390 oh        1 5BU     -0.986800
     11 C2'        -1.2070   -1.6610   -0.2470 c3        1 5BU      0.035100
     12 O2'        -2.0800   -2.6170   -0.6650 oh        1 5BU     -0.644800
     13 C1'        -1.0700   -0.5690   -1.3040 c3        1 5BU      0.280500
     14 N1          0.3260   -0.2520   -1.5170 n         1 5BU     -0.345000
     15 C2          0.7120    1.0880   -2.0020 c         1 5BU      0.801500
     16 O2         -0.0810    2.0010   -1.9500 o         1 5BU     -0.672500
     17 N3          2.0720    1.3300   -2.4810 n         1 5BU     -0.598500
     18 C4          3.0350    0.2790   -2.4550 c         1 5BU      0.734700
     19 O4          4.1880    0.4940   -2.8320 o         1 5BU     -0.673500
     20 C5          2.6920   -1.0140   -1.8420 cc        1 5BU     -0.314500
     21 C6          1.3070   -1.2640   -1.3820 cd        1 5BU      0.132600
     22 BR          3.9860   -2.4140   -1.7810 br        1 5BU     -0.028700
     23 H5'         0.4100    0.1840    1.0930 h1        1 5BU      0.021200
     24 H5''       -0.0710    1.6990    0.8480 h1        1 5BU      0.021200
     25 H4'        -2.3830    0.8180    1.1910 h1        1 5BU      0.050700
     26 H3'        -1.2170   -1.1900    1.8010 h1        1 5BU     -0.034300
     27 HO3'       -3.2730   -1.7400    2.0490 ho        1 5BU      0.435000
     28 H2'        -0.3100   -2.0710   -0.0550 h1        1 5BU      0.042700
     29 HO2'       -1.7190   -3.3870   -0.5810 ho        1 5BU      0.437000
     30 H1'        -1.4900   -0.8570   -2.1480 h2        1 5BU      0.093700
     31 H3          2.3190    2.1950   -2.7940 hn        1 5BU      0.327500
     32 H6          1.0650   -2.1480   -0.9620 h4        1 5BU      0.259000
@<TRIPOS>BOND
     1    1    2 1   
     2    1    4 2   
     3    1    5 1   
     4    5    6 1   
     5    6    7 1   
     6    6   23 1   
     7    6   24 1   
     8    7    8 1   
     9    7    9 1   
    10    7   25 1   
    11    8   13 1   
    12    9   10 1   
    13    9   11 1   
    14    9   26 1   
    15   10   27 1   
    16   11   12 1   
    17   11   13 1   
    18   11   28 1   
    19   12   29 1   
    20   13   14 1   
    21   13   30 1   
    22   14   15 1   
    23   14   21 1   
    24   15   16 2   
    25   15   17 1   
    26   17   18 1   
    27   17   31 1   
    28   18   19 2   
    29   18   20 1   
    30   20   21 2   
    31   20   22 1   
    32   21   32 1   
@<TRIPOS>SUBSTRUCTURE
     1 5BU         1 TEMP              0 ****  ****    0 ROOT
