@<TRIPOS>MOLECULE
5BU
   32    33     1     0     0
SMALL
bcc


@<TRIPOS>ATOM
      1 P           3.9820   -0.7260   -3.8800 p5        1 5BU      1.426800
      2 OP1         5.3770   -1.1640   -4.0980 o         1 5BU     -0.839500
      3 OP2         3.6790    0.1930   -5.2020 oh        1 5BU     -0.783400
      4 OP3         2.8090   -1.5730   -3.5880 o         1 5BU     -0.839500
      5 O5'         4.0100    0.4980   -2.7720 os        1 5BU     -0.580200
      6 C5'         2.7800    0.9760   -2.3220 c3        1 5BU      0.186400
      7 C4'         2.6720    0.7980   -0.8000 c3        1 5BU      0.080100
      8 O4'         2.0240    1.9710   -0.2610 os        1 5BU     -0.419600
      9 C3'         1.8630   -0.4530   -0.3840 c3        1 5BU      0.105100
     10 O3'         2.5260   -1.1800    0.6320 oh        1 5BU     -0.589800
     11 C2'         0.5210    0.1380    0.0860 c3        1 5BU      0.103100
     12 O2'        -0.0220   -0.6070    1.1510 oh        1 5BU     -0.616800
     13 C1'         0.9210    1.5680    0.5760 c3        1 5BU      0.296500
     14 N1         -0.1850    2.5060    0.5590 n         1 5BU     -0.326400
     15 C2          0.0590    3.8890    0.7580 c         1 5BU      0.731100
     16 O2          1.1890    4.3870    0.9920 o         1 5BU     -0.665100
     17 N3         -1.0580    4.7430    0.7350 n         1 5BU     -0.600500
     18 C4         -2.3920    4.2810    0.6250 c         1 5BU      0.692300
     19 O4         -3.2790    5.1700    0.6350 o         1 5BU     -0.694100
     20 C5         -2.5440    2.8460    0.5310 ce        1 5BU     -0.428600
     21 C6         -1.4540    1.9900    0.4900 c1        1 5BU     -0.080900
     22 BR         -4.2470    2.0910    0.4570 br        1 5BU     -0.135700
     23 H5'         2.7260    2.0810   -2.5440 h1        1 5BU      0.041700
     24 H5''        1.9360    0.4460   -2.8420 h1        1 5BU      0.041700
     25 H4'         3.7000    0.7680   -0.3470 h1        1 5BU      0.071700
     26 H3'         1.7520   -1.1790   -1.2370 h1        1 5BU      0.138700
     27 HO3'        2.3770   -0.7090    1.4600 ho        1 5BU      0.391000
     28 H2'        -0.2030    0.1950   -0.7710 h1        1 5BU      0.089700
     29 HO2'       -0.8910   -0.2000    1.3130 ho        1 5BU      0.439000
     30 H1'         1.3230    1.5230    1.6340 h2        1 5BU      0.036700
     31 H3         -0.8880    5.7160    0.8280 hn        1 5BU      0.308500
     32 H6          4.4840    0.4870   -5.6110 ho        1 5BU      0.418000
@<TRIPOS>BOND
     1    1    2 1   
     2    1    3 1   
     3    1    4 1   
     4    1    5 1   
     5    3   32 1   
     6    5    6 1   
     7    6    7 1   
     8    6   23 1   
     9    6   24 1   
    10    7    8 1   
    11    7    9 1   
    12    7   25 1   
    13    8   13 1   
    14    9   10 1   
    15    9   11 1   
    16    9   26 1   
    17   10   27 1   
    18   11   12 1   
    19   11   13 1   
    20   11   28 1   
    21   12   29 1   
    22   13   14 1   
    23   13   30 1   
    24   14   15 1   
    25   14   21 2   
    26   15   16 2   
    27   15   17 1   
    28   17   18 1   
    29   17   31 1   
    30   18   19 2   
    31   18   20 1   
    32   20   21 2   
    33   20   22 1   
@<TRIPOS>SUBSTRUCTURE
     1 5BU         1 TEMP              0 ****  ****    0 ROOT
