@<TRIPOS>MOLECULE
5BW
   43    46     1     0     0
SMALL
bcc


@<TRIPOS>ATOM
      1 CAW        -0.1370    1.4080    0.0100 c2        1 5BW     -0.164000
      2 CAV         0.6360    2.5080    0.3790 c2        1 5BW     -0.083000
      3 CAU         0.8020    2.8080    1.7290 c2        1 5BW     -0.187000
      4 CAT         0.1780    1.9730    2.6730 c2        1 5BW     -0.048000
      5 NAS        -0.5660    0.9040    2.3550 n2        1 5BW     -0.191000
      6 CAR        -0.7420    0.6170    1.0280 c2        1 5BW      0.055000
      7 NAO        -1.5830   -0.4610    0.5990 nh        1 5BW     -0.200000
      8 CAN        -2.6290   -0.9510    1.5280 c3        1 5BW     -0.101000
      9 CAM        -2.4350   -2.5090    1.5690 c3        1 5BW     -0.074000
     10 CAX        -1.9980   -2.7480    0.0900 c3        1 5BW     -0.177000
     11 CAP        -0.8460   -1.6880    0.1920 c3        1 5BW     -0.039000
     12 CAQ        -0.0690   -2.3030    1.4070 c3        1 5BW     -0.226000
     13 NAL        -1.1550   -2.7980    2.3520 n4        1 5BW      0.059000
     14 CAK        -1.1680   -4.1500    2.8580 c1        1 5BW     -0.248000
     15 CAH        -0.5120   -5.1910    2.3250 c2        1 5BW     -0.367000
     16 CAG        -0.5860   -6.5130    2.9530 c2        1 5BW      0.351000
     17 OAI        -0.6100   -6.6910    4.1820 o         1 5BW     -0.333000
     18 CAE        -0.5900   -7.6660    2.0180 ca        1 5BW     -0.229000
     19 CAF        -1.0610   -7.4910    0.7080 ca        1 5BW     -0.057000
     20 CAA        -1.0780   -8.5420   -0.1990 ca        1 5BW     -0.191000
     21 CAB        -0.6160   -9.8050    0.1870 ca        1 5BW     -0.078000
     22 CAC        -0.1540  -10.0150    1.4760 ca        1 5BW     -0.181000
     23 CAD        -0.1510   -8.9480    2.4020 ca        1 5BW      0.146000
     24 OAJ         0.3200   -9.2760    3.6440 oh        1 5BW     -0.263000
     25 H1         -0.2880    1.1610   -1.0500 ha        1 5BW      0.154000
     26 H2          1.1060    3.1330   -0.3960 ha        1 5BW      0.144000
     27 H3          1.3990    3.6690    2.0550 ha        1 5BW      0.150000
     28 H4          0.2820    2.1680    3.7570 h4        1 5BW      0.164000
     29 H5         -3.6210   -0.7220    1.0540 h1        1 5BW      0.122000
     30 H6         -2.6130   -0.4970    2.5500 h1        1 5BW      0.122000
     31 H7         -3.2950   -3.0910    1.9640 hx        1 5BW      0.176000
     32 H8         -2.7960   -2.4850   -0.6370 hc        1 5BW      0.124500
     33 H9         -1.6200   -3.7740   -0.1130 hc        1 5BW      0.124500
     34 H10        -0.2240   -1.5190   -0.7100 h1        1 5BW      0.144000
     35 H11         0.5900   -1.5600    1.9210 hx        1 5BW      0.129500
     36 H12         0.5550   -3.1680    1.0670 hx        1 5BW      0.129500
     37 H13        -1.1470   -2.2230    3.2000 hn        1 5BW      0.249000
     38 H14         0.1160   -5.1620    1.4170 ha        1 5BW      0.093000
     39 H15        -1.4330   -6.5010    0.4000 ha        1 5BW      0.132000
     40 H16        -1.4560   -8.3860   -1.2200 ha        1 5BW      0.130000
     41 H17        -0.6240  -10.6360   -0.5340 ha        1 5BW      0.131000
     42 H18         0.2080  -11.0010    1.8030 ha        1 5BW      0.150000
     43 H19         0.1980   -8.5270    4.2520 ho        1 5BW      0.258000
@<TRIPOS>BOND
     1    1    2 1   
     2    1    6 1   
     3    1   25 1   
     4    2    3 1   
     5    2   26 1   
     6    3    4 1   
     7    3   27 1   
     8    4    5 1   
     9    4   28 1   
    10    5    6 1   
    11    6    7 1   
    12    7    8 1   
    13    7   11 1   
    14    8    9 1   
    15    8   29 1   
    16    8   30 1   
    17    9   10 1   
    18    9   13 1   
    19    9   31 1   
    20   10   11 1   
    21   10   32 1   
    22   10   33 1   
    23   11   12 1   
    24   11   34 1   
    25   12   13 1   
    26   12   35 1   
    27   12   36 1   
    28   13   14 1   
    29   13   37 1   
    30   14   15 1   
    31   15   16 1   
    32   15   38 1   
    33   16   17 1   
    34   16   18 1   
    35   18   19 1   
    36   18   23 1   
    37   19   20 1   
    38   19   39 1   
    39   20   21 1   
    40   20   40 1   
    41   21   22 1   
    42   21   41 1   
    43   22   23 1   
    44   22   42 1   
    45   23   24 1   
    46   24   43 1   
@<TRIPOS>SUBSTRUCTURE
     1 5BW         1 TEMP              0 ****  ****    0 ROOT
