@<TRIPOS>MOLECULE
5BW
   43    46     1     0     0
SMALL
bcc


@<TRIPOS>ATOM
      1 CAW        -0.6670    1.5570    0.2210 c2        1 5BW     -0.160000
      2 CAV         0.4440    2.2930   -0.1870 c2        1 5BW     -0.085000
      3 CAU         1.7160    1.9040    0.2300 c2        1 5BW     -0.186000
      4 CAT         1.8230    0.7660    1.0500 c2        1 5BW     -0.049000
      5 NAS         0.7780    0.0310    1.4540 n2        1 5BW     -0.193000
      6 CAR        -0.4730    0.4210    1.0570 c2        1 5BW      0.052000
      7 NAO        -1.6510   -0.2650    1.5030 nh        1 5BW     -0.200000
      8 CAN        -1.5840   -1.0060    2.7860 c3        1 5BW     -0.096000
      9 CAM        -2.1240   -2.4400    2.4470 c3        1 5BW     -0.162000
     10 CAX        -3.2180   -2.0530    1.4050 c3        1 5BW     -0.170000
     11 CAP        -2.1880   -1.2560    0.5310 c3        1 5BW     -0.047000
     12 CAQ        -1.1590   -2.4130    0.2680 c3        1 5BW     -0.135000
     13 NAL        -1.0700   -3.1520    1.5930 nx        1 5BW      0.071000
     14 CAK        -1.1340   -4.5780    1.3950 c1        1 5BW     -0.310000
     15 CAH        -2.1870   -5.3430    1.7100 c2        1 5BW     -0.340000
     16 CAG        -2.1990   -6.7930    1.4750 c2        1 5BW      0.348000
     17 OAI        -3.2540   -7.3790    1.1900 o         1 5BW     -0.311000
     18 CAE        -0.9210   -7.5330    1.6110 ca        1 5BW     -0.147000
     19 CAF         0.2210   -7.1190    0.9190 ca        1 5BW     -0.048000
     20 CAA         1.4110   -7.8410    1.0080 ca        1 5BW     -0.186000
     21 CAB         1.4800   -8.9850    1.8010 ca        1 5BW     -0.082000
     22 CAC         0.3640   -9.4090    2.5170 ca        1 5BW     -0.233000
     23 CAD        -0.8340   -8.6820    2.4220 ca        1 5BW      0.112000
     24 OAJ        -1.9530   -9.0380    3.1380 oh        1 5BW     -0.238000
     25 H1         -1.6790    1.8530   -0.0890 ha        1 5BW      0.156000
     26 H2          0.3120    3.1770   -0.8290 ha        1 5BW      0.145000
     27 H3          2.6120    2.4630   -0.0670 ha        1 5BW      0.150000
     28 H4          2.8110    0.4150    1.4040 h4        1 5BW      0.164000
     29 H5         -2.2960   -0.5010    3.4920 h1        1 5BW      0.117500
     30 H6         -0.5740   -1.0390    3.2650 h1        1 5BW      0.117500
     31 H7         -2.4330   -3.0520    3.3180 hx        1 5BW      0.160000
     32 H8         -4.0240   -1.4250    1.8430 hc        1 5BW      0.126000
     33 H9         -3.6620   -2.9190    0.8670 hc        1 5BW      0.126000
     34 H10        -2.5640   -0.7710   -0.3920 h1        1 5BW      0.147000
     35 H11        -0.1470   -2.0460   -0.0340 hx        1 5BW      0.137500
     36 H12        -1.5510   -3.1080   -0.5200 hx        1 5BW      0.137500
     37 H13        -0.1480   -2.9890    2.0090 hn        1 5BW      0.243000
     38 H14        -3.1380   -4.9670    2.1290 ha        1 5BW      0.101000
     39 H15         0.1720   -6.1960    0.3140 ha        1 5BW      0.169000
     40 H16         2.2960   -7.5050    0.4500 ha        1 5BW      0.129000
     41 H17         2.4180   -9.5560    1.8680 ha        1 5BW      0.127000
     42 H18         0.4130  -10.3060    3.1490 ha        1 5BW      0.129000
     43 H19        -1.7770   -9.8930    3.5580 ho        1 5BW      0.214000
@<TRIPOS>BOND
     1    1    2 1   
     2    1    6 1   
     3    1   25 1   
     4    2    3 1   
     5    2   26 1   
     6    3    4 1   
     7    3   27 1   
     8    4    5 1   
     9    4   28 1   
    10    5    6 1   
    11    6    7 1   
    12    7    8 1   
    13    7   11 1   
    14    8    9 1   
    15    8   29 1   
    16    8   30 1   
    17    9   10 1   
    18    9   13 1   
    19    9   31 1   
    20   10   11 1   
    21   10   32 1   
    22   10   33 1   
    23   11   12 1   
    24   11   34 1   
    25   12   13 1   
    26   12   35 1   
    27   12   36 1   
    28   13   14 1   
    29   13   37 1   
    30   14   15 1   
    31   15   16 1   
    32   15   38 1   
    33   16   17 1   
    34   16   18 1   
    35   18   19 1   
    36   18   23 1   
    37   19   20 1   
    38   19   39 1   
    39   20   21 1   
    40   20   40 1   
    41   21   22 1   
    42   21   41 1   
    43   22   23 1   
    44   22   42 1   
    45   23   24 1   
    46   24   43 1   
@<TRIPOS>SUBSTRUCTURE
     1 5BW         1 TEMP              0 ****  ****    0 ROOT
