@<TRIPOS>MOLECULE
5BX
   35    37     1     0     0
SMALL
bcc


@<TRIPOS>ATOM
      1 C01         0.2230   -0.3550    0.2110 c3        1 5BX      0.089100
      2 N02         1.5920   -0.8690    0.4870 n4        1 5BX     -0.696000
      3 C03         2.1750   -0.2850    1.6990 c2        1 5BX      0.649500
      4 N04         1.6010   -0.0440    2.8510 ne        1 5BX     -0.582100
      5 C05         2.6640    0.5190    3.7000 c         1 5BX      0.655500
      6 O06         2.5060    0.8690    4.8560 o         1 5BX     -0.384100
      7 C07         3.9600    0.5560    2.8580 c3        1 5BX      0.042100
      8 O08         3.5330    0.0240    1.5550 os        1 5BX     -0.417400
      9 C09         4.5610    1.9560    2.7250 c3        1 5BX      0.027500
     10 C10         3.6800    2.8840    1.9160 c3        1 5BX     -0.102100
     11 C11         5.9350    1.8720    2.2040 cc        1 5BX     -0.195400
     12 C12         6.4250    2.3740    0.9950 cd        1 5BX     -0.069100
     13 N13         7.7820    2.0980    0.8760 na        1 5BX     -0.177400
     14 C14         8.2030    1.4320    2.0340 ca        1 5BX     -0.046200
     15 C15         9.4690    0.9540    2.4080 ca        1 5BX     -0.128000
     16 C16         9.5800    0.3230    3.6360 ca        1 5BX     -0.105000
     17 C17         8.4700    0.1650    4.4880 ca        1 5BX     -0.133000
     18 C18         7.2150    0.6300    4.1310 ca        1 5BX     -0.109000
     19 C19         7.0560    1.2670    2.8970 ca        1 5BX     -0.092800
     20 H011       -0.4630   -0.6240    1.0620 hx        1 5BX      0.123700
     21 H013       -0.1410   -0.8280   -0.7420 hx        1 5BX      0.123700
     22 H012        0.2580    0.7630    0.1000 hx        1 5BX      0.123700
     23 H021        1.5650   -1.8930    0.6160 hn        1 5BX      0.485800
     24 H071        4.7240   -0.1760    3.2440 h1        1 5BX      0.147700
     25 H091        4.6140    2.3470    3.7900 hc        1 5BX      0.101700
     26 H103        4.1370    3.9040    1.8870 hc        1 5BX      0.048033
     27 H101        2.6680    2.9630    2.3820 hc        1 5BX      0.048033
     28 H102        3.5700    2.5160    0.8680 hc        1 5BX      0.048033
     29 H121        5.8950    2.9180    0.2090 h4        1 5BX      0.168000
     30 H131        8.3780    2.4230    0.1600 hn        1 5BX      0.310700
     31 H151       10.3400    1.0810    1.7510 ha        1 5BX      0.145000
     32 H161       10.5600   -0.0600    3.9610 ha        1 5BX      0.146000
     33 H171        8.6130   -0.3340    5.4600 ha        1 5BX      0.142000
     34 H181        6.3600    0.5190    4.8120 ha        1 5BX      0.126000
     35 H022        2.2260   -0.6500   -0.2990 hn        1 5BX      0.485800
@<TRIPOS>BOND
     1    1    2 1   
     2    1   20 1   
     3    1   21 1   
     4    1   22 1   
     5    2    3 1   
     6    2   23 1   
     7    2   35 1   
     8    3    4 2   
     9    3    8 1   
    10    4    5 1   
    11    5    6 2   
    12    5    7 1   
    13    7    8 1   
    14    7    9 1   
    15    7   24 1   
    16    9   10 1   
    17    9   11 1   
    18    9   25 1   
    19   10   26 1   
    20   10   27 1   
    21   10   28 1   
    22   11   12 2   
    23   11   19 1   
    24   12   13 1   
    25   12   29 1   
    26   13   14 1   
    27   13   30 1   
    28   14   15 ar  
    29   14   19 ar  
    30   15   16 ar  
    31   15   31 1   
    32   16   17 ar  
    33   16   32 1   
    34   17   18 ar  
    35   17   33 1   
    36   18   19 ar  
    37   18   34 1   
@<TRIPOS>SUBSTRUCTURE
     1 5BX         1 TEMP              0 ****  ****    0 ROOT
