@<TRIPOS>MOLECULE
5BX
   35    37     1     0     0
SMALL
bcc


@<TRIPOS>ATOM
      1 C01         0.2200   -0.3470    0.2150 c3        1 5BX      0.089100
      2 N02         1.5900   -0.8600    0.4830 ny        1 5BX     -0.696000
      3 C03         2.1760   -0.2840    1.6980 c2        1 5BX      0.649500
      4 N04         1.6060   -0.0550    2.8530 ne        1 5BX     -0.582100
      5 C05         2.6700    0.5040    3.7030 c         1 5BX      0.655500
      6 O06         2.5150    0.8450    4.8630 o         1 5BX     -0.384100
      7 C07         3.9630    0.5510    2.8580 c3        1 5BX      0.042100
      8 O08         3.5330    0.0280    1.5520 os        1 5BX     -0.417400
      9 C09         4.5610    1.9530    2.7340 c3        1 5BX      0.027500
     10 C10         3.6750    2.8860    1.9360 c3        1 5BX     -0.102100
     11 C11         5.9330    1.8760    2.2080 cc        1 5BX     -0.195400
     12 C12         6.4180    2.3900    1.0020 cd        1 5BX     -0.069100
     13 N13         7.7760    2.1170    0.8770 na        1 5BX     -0.177400
     14 C14         8.2010    1.4430    2.0280 ca        1 5BX     -0.046200
     15 C15         9.4700    0.9640    2.3940 ca        1 5BX     -0.128000
     16 C16         9.5860    0.3230    3.6170 ca        1 5BX     -0.105000
     17 C17         8.4790    0.1560    4.4710 ca        1 5BX     -0.133000
     18 C18         7.2210    0.6220    4.1210 ca        1 5BX     -0.109000
     19 C19         7.0570    1.2680    2.8930 ca        1 5BX     -0.092800
     20 H011        0.2520    0.7720    0.1130 hx        1 5BX      0.123700
     21 H013       -0.1460   -0.8130   -0.7410 hx        1 5BX      0.123700
     22 H012       -0.4630   -0.6240    1.0660 hx        1 5BX      0.123700
     23 H021        2.2220   -0.6330   -0.3040 hn        1 5BX      0.485800
     24 H071        4.7300   -0.1820    3.2360 h1        1 5BX      0.147700
     25 H091        4.6160    2.3360    3.8020 hc        1 5BX      0.101700
     26 H103        2.6640    2.9600    2.4050 hc        1 5BX      0.048033
     27 H101        4.1300    3.9070    1.9130 hc        1 5BX      0.048033
     28 H102        3.5620    2.5270    0.8850 hc        1 5BX      0.048033
     29 H121        5.8850    2.9380    0.2220 h4        1 5BX      0.168000
     30 H131        8.3680    2.4490    0.1610 hn        1 5BX      0.310700
     31 H151       10.3390    1.0990    1.7360 ha        1 5BX      0.145000
     32 H161       10.5680   -0.0600    3.9360 ha        1 5BX      0.146000
     33 H171        8.6260   -0.3490    5.4380 ha        1 5BX      0.142000
     34 H181        6.3690    0.5030    4.8040 ha        1 5BX      0.126000
     35 H022        1.5660   -1.8850    0.6040 hn        1 5BX      0.485800
@<TRIPOS>BOND
     1    1    2 1   
     2    1   20 1   
     3    1   21 1   
     4    1   22 1   
     5    2    3 1   
     6    2   23 1   
     7    2   35 1   
     8    3    4 2   
     9    3    8 1   
    10    4    5 1   
    11    5    6 2   
    12    5    7 1   
    13    7    8 1   
    14    7    9 1   
    15    7   24 1   
    16    9   10 1   
    17    9   11 1   
    18    9   25 1   
    19   10   26 1   
    20   10   27 1   
    21   10   28 1   
    22   11   12 2   
    23   11   19 1   
    24   12   13 1   
    25   12   29 1   
    26   13   14 1   
    27   13   30 1   
    28   14   15 ar  
    29   14   19 ar  
    30   15   16 ar  
    31   15   31 1   
    32   16   17 ar  
    33   16   32 1   
    34   17   18 ar  
    35   17   33 1   
    36   18   19 ar  
    37   18   34 1   
@<TRIPOS>SUBSTRUCTURE
     1 5BX         1 TEMP              0 ****  ****    0 ROOT
