@<TRIPOS>MOLECULE
5BZ
   59    59     1     0     0
SMALL
bcc


@<TRIPOS>ATOM
      1 C7         -0.3720    1.3210    0.7390 c         1 5BZ      0.574100
      2 C10         1.5550   -0.0470    1.6830 c3        1 5BZ      0.060500
      3 C13         0.4060   -2.4530    3.5620 ca        1 5BZ     -0.131500
      4 C15        -1.2490   -4.0900    2.9090 ca        1 5BZ     -0.079000
      5 C17         0.2480   -3.1630    1.2520 ca        1 5BZ     -0.131500
      6 C21         5.1340    1.0380    2.0860 c3        1 5BZ      0.135500
      7 C22         6.0120    1.8790    3.0110 c3        1 5BZ     -0.119400
      8 C24         6.8100    4.0880    3.7810 c3        1 5BZ     -0.105100
      9 C8          5.5190   -0.4630    2.2420 c3        1 5BZ      0.321900
     10 O27         4.9740   -0.9310    3.4530 oh        1 5BZ     -0.659300
     11 O28         4.8100   -1.1760    1.2550 oh        1 5BZ     -0.659300
     12 C23         5.7400    3.3760    2.9720 c3        1 5BZ     -0.076700
     13 C25         5.7080    3.9200    1.5600 c3        1 5BZ     -0.105100
     14 N20         3.6610    1.2480    2.3800 ny        1 5BZ     -0.652800
     15 C18         2.7680    0.7960    1.2750 c         1 5BZ      0.544100
     16 O19         3.0350    1.1190    0.1260 o         1 5BZ     -0.396100
     17 C11         2.0110   -1.5100    1.8890 c3        1 5BZ     -0.044100
     18 C12         0.8550   -2.3730    2.2390 ca        1 5BZ     -0.189300
     19 C14        -0.6450   -3.3070    3.8940 ca        1 5BZ     -0.106500
     20 C16        -0.8010   -4.0170    1.5880 ca        1 5BZ     -0.106500
     21 N9          0.4680    0.0460    0.6550 ny        1 5BZ     -0.694800
     22 O8          0.0750    2.1800    1.4810 o         1 5BZ     -0.438100
     23 C2         -1.6230    1.3470   -0.0800 c3        1 5BZ     -0.163400
     24 C3         -1.6010    0.4870   -1.3240 c3        1 5BZ     -0.100400
     25 C31        -2.8490    0.7600   -2.1610 c3        1 5BZ      0.020700
     26 C32        -2.8780   -0.0670   -3.3270 c1        1 5BZ     -0.214100
     27 C33        -2.9460   -0.7350   -4.3180 c1        1 5BZ     -0.059500
     28 H1          1.1160    0.3410    2.6560 hx        1 5BZ      0.143700
     29 H2          0.8950   -1.8600    4.3510 ha        1 5BZ      0.135000
     30 H3         -2.0710   -4.7770    3.1750 ha        1 5BZ      0.174000
     31 H4          0.6300   -3.1540    0.2190 ha        1 5BZ      0.135000
     32 H5          5.3010    1.3350    1.0050 hx        1 5BZ      0.144700
     33 H6          7.0760    1.7010    2.6830 hc        1 5BZ      0.098700
     34 H7          5.9210    1.5040    4.0660 hc        1 5BZ      0.098700
     35 H8          6.5790    5.1790    3.8410 hc        1 5BZ      0.056367
     36 H9          6.8560    3.6780    4.8190 hc        1 5BZ      0.056367
     37 H10         7.8120    3.9660    3.3020 hc        1 5BZ      0.056367
     38 H11         5.4700   -1.7080    3.7470 ho        1 5BZ      0.463000
     39 H12         5.3080   -1.9710    1.0210 ho        1 5BZ      0.463000
     40 H13         4.7500    3.5900    3.4690 hc        1 5BZ      0.028700
     41 H14         4.8290    3.5280    0.9930 hc        1 5BZ      0.056367
     42 H15         5.6370    5.0360    1.5830 hc        1 5BZ      0.056367
     43 H16         6.6400    3.6460    1.0080 hc        1 5BZ      0.056367
     44 H17         3.5140    2.2610    2.5270 hn        1 5BZ      0.486300
     45 H18         2.5300   -1.8800    0.9620 hc        1 5BZ      0.107200
     46 H19         2.7810   -1.5140    2.7130 hc        1 5BZ      0.107200
     47 H20        -0.9880   -3.3760    4.9410 ha        1 5BZ      0.169000
     48 H21        -1.2640   -4.6520    0.8140 ha        1 5BZ      0.169000
     49 H22        -0.1550   -0.7760    0.7840 hn        1 5BZ      0.488800
     50 H23        -2.4740    1.0390    0.5970 hc        1 5BZ      0.141700
     51 H24        -1.8010    2.4290   -0.3600 hc        1 5BZ      0.141700
     52 H25        -1.5840   -0.6020   -1.0570 hc        1 5BZ      0.054700
     53 H26        -0.6950    0.7150   -1.9450 hc        1 5BZ      0.054700
     54 H27        -3.7680    0.5700   -1.5380 hc        1 5BZ      0.078200
     55 H28        -2.8670    1.8450   -2.4670 hc        1 5BZ      0.078200
     56 H29        -3.0150   -1.3240   -5.2010 ha        1 5BZ      0.187500
     57 H30         6.6340   -0.5780    2.1700 h2        1 5BZ      0.112700
     58 H202        3.4390    0.7410    3.2500 hn        1 5BZ      0.486300
     59 H92         0.8710   -0.0120   -0.2920 hn        1 5BZ      0.488800
@<TRIPOS>BOND
     1    1   21 1   
     2    1   22 2   
     3    1   23 1   
     4    2   15 1   
     5    2   17 1   
     6    2   21 1   
     7    2   28 1   
     8    3   18 ar  
     9    3   19 ar  
    10    3   29 1   
    11    4   19 ar  
    12    4   20 ar  
    13    4   30 1   
    14    5   18 ar  
    15    5   20 ar  
    16    5   31 1   
    17    6    7 1   
    18    6    9 1   
    19    6   14 1   
    20    6   32 1   
    21    7   12 1   
    22    7   33 1   
    23    7   34 1   
    24    8   12 1   
    25    8   35 1   
    26    8   36 1   
    27    8   37 1   
    28    9   10 1   
    29    9   11 1   
    30    9   57 1   
    31   10   38 1   
    32   11   39 1   
    33   12   13 1   
    34   12   40 1   
    35   13   41 1   
    36   13   42 1   
    37   13   43 1   
    38   14   15 1   
    39   14   44 1   
    40   14   58 1   
    41   15   16 2   
    42   17   18 1   
    43   17   45 1   
    44   17   46 1   
    45   19   47 1   
    46   20   48 1   
    47   21   49 1   
    48   21   59 1   
    49   23   24 1   
    50   23   50 1   
    51   23   51 1   
    52   24   25 1   
    53   24   52 1   
    54   24   53 1   
    55   25   26 1   
    56   25   54 1   
    57   25   55 1   
    58   26   27 3   
    59   27   56 1   
@<TRIPOS>SUBSTRUCTURE
     1 5BZ         1 TEMP              0 ****  ****    0 ROOT
