@<TRIPOS>MOLECULE
5C1
   23    24     1     0     0
SMALL
bcc


@<TRIPOS>ATOM
      1 CAA        -1.8250    0.5420    0.3050 cc        1 5C1      0.421900
      2 OAB        -5.3830   -0.0500   -0.0540 oh        1 5C1     -0.431100
      3 CAC        -0.2490    1.6590    1.3170 cd        1 5C1      0.238900
      4 CAD         0.3780    0.8010    0.4080 cc        1 5C1      0.236900
      5 CAE        -3.0720   -0.0820   -0.2020 c         1 5C1      0.537600
      6 CAF         1.7560    0.5700    0.0430 ca        1 5C1     -0.138500
      7 CAG         2.3690   -0.6880    0.1720 ca        1 5C1      0.051400
      8 CAH         3.7130   -0.8550   -0.1840 ca        1 5C1     -0.131000
      9 CAI         4.4470    0.2270   -0.6640 ca        1 5C1     -0.101000
     10 NAI        -1.6290    1.4810    1.2380 nd        1 5C1     -0.638000
     11 CAJ         3.8470    1.4810   -0.7880 ca        1 5C1     -0.135000
     12 CAK         2.5110    1.6520   -0.4390 ca        1 5C1     -0.091000
     13 NAL        -4.2650    0.6740    0.0040 n         1 5C1     -0.331400
     14 OAN        -0.6230    0.0790   -0.2500 os        1 5C1     -0.312800
     15 OAO        -3.0590   -1.1220   -0.8720 o         1 5C1     -0.517100
     16 CL          1.5160   -2.0250    0.7760 cl        1 5C1     -0.064400
     17 HOAB       -5.5430   -0.2210   -1.0040 ho        1 5C1      0.437000
     18 HAC         0.1940    2.3700    2.0140 h4        1 5C1      0.062100
     19 HAH         4.1880   -1.8430   -0.0840 ha        1 5C1      0.154000
     20 HAI         5.5020    0.0900   -0.9440 ha        1 5C1      0.143000
     21 HAJ         4.4280    2.3350   -1.1670 ha        1 5C1      0.143000
     22 HAK         2.0340    2.6390   -0.5420 ha        1 5C1      0.146000
     23 HNAL       -4.2720    1.1890    0.8800 hn        1 5C1      0.321500
@<TRIPOS>BOND
     1    1    5 1   
     2    1   10 2   
     3    1   14 1   
     4    2   13 1   
     5    2   17 1   
     6    3    4 2   
     7    3   10 1   
     8    3   18 1   
     9    4    6 1   
    10    4   14 1   
    11    5   13 1   
    12    5   15 2   
    13    6    7 ar  
    14    6   12 ar  
    15    7    8 ar  
    16    7   16 1   
    17    8    9 ar  
    18    8   19 1   
    19    9   11 ar  
    20    9   20 1   
    21   11   12 ar  
    22   11   21 1   
    23   12   22 1   
    24   13   23 1   
@<TRIPOS>SUBSTRUCTURE
     1 5C1         1 TEMP              0 ****  ****    0 ROOT
