@<TRIPOS>MOLECULE
5C1
   24    25     1     0     0
SMALL
bcc


@<TRIPOS>ATOM
      1 CAA         0.0790    0.0130   -0.0200 cc        1 5C1      0.290900
      2 OAB        -1.1930    0.1160   -3.4020 oh        1 5C1     -0.340300
      3 CAC         1.8410   -0.2290    1.2310 cd        1 5C1      0.228900
      4 CAD         0.7330   -0.0040    2.0980 cc        1 5C1      0.366900
      5 CAE        -0.9020    0.1480   -1.0680 c         1 5C1      0.525600
      6 CAF         0.6350    0.0420    3.5310 ca        1 5C1     -0.204500
      7 CAG        -0.2670    0.8580    4.2410 ca        1 5C1      0.072400
      8 CAH        -0.2810    0.8290    5.6420 ca        1 5C1     -0.129000
      9 CAI         0.5950   -0.0010    6.3370 ca        1 5C1     -0.060000
     10 NAI         1.4130   -0.2120   -0.0690 nd        1 5C1     -0.590000
     11 CAJ         1.5020   -0.8050    5.6410 ca        1 5C1     -0.128000
     12 CAK         1.5250   -0.7820    4.2530 ca        1 5C1     -0.072000
     13 NAL        -0.2280   -0.0120   -2.4660 ny        1 5C1     -0.459300
     14 OAN        -0.3910    0.1430    1.3030 os        1 5C1     -0.276800
     15 OAO        -2.0940    0.3540   -1.0330 o         1 5C1     -0.328100
     16 Cl         -1.3310    1.9210    3.4620 cl        1 5C1     -0.047400
     17 HOAB       -0.7880    0.0230   -4.2950 ho        1 5C1      0.469000
     18 HAC         2.8910   -0.3840    1.5010 h4        1 5C1      0.090100
     19 HAH        -0.9890    1.4690    6.1950 ha        1 5C1      0.172000
     20 HAI         0.5730   -0.0200    7.4390 ha        1 5C1      0.164000
     21 HAJ         2.1970   -1.4580    6.1920 ha        1 5C1      0.163000
     22 HAK         2.2370   -1.4190    3.7050 ha        1 5C1      0.147000
     23 HNAL        0.4960    0.7210   -2.5700 hn        1 5C1      0.472800
     24 HAL2        0.2180   -0.9460   -2.5130 hn        1 5C1      0.472800
@<TRIPOS>BOND
     1    1    5 1   
     2    1   10 2   
     3    1   14 1   
     4    2   13 1   
     5    2   17 1   
     6    3    4 2   
     7    3   10 1   
     8    3   18 1   
     9    4    6 1   
    10    4   14 1   
    11    5   13 1   
    12    5   15 2   
    13    6    7 ar  
    14    6   12 ar  
    15    7    8 ar  
    16    7   16 1   
    17    8    9 ar  
    18    8   19 1   
    19    9   11 ar  
    20    9   20 1   
    21   11   12 ar  
    22   11   21 1   
    23   12   22 1   
    24   13   23 1   
    25   13   24 1   
@<TRIPOS>SUBSTRUCTURE
     1 5C1         1 TEMP              0 ****  ****    0 ROOT
