@<TRIPOS>MOLECULE
5C1
   24    25     1     0     0
SMALL
bcc


@<TRIPOS>ATOM
      1 CAA         0.0780    0.0090   -0.0200 cc        1 5C1      0.290900
      2 OAB        -1.1930    0.1240   -3.4020 oh        1 5C1     -0.340300
      3 CAC         1.8350   -0.2660    1.2320 cd        1 5C1      0.228900
      4 CAD         0.7320   -0.0110    2.0980 cc        1 5C1      0.367900
      5 CAE        -0.9000    0.1620   -1.0680 c         1 5C1      0.525600
      6 CAF         0.6360    0.0440    3.5300 ca        1 5C1     -0.204500
      7 CAG        -0.2470    0.8830    4.2370 ca        1 5C1      0.072400
      8 CAH        -0.2610    0.8610    5.6380 ca        1 5C1     -0.129000
      9 CAI         0.5970    0.0160    6.3370 ca        1 5C1     -0.060000
     10 NAI         1.4070   -0.2460   -0.0690 nd        1 5C1     -0.590000
     11 CAJ         1.4860   -0.8110    5.6440 ca        1 5C1     -0.128000
     12 CAK         1.5090   -0.7950    4.2560 ca        1 5C1     -0.072000
     13 NAL        -0.2310   -0.0220   -2.4660 n4        1 5C1     -0.459300
     14 OAN        -0.3880    0.1570    1.3030 os        1 5C1     -0.276800
     15 OAO        -2.0870    0.3940   -1.0340 o         1 5C1     -0.328100
     16 CL         -1.2890    1.9640    3.4530 cl        1 5C1     -0.047400
     17 HOAB       -0.7910    0.0170   -4.2950 ho        1 5C1      0.469000
     18 HAC         2.8810   -0.4430    1.5020 h4        1 5C1      0.090100
     19 HAH        -0.9550    1.5190    6.1880 ha        1 5C1      0.172000
     20 HAI         0.5760    0.0030    7.4390 ha        1 5C1      0.164000
     21 HAJ         2.1680   -1.4750    6.1990 ha        1 5C1      0.163000
     22 HAK         2.2070   -1.4510    3.7110 ha        1 5C1      0.147000
     23 HNAL        0.5090    0.6950   -2.5730 hn        1 5C1      0.472800
     24 HAL2        0.1940   -0.9650   -2.5070 hn        1 5C1      0.472800
@<TRIPOS>BOND
     1    1    5 1   
     2    1   10 2   
     3    1   14 1   
     4    2   13 1   
     5    2   17 1   
     6    3    4 2   
     7    3   10 1   
     8    3   18 1   
     9    4    6 1   
    10    4   14 1   
    11    5   13 1   
    12    5   15 2   
    13    6    7 ar  
    14    6   12 ar  
    15    7    8 ar  
    16    7   16 1   
    17    8    9 ar  
    18    8   19 1   
    19    9   11 ar  
    20    9   20 1   
    21   11   12 ar  
    22   11   21 1   
    23   12   22 1   
    24   13   23 1   
    25   13   24 1   
@<TRIPOS>SUBSTRUCTURE
     1 5C1         1 TEMP              0 ****  ****    0 ROOT
