@<TRIPOS>MOLECULE
5C1
   23    19     1     0     0
SMALL
bcc


@<TRIPOS>ATOM
      1 CAA        -0.4080    0.0310   -2.0760 c1        1 5C1     -0.059000
      2 OAB        -1.5310   -0.7270   -5.5930 oh        1 5C1     -0.235000
      3 CAC         1.3820    0.0960   -0.8240 c1        1 5C1     -0.150000
      4 CAD         0.2860    0.0490   -0.0020 c1        1 5C1      0.003000
      5 CAE        -1.3290   -0.1050   -3.2690 c1        1 5C1      0.322000
      6 CAF         0.3060    0.0680    1.5120 c1        1 5C1     -0.023000
      7 CAG         0.2360    1.2750    2.1910 c2        1 5C1     -0.037000
      8 CAH         0.2380    1.2910    3.5770 c1        1 5C1     -0.130000
      9 CAI         0.3100    0.1010    4.2840 c1        1 5C1     -0.117500
     10 NAI         0.9490    0.0850   -2.0960 n2        1 5C1     -0.110000
     11 CAJ         0.3810   -1.1060    3.6050 c1        1 5C1     -0.117500
     12 CAK         0.3790   -1.1220    2.2190 c1        1 5C1     -0.088000
     13 NAL        -0.7870   -0.1890   -4.5770 n3        1 5C1     -0.172000
     14 OAN        -0.8100    0.0090   -0.7760 os        1 5C1     -0.076000
     15 OAO        -2.5330   -0.1220   -3.1080 o         1 5C1     -0.283000
     16 CL          0.1870    2.7740    1.3020 cl        1 5C1     -0.004000
     17 HOAB       -0.9920   -0.9830   -6.2520 ho        1 5C1      0.236000
     18 HAC         2.3140    0.1320   -0.5350 DU        1 5C1      0.205000
     19 HAH         0.1880    2.1400    4.0550 ha        1 5C1      0.153000
     20 HAI         0.3110    0.1120    5.2600 ha        1 5C1      0.144000
     21 HAJ         0.4310   -1.9440    4.1030 ha        1 5C1      0.144000
     22 HAK         0.4280   -1.9710    1.7410 ha        1 5C1      0.158000
     23 HNAL        0.0620    0.1070   -4.7400 hn        1 5C1      0.236000
@<TRIPOS>BOND
     1    1   10 1   
     2    1   14 1   
     3    2   13 1   
     4    2   17 1   
     5    3    4 1   
     6    3   10 1   
     7    4   14 1   
     8    5   13 1   
     9    5   15 1   
    10    6    7 1   
    11    6   12 1   
    12    7    8 1   
    13    7   16 1   
    14    8   19 1   
    15    9   11 1   
    16    9   20 1   
    17   11   21 1   
    18   12   22 1   
    19   13   23 1   
@<TRIPOS>SUBSTRUCTURE
     1 5C1         1 TEMP              0 ****  ****    0 ROOT
