@<TRIPOS>MOLECULE
5C2
   44    47     1     0     0
SMALL
bcc


@<TRIPOS>ATOM
      1 N3         -0.0670    0.6050   -0.0560 ny        1 5C2     -0.099000
      2 C4          1.1460   -0.2500    0.0750 c3        1 5C2     -0.029000
      3 C5          1.7950   -0.1180    1.4010 c2        1 5C2     -0.219000
      4 C6          2.5760   -1.0650    2.0600 c2        1 5C2     -0.025000
      5 C8          2.4810    0.8130    3.2630 c2        1 5C2      0.085000
      6 C10         3.5470    1.1710    5.4860 c2        1 5C2     -0.234000
      7 C15        -2.1330    0.2110   -1.4020 c2        1 5C2     -0.336000
      8 C17        -4.2200   -0.1240   -2.4950 c2        1 5C2     -0.279000
      9 C22        -7.4340    1.2060   -0.1370 c3        1 5C2     -0.241000
     10 C24        -4.8390   -0.2680   -1.1790 c2        1 5C2      0.107000
     11 C26        -2.7490    0.0650   -0.1240 c1        1 5C2     -0.124000
     12 C23        -8.5580   -0.9500   -0.6860 c3        1 5C2     -0.241000
     13 N20        -6.1880   -0.6060   -1.3550 n3        1 5C2     -0.155000
     14 N19        -6.4150   -0.5240   -2.7400 n7        1 5C2     -0.160000
     15 C18        -5.3070   -0.3150   -3.4810 c1        1 5C2      0.074000
     16 C16        -2.8610    0.1130   -2.6020 c2        1 5C2      0.146000
     17 N25        -4.0740   -0.1660   -0.0320 n7        1 5C2     -0.104000
     18 C2         -0.7070    0.4650   -1.4270 c2        1 5C2      0.344000
     19 O1          0.0440    0.5900   -2.3890 o         1 5C2     -0.225000
     20 N14         1.7450    1.0580    2.1740 n2        1 5C2     -0.140000
     21 O7          3.0240   -0.4960    3.2370 os        1 5C2     -0.075000
     22 C9          2.8000    1.6300    4.4070 c2        1 5C2     -0.151000
     23 S13         2.2960    3.2130    4.5320 ss        1 5C2      0.267000
     24 C12         3.1170    3.4000    6.1720 c3        1 5C2     -0.315000
     25 C11         3.7410    2.1420    6.4970 c1        1 5C2     -0.035000
     26 H1         -0.7710    0.3510    0.6660 hn        1 5C2      0.278000
     27 H2          0.8390   -1.3230   -0.0950 hx        1 5C2      0.154000
     28 H3          1.8700    0.0530   -0.7420 hx        1 5C2      0.154000
     29 H4          2.9060   -2.0860    1.8740 h4        1 5C2      0.229000
     30 H5          3.9560    0.1570    5.5570 ha        1 5C2      0.183000
     31 H6         -6.8290   -0.7490    0.6050 h1        1 5C2      0.111000
     32 H7         -7.8240    1.6970   -1.0610 hc        1 5C2      0.103833
     33 H8         -8.1840    1.3460    0.6800 hc        1 5C2      0.103833
     34 H9         -6.4840    1.7100    0.1630 hc        1 5C2      0.103833
     35 H10        -4.4900   -0.2720    0.8720 hn        1 5C2      0.279000
     36 H11        -8.4340   -2.0340   -0.9240 hc        1 5C2      0.103833
     37 H12        -9.0610   -0.4410   -1.5430 hc        1 5C2      0.103833
     38 H13        -9.2210   -0.8610    0.2110 hc        1 5C2      0.103833
     39 H14        -7.3260   -0.7860   -3.0550 hn        1 5C2      0.293000
     40 H15        -2.3760    0.2210   -3.5900 ha        1 5C2      0.190000
     41 H16         2.3400    3.6850    6.9250 h1        1 5C2      0.190500
     42 H17         3.8700    4.2260    6.0950 h1        1 5C2      0.190500
     43 C21        -7.2220   -0.2900   -0.3540 c3        1 5C2      0.012000
     44 H32         0.1940    1.5890    0.0830 hn        1 5C2      0.278000
@<TRIPOS>BOND
     1    1    2 1   
     2    1   18 1   
     3    1   26 1   
     4    1   44 1   
     5    2    3 1   
     6    2   27 1   
     7    2   28 1   
     8    3    4 1   
     9    3   20 1   
    10    4   21 1   
    11    4   29 1   
    12    5   20 1   
    13    5   21 1   
    14    5   22 1   
    15    6   22 1   
    16    6   25 1   
    17    6   30 1   
    18    7   11 1   
    19    7   16 1   
    20    7   18 1   
    21    8   10 1   
    22    8   15 1   
    23    8   16 1   
    24    9   32 1   
    25    9   33 1   
    26    9   34 1   
    27    9   43 1   
    28   10   13 1   
    29   10   17 1   
    30   11   17 1   
    31   12   36 1   
    32   12   37 1   
    33   12   38 1   
    34   12   43 1   
    35   13   14 1   
    36   13   43 1   
    37   14   15 1   
    38   14   39 1   
    39   16   40 1   
    40   17   35 1   
    41   18   19 1   
    42   22   23 1   
    43   23   24 1   
    44   24   25 1   
    45   24   41 1   
    46   24   42 1   
    47   31   43 1   
@<TRIPOS>SUBSTRUCTURE
     1 5C2         1 TEMP              0 ****  ****    0 ROOT
