@<TRIPOS>MOLECULE
5C3
   42    42     1     0     0
SMALL
bcc


@<TRIPOS>ATOM
      1 C01         0.0900   -1.2750    0.2130 ca        1 5C3     -0.148500
      2 C02         1.2260   -0.5520   -0.0990 ca        1 5C3      0.034500
      3 C03         2.1830   -0.2030    0.8970 ca        1 5C3     -0.631500
      4 C04         1.9120   -0.6280    2.2290 ca        1 5C3      0.034500
      5 C05         0.7740   -1.3500    2.5390 ca        1 5C3     -0.148500
      6 C06        -0.1440   -1.6810    1.5340 ca        1 5C3      0.047000
      7 O08         2.6060    3.1670    3.2090 o         1 5C3     -0.500100
      8 N09         8.3130    6.9700    4.5620 n4        1 5C3     -0.837600
      9 C10         7.3830    7.1540    3.4100 c3        1 5C3      0.099800
     10 S11         3.4770    0.5640    0.5340 s4        1 5C3      1.682300
     11 NP2         2.6320    2.8460    0.9420 n         1 5C3     -0.718000
     12 O13         4.4430    0.7100    1.4780 o         1 5C3     -0.432400
     13 O14         3.6920    0.8950   -0.7630 o         1 5C3     -0.432400
     14 C15         6.1980    6.1850    3.4220 c3        1 5C3     -0.095700
     15 C16         5.1700    6.6850    2.4110 c3        1 5C3     -0.078900
     16 C17         3.9680    5.7650    2.3650 c3        1 5C3     -0.079900
     17 C18         4.3830    4.3350    2.0370 c3        1 5C3     -0.131700
     18 C19         5.4340    3.8350    3.0220 c3        1 5C3     -0.079900
     19 C11         3.1540    3.4430    2.1370 c         1 5C3      0.617100
     20 C20         6.6270    4.7680    3.0710 c3        1 5C3     -0.078900
     21 H01        -0.6330   -1.5390   -0.5800 ha        1 5C3      0.190000
     22 H02         1.4080   -0.2430   -1.1470 ha        1 5C3      0.175500
     23 H06        -1.0520   -2.2640    1.7820 ha        1 5C3      0.188000
     24 H04         2.6360   -0.3750    3.0280 ha        1 5C3      0.175500
     25 H05         0.5900   -1.6710    3.5800 ha        1 5C3      0.190000
     26 H091        8.6970    6.0180    4.5590 hn        1 5C3      0.465800
     27 H092        9.0870    7.6410    4.4990 hn        1 5C3      0.465800
     28 H101        7.9820    7.0200    2.4620 hx        1 5C3      0.118200
     29 H102        7.0040    8.2180    3.4510 hx        1 5C3      0.118200
     30 H15         5.7160    6.1820    4.4410 hc        1 5C3      0.079700
     31 HP2         1.6340    2.7190    1.0010 hn        1 5C3      0.306500
     32 H161        4.8270    7.7160    2.6940 hc        1 5C3      0.060950
     33 H162        5.6410    6.7470    1.3950 hc        1 5C3      0.060950
     34 H201        7.3500    4.3770    3.8340 hc        1 5C3      0.060950
     35 H202        7.1480    4.7660    2.0760 hc        1 5C3      0.060950
     36 H171        3.2510    6.1420    1.5890 hc        1 5C3      0.078450
     37 H172        3.4370    5.7790    3.3550 hc        1 5C3      0.078450
     38 H18         4.8170    4.3090    0.9980 hc        1 5C3      0.076700
     39 H191        5.7740    2.8090    2.7170 hc        1 5C3      0.078450
     40 H192        4.9710    3.7500    4.0420 hc        1 5C3      0.078450
     41 H093        7.8160    7.1180    5.4470 hn        1 5C3      0.465800
     42 HP22        2.8710    3.3650    0.1140 hn        1 5C3      0.306500
@<TRIPOS>BOND
     1    1    2 ar  
     2    1    6 ar  
     3    1   21 1   
     4    2    3 ar  
     5    2   22 1   
     6    3    4 ar  
     7    3   10 1   
     8    4    5 ar  
     9    4   24 1   
    10    5    6 ar  
    11    5   25 1   
    12    6   23 1   
    13    7   19 2   
    14    8    9 1   
    15    8   26 1   
    16    8   27 1   
    17    8   41 1   
    18    9   14 1   
    19    9   28 1   
    20    9   29 1   
    21   10   12 1   
    22   10   13 1   
    23   11   19 1   
    24   11   31 1   
    25   11   42 1   
    26   14   15 1   
    27   14   20 1   
    28   14   30 1   
    29   15   16 1   
    30   15   32 1   
    31   15   33 1   
    32   16   17 1   
    33   16   36 1   
    34   16   37 1   
    35   17   18 1   
    36   17   19 1   
    37   17   38 1   
    38   18   20 1   
    39   18   39 1   
    40   18   40 1   
    41   20   34 1   
    42   20   35 1   
@<TRIPOS>SUBSTRUCTURE
     1 5C3         1 TEMP              0 ****  ****    0 ROOT
