@<TRIPOS>MOLECULE
5C3
   42    42     1     0     0
SMALL
bcc


@<TRIPOS>ATOM
      1 C01         0.1290   -1.2900    0.1800 ca        1 5C3     -0.148500
      2 C02         1.2390   -0.5310   -0.1420 ca        1 5C3      0.034500
      3 C03         2.2190   -0.1950    0.8360 ca        1 5C3     -0.631500
      4 C04         2.0000   -0.6710    2.1590 ca        1 5C3      0.034500
      5 C05         0.8880   -1.4290    2.4790 ca        1 5C3     -0.148500
      6 C06        -0.0540   -1.7470    1.4920 ca        1 5C3      0.047000
      7 O08         2.6420    3.1020    3.2500 o         1 5C3     -0.500100
      8 N09         8.3070    6.9820    4.5600 nz        1 5C3     -0.837600
      9 C10         7.3370    7.1860    3.4450 c3        1 5C3      0.099800
     10 S11         3.4840    0.6130    0.4600 s4        1 5C3      1.682300
     11 NP2         2.6030    2.8600    0.9730 nt        1 5C3     -0.718000
     12 O13         4.4760    0.7490    1.3770 o         1 5C3     -0.432400
     13 O14         3.6500    0.9940   -0.8320 o         1 5C3     -0.432400
     14 C15         6.1740    6.1910    3.4580 c3        1 5C3     -0.095700
     15 C16         5.1030    6.7020    2.4990 c3        1 5C3     -0.078900
     16 C17         3.9210    5.7580    2.4580 c3        1 5C3     -0.079900
     17 C18         4.3550    4.3490    2.0650 c3        1 5C3     -0.131700
     18 C19         5.4480    3.8390    2.9980 c3        1 5C3     -0.079900
     19 C11         3.1500    3.4280    2.1720 c         1 5C3      0.617100
     20 C20         6.6220    4.7960    3.0430 c3        1 5C3     -0.078900
     21 H01        -0.6130   -1.5430   -0.6000 ha        1 5C3      0.190000
     22 H02         1.3810   -0.1830   -1.1840 ha        1 5C3      0.175500
     23 H06        -0.9410   -2.3580    1.7480 ha        1 5C3      0.188000
     24 H04         2.7430   -0.4290    2.9440 ha        1 5C3      0.175500
     25 H05         0.7440   -1.7900    3.5140 ha        1 5C3      0.190000
     26 H091        8.7100    6.0400    4.5110 hn        1 5C3      0.465800
     27 H092        7.8350    7.0880    5.4650 hn        1 5C3      0.465800
     28 H101        7.9080    7.0990    2.4740 hx        1 5C3      0.118200
     29 H102        6.9360    8.2390    3.5350 hx        1 5C3      0.118200
     30 H15         5.7250    6.1410    4.4910 hc        1 5C3      0.079700
     31 HP2         1.6110    2.7080    1.0580 hn        1 5C3      0.306500
     32 H161        5.5410    6.8110    1.4710 hc        1 5C3      0.060950
     33 H162        4.7470    7.7140    2.8290 hc        1 5C3      0.060950
     34 H201        7.1100    4.8420    2.0330 hc        1 5C3      0.060950
     35 H202        7.3770    4.3950    3.7690 hc        1 5C3      0.060950
     36 H171        3.4210    5.7250    3.4630 hc        1 5C3      0.078450
     37 H172        3.1710    6.1450    1.7180 hc        1 5C3      0.078450
     38 H18         4.7560    4.3700    1.0140 hc        1 5C3      0.076700
     39 H191        5.0210    3.7080    4.0290 hc        1 5C3      0.078450
     40 H192        5.8000    2.8320    2.6470 hc        1 5C3      0.078450
     41 H093        9.0640    7.6730    4.4960 hn        1 5C3      0.465800
     42 HP22        2.8050    3.4120    0.1570 hn        1 5C3      0.306500
@<TRIPOS>BOND
     1    1    2 ar  
     2    1    6 ar  
     3    1   21 1   
     4    2    3 ar  
     5    2   22 1   
     6    3    4 ar  
     7    3   10 1   
     8    4    5 ar  
     9    4   24 1   
    10    5    6 ar  
    11    5   25 1   
    12    6   23 1   
    13    7   19 2   
    14    8    9 1   
    15    8   26 1   
    16    8   27 1   
    17    8   41 1   
    18    9   14 1   
    19    9   28 1   
    20    9   29 1   
    21   10   12 1   
    22   10   13 1   
    23   11   19 1   
    24   11   31 1   
    25   11   42 1   
    26   14   15 1   
    27   14   20 1   
    28   14   30 1   
    29   15   16 1   
    30   15   32 1   
    31   15   33 1   
    32   16   17 1   
    33   16   36 1   
    34   16   37 1   
    35   17   18 1   
    36   17   19 1   
    37   17   38 1   
    38   18   20 1   
    39   18   39 1   
    40   18   40 1   
    41   20   34 1   
    42   20   35 1   
@<TRIPOS>SUBSTRUCTURE
     1 5C3         1 TEMP              0 ****  ****    0 ROOT
