@<TRIPOS>MOLECULE
5C3
   42    42     1     0     0
SMALL
bcc


@<TRIPOS>ATOM
      1 C01         0.1360   -1.3240    0.2450 ca        1 5C3     -0.148500
      2 C02         1.2370   -0.5590   -0.0920 ca        1 5C3      0.034500
      3 C03         2.2250   -0.2120    0.8740 ca        1 5C3     -0.631500
      4 C04         2.0230   -0.6830    2.2020 ca        1 5C3      0.034500
      5 C05         0.9190   -1.4470    2.5370 ca        1 5C3     -0.148500
      6 C06        -0.0320   -1.7750    1.5620 ca        1 5C3      0.047000
      7 O08         2.6520    3.1000    3.2670 o         1 5C3     -0.500100
      8 N09         8.3110    7.0150    4.4970 n4        1 5C3     -0.837600
      9 C10         7.3280    7.2090    3.3920 c3        1 5C3      0.099800
     10 S11         3.4810    0.6020    0.4810 s4        1 5C3      1.682300
     11 NP2         2.5920    2.8450    0.9920 n         1 5C3     -0.718000
     12 O13         4.4810    0.7480    1.3870 o         1 5C3     -0.432400
     13 O14         3.6310    0.9770   -0.8140 o         1 5C3     -0.432400
     14 C15         6.1700    6.2070    3.4230 c3        1 5C3     -0.095700
     15 C16         5.0870    6.7090    2.4730 c3        1 5C3     -0.078900
     16 C17         3.9090    5.7580    2.4490 c3        1 5C3     -0.079900
     17 C18         4.3460    4.3500    2.0580 c3        1 5C3     -0.131700
     18 C19         5.4520    3.8500    2.9820 c3        1 5C3     -0.079900
     19 C11         3.1470    3.4220    2.1820 c         1 5C3      0.617100
     20 C20         6.6210    4.8140    3.0100 c3        1 5C3     -0.078900
     21 H01        -0.6130   -1.5850   -0.5250 ha        1 5C3      0.190000
     22 H02         1.3660   -0.2150   -1.1370 ha        1 5C3      0.175500
     23 H06        -0.9120   -2.3900    1.8290 ha        1 5C3      0.188000
     24 H04         2.7720   -0.4320    2.9780 ha        1 5C3      0.175500
     25 H05         0.7880   -1.8020    3.5750 ha        1 5C3      0.190000
     26 H091        7.8490    7.1220    5.4070 hn        1 5C3      0.465800
     27 H092        8.7190    6.0750    4.4480 hn        1 5C3      0.465800
     28 H101        6.9230    8.2600    3.4820 hx        1 5C3      0.118200
     29 H102        7.8880    7.1200    2.4160 hx        1 5C3      0.118200
     30 H15         5.7330    6.1600    4.4610 hc        1 5C3      0.079700
     31 HP2         1.6010    2.6880    1.0880 hn        1 5C3      0.306500
     32 H161        5.5120    6.8160    1.4400 hc        1 5C3      0.060950
     33 H162        4.7290    7.7210    2.8020 hc        1 5C3      0.060950
     34 H201        7.3860    4.4200    3.7290 hc        1 5C3      0.060950
     35 H202        7.0980    4.8570    1.9940 hc        1 5C3      0.060950
     36 H171        3.1500    6.1380    1.7150 hc        1 5C3      0.078450
     37 H172        3.4200    5.7270    3.4600 hc        1 5C3      0.078450
     38 H18         4.7360    4.3690    1.0020 hc        1 5C3      0.076700
     39 H191        5.0360    3.7220    4.0180 hc        1 5C3      0.078450
     40 H192        5.8050    2.8430    2.6320 hc        1 5C3      0.078450
     41 H093        9.0630    7.7100    4.4220 hn        1 5C3      0.465800
     42 HP22        2.7810    3.3950    0.1710 hn        1 5C3      0.306500
@<TRIPOS>BOND
     1    1    2 ar  
     2    1    6 ar  
     3    1   21 1   
     4    2    3 ar  
     5    2   22 1   
     6    3    4 ar  
     7    3   10 1   
     8    4    5 ar  
     9    4   24 1   
    10    5    6 ar  
    11    5   25 1   
    12    6   23 1   
    13    7   19 2   
    14    8    9 1   
    15    8   26 1   
    16    8   27 1   
    17    8   41 1   
    18    9   14 1   
    19    9   28 1   
    20    9   29 1   
    21   10   12 1   
    22   10   13 1   
    23   11   19 1   
    24   11   31 1   
    25   11   42 1   
    26   14   15 1   
    27   14   20 1   
    28   14   30 1   
    29   15   16 1   
    30   15   32 1   
    31   15   33 1   
    32   16   17 1   
    33   16   36 1   
    34   16   37 1   
    35   17   18 1   
    36   17   19 1   
    37   17   38 1   
    38   18   20 1   
    39   18   39 1   
    40   18   40 1   
    41   20   34 1   
    42   20   35 1   
@<TRIPOS>SUBSTRUCTURE
     1 5C3         1 TEMP              0 ****  ****    0 ROOT
