@<TRIPOS>MOLECULE
5CA
   48    50     1     0     0
SMALL
bcc


@<TRIPOS>ATOM
      1 N          -2.2180    2.5300    1.4930 n3        1 5CA     -0.913800
      2 CA         -3.0680    2.2170    0.3640 c3        1 5CA      0.121500
      3 CB         -2.8070    3.0170   -0.9140 c3        1 5CA     -0.035300
      4 SG         -3.1680    4.7140   -0.5560 sh        1 5CA     -0.393900
      5 C          -2.9730    0.7180    0.0050 c         1 5CA      0.691100
      6 O          -2.7370    0.3290   -1.1480 o         1 5CA     -0.557100
      7 N3S        -3.1830   -0.2120    1.0260 n         1 5CA     -0.696300
      8 S          -3.2970   -1.8380    0.9010 s6        1 5CA      1.702100
      9 O1S        -3.2610   -2.3690    2.1880 o         1 5CA     -0.633300
     10 O2S        -4.2360   -2.2630   -0.0130 o         1 5CA     -0.633300
     11 O5'        -1.8410   -2.3160    0.2270 os        1 5CA     -0.550500
     12 C5'        -0.6600   -2.4130    0.9860 c3        1 5CA      0.162400
     13 C4'         0.3690   -3.1710    0.1450 c3        1 5CA      0.093100
     14 O4'         0.7550   -2.3980   -0.9990 os        1 5CA     -0.385600
     15 C3'         1.6420   -3.4640    0.9700 c3        1 5CA      0.128100
     16 O3'         2.0140   -4.8160    0.8840 oh        1 5CA     -0.569800
     17 C2'         2.7070   -2.4860    0.4200 c3        1 5CA      0.081100
     18 O2'         3.7940   -3.2390   -0.0690 oh        1 5CA     -0.588800
     19 C1'         2.0130   -1.7590   -0.7800 c3        1 5CA      0.216800
     20 N9          1.8240   -0.3390   -0.5760 na        1 5CA     -0.290000
     21 C8          0.6410    0.4170   -0.7620 cc        1 5CA      0.426700
     22 N7          0.8120    1.7320   -0.5550 nd        1 5CA     -0.578100
     23 C5          2.1700    1.8820   -0.2310 ca        1 5CA     -0.225200
     24 C6          2.9820    3.0220    0.0860 ca        1 5CA      0.754200
     25 N6          2.4180    4.2710    0.1770 nh        1 5CA     -0.949500
     26 N1          4.3210    2.8320    0.3350 nb        1 5CA     -0.789000
     27 C2          4.7990    1.5600    0.2870 ca        1 5CA      0.689900
     28 N3          4.1600    0.3980    0.0160 nb        1 5CA     -0.754000
     29 C4          2.8300    0.5810   -0.2460 ca        1 5CA      0.449800
     30 H          -1.2500    2.4550    1.2460 hn        1 5CA      0.376300
     31 HN2        -2.4060    3.4620    1.8130 hn        1 5CA      0.376300
     32 HA         -4.1420    2.4040    0.6820 h1        1 5CA      0.095700
     33 HB1        -1.7490    2.8900   -1.2490 h1        1 5CA      0.092700
     34 HB2        -3.4670    2.6370   -1.7320 h1        1 5CA      0.092700
     35 HG         -2.7940    5.2510   -1.7060 hs        1 5CA      0.221800
     36 H3S        -3.2340    0.2020    1.9370 hn        1 5CA      0.360500
     37 H5'1       -0.2900   -1.3770    1.2170 h1        1 5CA      0.051200
     38 H5'2       -0.8660   -2.9780    1.9380 h1        1 5CA      0.051200
     39 H4'        -0.0890   -4.1050   -0.2810 h1        1 5CA      0.116700
     40 H3'         1.4700   -3.2890    2.0670 h1        1 5CA      0.094700
     41 H3T         2.4070   -4.9680    0.0130 ho        1 5CA      0.426000
     42 H2'         3.0380   -1.7770    1.2230 h1        1 5CA      0.084700
     43 HO'2        4.5410   -2.6300   -0.1520 ho        1 5CA      0.434000
     44 H1'         2.6020   -1.9110   -1.7360 h2        1 5CA      0.107700
     45 H8         -0.3000   -0.0770   -1.0610 h5        1 5CA      0.106800
     46 H61         1.5020    4.3930   -0.1770 hn        1 5CA      0.443300
     47 H62         2.9990    5.0670    0.2790 hn        1 5CA      0.443300
     48 H2          5.8860    1.4670    0.5010 h5        1 5CA      0.054100
@<TRIPOS>BOND
     1    1    2 1   
     2    1   30 1   
     3    1   31 1   
     4    2    3 1   
     5    2    5 1   
     6    2   32 1   
     7    3    4 1   
     8    3   33 1   
     9    3   34 1   
    10    4   35 1   
    11    5    6 2   
    12    5    7 1   
    13    7    8 1   
    14    7   36 1   
    15    8    9 2   
    16    8   10 2   
    17    8   11 1   
    18   11   12 1   
    19   12   13 1   
    20   12   37 1   
    21   12   38 1   
    22   13   14 1   
    23   13   15 1   
    24   13   39 1   
    25   14   19 1   
    26   15   16 1   
    27   15   17 1   
    28   15   40 1   
    29   16   41 1   
    30   17   18 1   
    31   17   19 1   
    32   17   42 1   
    33   18   43 1   
    34   19   20 1   
    35   19   44 1   
    36   20   21 1   
    37   20   29 1   
    38   21   22 2   
    39   21   45 1   
    40   22   23 1   
    41   23   24 ar  
    42   23   29 ar  
    43   24   25 1   
    44   24   26 ar  
    45   25   46 1   
    46   25   47 1   
    47   26   27 ar  
    48   27   28 ar  
    49   27   48 1   
    50   28   29 ar  
@<TRIPOS>SUBSTRUCTURE
     1 5CA         1 TEMP              0 ****  ****    0 ROOT
