@<TRIPOS>MOLECULE
5CA
   48    45     1     0     0
SMALL
bcc


@<TRIPOS>ATOM
      1 N           6.4560   -4.3340    0.4220 n3        1 5CA     -0.906800
      2 CA          5.5500   -4.0310    1.4290 c3        1 5CA      0.103500
      3 CB          6.3110   -3.7670    2.7500 c3        1 5CA     -0.035300
      4 SG          7.5000   -2.5070    2.4980 sh        1 5CA     -0.379900
      5 C           4.7700   -2.8060    1.0460 c         1 5CA      0.694100
      6 O           5.3300   -1.8820    0.4360 o         1 5CA     -0.561100
      7 N3S         3.4390   -2.7100    1.3610 n         1 5CA     -0.649800
      8 S           2.6290   -1.2030    1.1940 s4        1 5CA      1.649100
      9 O1S         2.9350   -0.3180    2.2970 o         1 5CA     -0.524900
     10 O2S         3.1610   -0.4370    0.0620 o         1 5CA     -0.524900
     11 O5'         1.1190   -1.4170    1.0560 o         1 5CA     -0.857500
     12 C5'         0.3000   -0.1970    1.0810 c3        1 5CA      0.262100
     13 C4'        -0.7030   -0.2150   -0.0980 c3        1 5CA      0.059100
     14 O4'        -1.8540    0.2950    0.2760 os        1 5CA     -0.402600
     15 C3'        -0.2070    0.6990   -1.2120 c3        1 5CA      0.105100
     16 O3'         0.1800   -0.0230   -2.2630 oh        1 5CA     -0.602800
     17 C2'        -1.4480    1.6230   -1.5960 c3        1 5CA      0.089100
     18 O2'        -1.6410    1.6320   -3.0650 oh        1 5CA     -0.600800
     19 C1'        -2.4440    1.0860   -1.0220 c3        1 5CA      0.230800
     20 N9         -3.3720    2.0910   -0.5990 n3        1 5CA     -0.138400
     21 C8         -3.4690    2.6770    0.6200 c1        1 5CA      0.189400
     22 N7         -4.6790    3.3170    0.6850 ne        1 5CA     -0.388400
     23 C5         -5.3270    3.1170   -0.5080 cg        1 5CA     -0.185000
     24 C6         -6.5880    3.5040   -0.9640 c1        1 5CA      0.629600
     25 N6         -7.5890    4.2630   -0.3550 n3        1 5CA     -0.820400
     26 N1         -7.0070    3.1260   -2.1910 n1        1 5CA     -0.594800
     27 C2         -6.1890    2.3600   -2.9930 c1        1 5CA      0.413300
     28 N3         -4.9620    1.9840   -2.5510 n1        1 5CA     -0.562800
     29 C4         -4.5290    2.3670   -1.2970 c1        1 5CA      0.006700
     30 H           7.1160   -4.8430    0.7570 hn        1 5CA      0.372800
     31 HN2         6.0160   -4.8020   -0.2580 hn        1 5CA      0.372800
     32 HA          4.9220   -4.8020    1.5540 h1        1 5CA      0.085700
     33 HB1         6.7600   -4.5780    3.0330 h1        1 5CA      0.090700
     34 HB2         5.6740   -3.4850    3.4470 h1        1 5CA      0.090700
     35 HG          8.0370   -2.2770    3.5030 hs        1 5CA      0.236800
     36 H3S         2.9530   -3.4830    1.5860 hn        1 5CA      0.373500
     37 H5'1        0.8550    0.5460    1.0020 h1        1 5CA      0.074200
     38 H5'2       -0.1950   -0.1460    1.9360 h1        1 5CA      0.074200
     39 H4'        -0.8290   -1.1630   -0.4430 h1        1 5CA      0.093700
     40 H3'         0.5600    1.2680   -0.8770 h1        1 5CA      0.121700
     41 H3T         0.9270    0.2720   -2.5460 ho        1 5CA      0.433000
     42 H2'        -1.3130    2.5310   -1.2660 h1        1 5CA      0.093700
     43 HO'2       -1.1880    2.3640   -3.4360 ho        1 5CA      0.438000
     44 H1'        -2.8680    0.4740   -1.6090 h2        1 5CA      0.103700
     45 H8         -2.7250    2.6870    1.3600 DU        1 5CA      0.214000
     46 H61        -7.3780    4.8370    0.3440 hn        1 5CA      0.452300
     47 H62        -8.4990    4.2240   -0.6960 hn        1 5CA      0.452300
     48 H2         -6.4970    2.0850   -3.8900 ha        1 5CA      0.131500
@<TRIPOS>BOND
     1    1    2 1   
     2    1   30 1   
     3    1   31 1   
     4    2    3 1   
     5    2    5 1   
     6    2   32 1   
     7    3    4 1   
     8    3   33 1   
     9    3   34 1   
    10    4   35 1   
    11    5    6 2   
    12    5    7 1   
    13    7    8 1   
    14    7   36 1   
    15    8    9 1   
    16    8   10 1   
    17   11   12 1   
    18   12   13 1   
    19   12   37 1   
    20   12   38 1   
    21   13   14 1   
    22   13   15 1   
    23   13   39 1   
    24   14   19 1   
    25   15   16 1   
    26   15   17 1   
    27   15   40 1   
    28   16   41 1   
    29   17   18 1   
    30   17   19 1   
    31   17   42 1   
    32   18   43 1   
    33   19   20 1   
    34   19   44 1   
    35   20   21 2   
    36   20   29 1   
    37   21   22 2   
    38   22   23 1   
    39   23   29 3   
    40   24   25 1   
    41   24   26 3   
    42   25   46 1   
    43   25   47 1   
    44   27   28 3   
    45   27   48 1   
@<TRIPOS>SUBSTRUCTURE
     1 5CA         1 TEMP              0 ****  ****    0 ROOT
