@<TRIPOS>MOLECULE
5CA
   50    50     1     0     0
SMALL
bcc


@<TRIPOS>ATOM
      1 N        -274.6230   36.9160    0.8800 n3        1 5CA     -0.076000
      2 CA       -273.1290   36.8360    0.9850 c3        1 5CA     -0.104000
      3 CB       -272.5870   37.7340    0.0940 c2        1 5CA     -0.309000
      4 SG       -273.3070   39.3410    0.9100 sh        1 5CA      0.009000
      5 C        -272.7050   35.3680    0.2790 c2        1 5CA      0.292000
      6 O        -273.5700   34.5710    0.6960 o         1 5CA     -0.352000
      7 N3S      -271.4080   35.0350    0.0760 n         1 5CA     -0.380000
      8 S         129.2120  -15.8660 -627.9790 s6        1 5CA      2.805000
      9 O1S       129.7080  -15.3110 -629.1120 o         1 5CA     -0.896500
     10 O2S       128.0170  -15.6250 -627.4000 o         1 5CA     -0.896500
     11 O5'       130.3990  -15.9930 -626.8340 os        1 5CA     -0.681000
     12 C5'       130.7610  -17.2910 -626.4160 c3        1 5CA     -0.002000
     13 C4'       130.1140  -18.2880 -627.4060 c3        1 5CA     -0.009000
     14 O4'       129.3230  -17.5360 -628.2970 os        1 5CA     -0.740000
     15 C3'       131.1740  -19.0490 -628.2220 c3        1 5CA      0.037000
     16 O3'       131.9830  -19.8450 -627.3980 oh        1 5CA     -0.285000
     17 C2'       130.5010  -19.9500 -629.2960 c3        1 5CA     -0.026000
     18 O2'       129.7060  -20.8790 -628.5910 oh        1 5CA     -0.298000
     19 C1'       129.5950  -19.1150 -630.1750 c2        1 5CA      0.191000
     20 N9        130.0060  -18.3310 -631.1370 na        1 5CA     -0.069000
     21 C8        131.3810  -18.0560 -631.6160 c2        1 5CA     -0.080000
     22 N7        131.4250  -17.1900 -632.6030 n2        1 5CA      0.033000
     23 C5        130.0930  -16.8060 -632.8760 c2        1 5CA     -0.278000
     24 C6        129.5290  -15.8880 -633.8200 c2        1 5CA      0.279000
     25 N6        130.3020  -15.1940 -634.6870 nh        1 5CA     -0.299000
     26 N1        128.1350  -15.7350 -633.8220 n2        1 5CA     -0.196000
     27 C2        127.4160  -16.4390 -632.9470 c2        1 5CA      0.068000
     28 N3        127.8440  -17.3460 -631.9850 n2        1 5CA     -0.183000
     29 C4        129.1710  -17.4890 -631.9890 c2        1 5CA      0.087000
     30 H        -274.9250   37.8720    0.1640 hn        1 5CA      0.282000
     31 HN2      -275.0470   36.2070    0.5030 DU        1 5CA      0.277000
     32 HA       -272.7090   37.1720    0.9880 h4        1 5CA      0.172000
     33 HB1      -272.7920   37.2980    0.1030 h1        1 5CA      0.149000
     34 HB2      -271.4740   37.8010    0.9780 DU        1 5CA      0.164000
     35 HG       -273.4260   39.6950    0.1890 hs        1 5CA      0.094000
     36 H3S      -271.1130   34.1020    0.2670 hn        1 5CA      0.261500
     37 H5'1      130.3760  -17.4420 -625.3730 h1        1 5CA      0.141500
     38 H5'2      131.8820  -17.3490 -626.4320 h1        1 5CA      0.141500
     39 H4'       129.4430  -19.0210 -626.8750 h1        1 5CA      0.150000
     40 H3'       131.8820  -18.3340 -628.7300 h1        1 5CA      0.138000
     41 H3T       131.4130  -20.4740 -626.9280 ho        1 5CA      0.235000
     42 H2'       131.3030  -20.4630 -629.8990 h1        1 5CA      0.144000
     43 HO'2      129.6720  -21.7010 -629.1010 ho        1 5CA      0.241000
     44 H1'       128.4970  -19.1820 -629.9560 h4        1 5CA      0.238000
     45 H8        132.2290  -18.5650 -631.1360 h5        1 5CA      0.237000
     46 H61       129.8990  -14.5530 -635.3330 hn        1 5CA      0.270000
     47 H62       131.2900  -15.3000 -634.6590 hn        1 5CA      0.270000
     48 H2        126.3110  -16.2870 -632.9780 h5        1 5CA      0.231000
     49 HN3      -274.9180   36.7220    0.9200 ha        1 5CA      0.260000
     50 H3S2     -270.7430   35.6870    0.7410 hn        1 5CA      0.261500
@<TRIPOS>BOND
     1    1    2 1   
     2    1   30 1   
     3    1   31 1   
     4    2    3 1   
     5    2    5 1   
     6    2   33 1   
     7    3    4 1   
     8    3   32 1   
     9    4   35 1   
    10    5    6 1   
    11    5    7 1   
    12    7   36 1   
    13    7   50 1   
    14    8    9 1   
    15    8   10 1   
    16    8   11 1   
    17    8   14 1   
    18   11   12 1   
    19   12   13 1   
    20   12   37 1   
    21   12   38 1   
    22   13   14 1   
    23   13   15 1   
    24   13   39 1   
    25   15   16 1   
    26   15   17 1   
    27   15   40 1   
    28   16   41 1   
    29   17   18 1   
    30   17   19 1   
    31   17   42 1   
    32   18   43 1   
    33   19   20 1   
    34   19   44 1   
    35   20   21 1   
    36   20   29 1   
    37   21   22 1   
    38   21   45 1   
    39   22   23 1   
    40   23   24 1   
    41   23   29 1   
    42   24   25 1   
    43   24   26 1   
    44   25   46 1   
    45   25   47 1   
    46   26   27 1   
    47   27   28 1   
    48   27   48 1   
    49   28   29 1   
    50   31   49 1   
@<TRIPOS>SUBSTRUCTURE
     1 5CA         1 TEMP              0 ****  ****    0 ROOT
