@<TRIPOS>MOLECULE
5CA
   51    49     1     0     0
SMALL
bcc


@<TRIPOS>ATOM
      1 N         268.8830 -496.1150    0.2360 n3        1 5CA     -0.092000
      2 CA        269.9800 -495.2270    0.7270 c2        1 5CA     -0.833000
      3 CB        269.8190 -493.7880    0.2110 c2        1 5CA     -0.148000
      4 SG        268.1500 -493.2820    0.9050 sh        1 5CA      0.931000
      5 C         271.3560 -495.7660    0.2140 c1        1 5CA      0.499000
      6 O         271.3750 -496.5840    0.1570 o         1 5CA     -0.608000
      7 N3S       272.4680 -495.3080    0.5920 n4        1 5CA     -0.418000
      8 S        -123.7090  231.3090 -897.8000 s4        1 5CA      2.079800
      9 O1S      -123.9440  232.0160 -898.8960 o         1 5CA     -0.375400
     10 O2S      -124.2950  231.2070 -896.6170 o         1 5CA     -0.375400
     11 O5'      -122.5340  230.3890 -897.9720 os        1 5CA     -0.785000
     12 C5'      -121.7130  229.4600 -897.2150 c3        1 5CA      0.100000
     13 C4'      -122.5620  228.4270 -896.4990 c3        1 5CA     -0.078000
     14 O4'      -123.0670  227.4750 -897.4450 os        1 5CA     -0.287000
     15 C3'      -121.7340  227.6600 -895.4370 c3        1 5CA      0.025000
     16 O3'      -121.8350  228.2690 -894.1860 oh        1 5CA     -0.287000
     17 C2'      -122.2900  226.2200 -895.5100 c3        1 5CA     -0.021000
     18 O2'      -123.2940  226.0920 -894.5290 oh        1 5CA     -0.314000
     19 C1'      -123.0000  226.1390 -896.9050 c3        1 5CA      0.145000
     20 N9       -122.3360  225.2750 -897.8640 na        1 5CA     -0.202000
     21 C8       -122.0650  225.5350 -899.2280 c2        1 5CA      0.052000
     22 N7       -121.6290  224.4640 -899.9140 n2        1 5CA     -0.134000
     23 C5       -121.6250  223.4160 -898.9870 c2        1 5CA     -0.145000
     24 C6       -121.3020  222.0460 -899.0470 c2        1 5CA      0.022000
     25 N6       -120.8480  221.4760 -900.3290 n4        1 5CA     -0.012000
     26 N1       -121.4040  221.2410 -897.9620 n2        1 5CA     -0.136000
     27 C2       -121.8370  221.8150 -896.8000 c2        1 5CA      0.029000
     28 N3       -122.1860  223.1090 -896.5760 n2        1 5CA     -0.117000
     29 C4       -122.0820  223.9050 -897.6680 c2        1 5CA      0.063000
     30 H         268.0170 -495.5460    0.3410 hn        1 5CA      0.250000
     31 HN2       268.7240 -496.8840    0.5810 hn        1 5CA      0.250000
     32 HA        269.9280 -495.2520    0.5960 DU        1 5CA      0.237000
     33 HB1       270.5260 -493.1410    0.6300 h4        1 5CA      0.145000
     34 HB2       270.0910 -493.6930    0.2920 DU        1 5CA      0.237000
     35 HG        267.9420 -492.5000    0.9630 hs        1 5CA     -0.142000
     36 H3S       272.4240 -494.6610    0.8440 hn        1 5CA      0.228000
     37 H5'1     -121.0670  229.0180 -898.0240 h1        1 5CA      0.160000
     38 H5'2     -121.1210  230.0730 -896.4830 h1        1 5CA      0.160000
     39 H4'      -123.4550  228.9070 -896.0030 h1        1 5CA      0.136000
     40 H3'      -120.6370  227.6740 -895.6910 h1        1 5CA      0.145000
     41 H3T      -122.6500  227.9740 -893.7460 ho        1 5CA      0.249000
     42 H2'      -121.4710  225.4670 -895.3840 h1        1 5CA      0.146000
     43 HO'2     -123.1640  225.2510 -894.0670 ho        1 5CA      0.254000
     44 H1'      -124.0740  225.7930 -896.7840 h2        1 5CA      0.171000
     45 H8       -122.2110  226.5420 -899.6530 h5        1 5CA      0.236000
     46 H61      -120.0730  222.0470 -900.6900 hn        1 5CA      0.280667
     47 H62      -121.6300  221.5050 -900.9970 hn        1 5CA      0.280667
     48 H2       -121.9130  221.1210 -895.9270 h5        1 5CA      0.250000
     49 HN3       269.1620 -496.5130    0.1480 DU        1 5CA      0.237000
     50 H3S2      273.3600 -495.6330    0.8950 hn        1 5CA      0.228000
     51 H63      -120.5340  220.5000 -900.2130 hn        1 5CA      0.280667
@<TRIPOS>BOND
     1    1    2 1   
     2    1   30 1   
     3    1   31 1   
     4    2    3 1   
     5    2    5 1   
     6    3    4 1   
     7    3   33 1   
     8    4   35 1   
     9    5    7 1   
    10    6    7 1   
    11    7   36 1   
    12    7   50 1   
    13    8    9 1   
    14    8   10 1   
    15    8   11 1   
    16   11   12 1   
    17   12   13 1   
    18   12   37 1   
    19   12   38 1   
    20   13   14 1   
    21   13   15 1   
    22   13   39 1   
    23   14   19 1   
    24   15   16 1   
    25   15   17 1   
    26   15   40 1   
    27   16   41 1   
    28   17   18 1   
    29   17   19 1   
    30   17   42 1   
    31   18   43 1   
    32   19   20 1   
    33   19   44 1   
    34   20   21 1   
    35   20   29 1   
    36   21   22 1   
    37   21   45 1   
    38   22   23 1   
    39   23   24 1   
    40   23   29 1   
    41   24   25 1   
    42   24   26 1   
    43   25   46 1   
    44   25   47 1   
    45   25   51 1   
    46   26   27 1   
    47   27   28 1   
    48   27   48 1   
    49   28   29 1   
@<TRIPOS>SUBSTRUCTURE
     1 5CA         1 TEMP              0 ****  ****    0 ROOT
