@<TRIPOS>MOLECULE
5CB
   57    60     1     0     0
SMALL
bcc


@<TRIPOS>ATOM
      1 O1         -0.2770    0.5590    0.2830 oh        1 5CB     -0.616800
      2 CL2        -1.7470   -5.0780   -4.5040 cl        1 5CB     -0.050400
      3 CL3         0.4520   -2.2540   -1.9020 cl        1 5CB     -0.211400
      4 C4         -1.4550   -4.2420   -7.0370 ca        1 5CB     -0.110000
      5 C5         -1.2490   -3.2800   -8.0100 ca        1 5CB     -0.044000
      6 C6         -1.4810   -3.8800   -5.6700 ca        1 5CB      0.058400
      7 C7         -1.0570   -1.9430   -7.6310 ca        1 5CB     -0.136100
      8 C8         -1.2960   -2.5630   -5.2720 ca        1 5CB     -0.156000
      9 C9         -1.0760   -1.5860   -6.2540 ca        1 5CB     -0.051800
     10 S10        -0.8070   -0.5880   -8.5950 ss        1 5CB      0.278500
     11 C11        -0.6940    0.4530   -7.3230 cc        1 5CB     -0.136400
     12 C12        -0.8570   -0.1700   -6.0950 cd        1 5CB     -0.244400
     13 C13        -0.8870    0.5120   -4.7970 c3        1 5CB      0.220000
     14 N14         0.3720    0.1840   -4.0120 n4        1 5CB     -0.680800
     15 C15         0.4460    0.8550   -2.6830 c         1 5CB      0.490100
     16 C16         1.7690    0.7530   -1.8990 c3        1 5CB      0.137800
     17 C17         1.9130   -1.5610   -1.1100 c3        1 5CB      0.279900
     18 N18         1.7770   -0.1630   -0.8020 n3        1 5CB     -0.797600
     19 C19         2.2680   -2.4290    0.1210 c3        1 5CB      0.099800
     20 C20         1.1000    0.2450    0.4290 c3        1 5CB      0.348000
     21 N21         1.6600   -2.0520    1.3570 n2        1 5CB     -0.483900
     22 C22         1.1230   -0.8880    1.4900 c2        1 5CB      0.475200
     23 N23         0.4360   -0.5400    2.7570 n4        1 5CB     -0.724000
     24 C24         1.3570    0.1750    3.7050 c3        1 5CB      0.117800
     25 C25         0.6380    0.6010    4.9810 c3        1 5CB     -0.144700
     26 C26         1.3940    1.1630    7.2930 ca        1 5CB     -0.215300
     27 C27         1.5820    1.3160    5.9070 ca        1 5CB      0.361600
     28 C28         2.2330    1.8650    8.1660 ca        1 5CB     -0.074000
     29 N29         2.5490    2.1120    5.3770 nb        1 5CB     -0.704000
     30 C30         3.2250    2.6870    7.6350 ca        1 5CB     -0.208300
     31 C31         3.3440    2.7740    6.2320 ca        1 5CB      0.412200
     32 O32        -0.5310    1.4750   -2.2850 o         1 5CB     -0.410100
     33 H1         -0.3660    1.4450   -0.1040 ho        1 5CB      0.456000
     34 H8         -1.3570   -2.2840   -4.2110 ha        1 5CB      0.122000
     35 H11        -0.5350    1.5270   -7.4570 h4        1 5CB      0.190000
     36 H131       -0.9340    1.6320   -4.9100 hx        1 5CB      0.115200
     37 H132       -1.7600    0.1670   -4.1680 hx        1 5CB      0.115200
     38 H14         0.4010   -0.8410   -3.8660 hn        1 5CB      0.468300
     39 H161        1.9610    1.7990   -1.5040 h1        1 5CB      0.119200
     40 H162        2.6150    0.4860   -2.5980 h1        1 5CB      0.119200
     41 H117        2.7260   -1.6920   -1.8820 h2        1 5CB      0.120700
     42 H19         1.9670   -3.5040   -0.0740 h1        1 5CB      0.146700
     43 H191        3.3920   -2.4110    0.2720 h1        1 5CB      0.146700
     44 H220        1.6760    1.1390    0.8270 h2        1 5CB      0.105700
     45 H23        -0.3670    0.0620    2.5160 hn        1 5CB      0.477300
     46 H241        1.7660    1.0750    3.1610 hx        1 5CB      0.121200
     47 H242        2.2090   -0.5220    3.9520 hx        1 5CB      0.121200
     48 H251        0.2190   -0.2970    5.5120 hc        1 5CB      0.076700
     49 H252       -0.2140    1.2950    4.7420 hc        1 5CB      0.076700
     50 H26         0.6020    0.5110    7.6870 ha        1 5CB      0.154000
     51 H28         2.1060    1.7670    9.2560 ha        1 5CB      0.167000
     52 H30         3.9050    3.2570    8.2860 ha        1 5CB      0.172000
     53 H31         4.1190    3.4130    5.7690 h4        1 5CB      0.039100
     54 H4         -1.6100   -5.2960   -7.3240 ha        1 5CB      0.178000
     55 H142        1.1890    0.4470   -4.5760 hn        1 5CB      0.468300
     56 H232        0.0750   -1.3920    3.2150 hn        1 5CB      0.477300
     57 H5         -1.2400   -3.5620   -9.0760 ha        1 5CB      0.169000
@<TRIPOS>BOND
     1    1   20 1   
     2    1   33 1   
     3    2    6 1   
     4    3   17 1   
     5    4    5 ar  
     6    4    6 ar  
     7    4   54 1   
     8    5    7 ar  
     9    5   57 1   
    10    6    8 ar  
    11    7    9 ar  
    12    7   10 1   
    13    8    9 ar  
    14    8   34 1   
    15    9   12 1   
    16   10   11 1   
    17   11   12 2   
    18   11   35 1   
    19   12   13 1   
    20   13   14 1   
    21   13   36 1   
    22   13   37 1   
    23   14   15 1   
    24   14   38 1   
    25   14   55 1   
    26   15   16 1   
    27   15   32 2   
    28   16   18 1   
    29   16   39 1   
    30   16   40 1   
    31   17   18 1   
    32   17   19 1   
    33   17   41 1   
    34   18   20 1   
    35   19   21 1   
    36   19   42 1   
    37   19   43 1   
    38   20   22 1   
    39   20   44 1   
    40   21   22 2   
    41   22   23 1   
    42   23   24 1   
    43   23   45 1   
    44   23   56 1   
    45   24   25 1   
    46   24   46 1   
    47   24   47 1   
    48   25   27 1   
    49   25   48 1   
    50   25   49 1   
    51   26   27 ar  
    52   26   28 ar  
    53   26   50 1   
    54   27   29 ar  
    55   28   30 ar  
    56   28   51 1   
    57   29   31 ar  
    58   30   31 ar  
    59   30   52 1   
    60   31   53 1   
@<TRIPOS>SUBSTRUCTURE
     1 5CB         1 TEMP              0 ****  ****    0 ROOT
