@<TRIPOS>MOLECULE
5CB
   57    60     1     0     0
SMALL
bcc


@<TRIPOS>ATOM
      1 O1          0.6450    1.4730    0.0800 oh        1 5CB     -0.611800
      2 CL2        -3.2530   -5.0610   -4.8880 cl        1 5CB     -0.040400
      3 CL3         4.4190   -0.9500   -2.3080 cl        1 5CB     -0.104400
      4 C4         -2.9790   -3.8280   -7.2550 ca        1 5CB     -0.108000
      5 C5         -2.5530   -2.8010   -8.0760 ca        1 5CB     -0.044000
      6 C6         -2.7080   -3.7930   -5.8670 ca        1 5CB      0.061400
      7 C7         -1.8420   -1.7240   -7.5240 ca        1 5CB     -0.138100
      8 C8         -2.0070   -2.7380   -5.2980 ca        1 5CB     -0.158000
      9 C9         -1.5650   -1.6970   -6.1280 ca        1 5CB     -0.049800
     10 S10        -1.2240   -0.3550   -8.2810 ss        1 5CB      0.289500
     11 C11        -0.5880    0.2770   -6.9010 cc        1 5CB     -0.142400
     12 C12        -0.8240   -0.5100   -5.7840 cd        1 5CB     -0.250400
     13 C13        -0.4340   -0.1790   -4.4100 c3        1 5CB      0.226000
     14 N14         0.7120   -1.0700   -3.9620 n4        1 5CB     -0.685800
     15 C15         1.0900   -0.8410   -2.5330 c         1 5CB      0.497100
     16 C16         1.7960    0.4780   -2.2040 c3        1 5CB      0.142800
     17 C17         3.6810   -0.3950   -0.8060 c3        1 5CB      0.258900
     18 N18         2.5630    0.5230   -1.0020 n3        1 5CB     -0.792600
     19 C19         3.3410   -1.6470    0.0490 c3        1 5CB      0.064800
     20 C20         1.9190    0.8830    0.2640 c3        1 5CB      0.354000
     21 N21         2.3840   -1.4550    1.0960 n2        1 5CB     -0.488900
     22 C22         1.7250   -0.3500    1.1920 c2        1 5CB      0.429200
     23 N23         0.7410   -0.1860    2.2880 n4        1 5CB     -0.721000
     24 C24         1.3930    0.3740    3.5220 c3        1 5CB      0.118800
     25 C25         0.3790    0.6350    4.6310 c3        1 5CB     -0.144700
     26 C26         0.5440    0.8620    7.1120 ca        1 5CB     -0.216300
     27 C27         1.0600    1.1990    5.8470 ca        1 5CB      0.361600
     28 C28         1.1370    1.4230    8.2500 ca        1 5CB     -0.074000
     29 N29         2.1140    2.0410    5.6810 nb        1 5CB     -0.702000
     30 C30         2.2150    2.2900    8.0930 ca        1 5CB     -0.208300
     31 C31         2.6690    2.5650    6.7860 ca        1 5CB      0.413200
     32 O32         0.7950   -1.7280   -1.7420 o         1 5CB     -0.440100
     33 H1          0.7720    2.4240   -0.0730 ho        1 5CB      0.465000
     34 H8         -1.8280   -2.7030   -4.2150 ha        1 5CB      0.126000
     35 H11        -0.0580    1.2340   -6.8860 h4        1 5CB      0.186000
     36 H131       -0.0860    0.8880   -4.3220 hx        1 5CB      0.100700
     37 H132       -1.2860   -0.3670   -3.6930 hx        1 5CB      0.100700
     38 H14         1.5230   -0.9040   -4.5690 hn        1 5CB      0.468800
     39 H161        0.9790    1.2620   -2.1560 h1        1 5CB      0.122200
     40 H162        2.4930    0.7430   -3.0570 h1        1 5CB      0.122200
     41 H117        4.4910    0.2050   -0.2910 h2        1 5CB      0.130700
     42 H19         2.9370   -2.4860   -0.5960 h1        1 5CB      0.139200
     43 H191        4.2930   -2.0230    0.5350 h1        1 5CB      0.139200
     44 H220        2.6300    1.5970    0.7900 h2        1 5CB      0.116700
     45 H23         0.3020   -1.0900    2.5170 hn        1 5CB      0.472300
     46 H241        1.9090    1.3320    3.2210 hx        1 5CB      0.122200
     47 H242        2.1700   -0.3660    3.8710 hx        1 5CB      0.122200
     48 H251       -0.3990    1.3720    4.2900 hc        1 5CB      0.074700
     49 H252       -0.1420   -0.3180    4.9160 hc        1 5CB      0.074700
     50 H26        -0.3100    0.1770    7.2100 ha        1 5CB      0.152000
     51 H28         0.7500    1.1800    9.2520 ha        1 5CB      0.167000
     52 H30         2.7090    2.7540    8.9600 ha        1 5CB      0.172000
     53 H31         3.5240    3.2470    6.6150 h4        1 5CB      0.040100
     54 H4         -3.5400   -4.6800   -7.6770 ha        1 5CB      0.179000
     55 H142        0.4140   -2.0520   -4.0930 hn        1 5CB      0.468800
     56 H232        0.0090    0.4590    1.9550 hn        1 5CB      0.472300
     57 H5         -2.7730   -2.8250   -9.1570 ha        1 5CB      0.169000
@<TRIPOS>BOND
     1    1   20 1   
     2    1   33 1   
     3    2    6 1   
     4    3   17 1   
     5    4    5 ar  
     6    4    6 ar  
     7    4   54 1   
     8    5    7 ar  
     9    5   57 1   
    10    6    8 ar  
    11    7    9 ar  
    12    7   10 1   
    13    8    9 ar  
    14    8   34 1   
    15    9   12 1   
    16   10   11 1   
    17   11   12 2   
    18   11   35 1   
    19   12   13 1   
    20   13   14 1   
    21   13   36 1   
    22   13   37 1   
    23   14   15 1   
    24   14   38 1   
    25   14   55 1   
    26   15   16 1   
    27   15   32 2   
    28   16   18 1   
    29   16   39 1   
    30   16   40 1   
    31   17   18 1   
    32   17   19 1   
    33   17   41 1   
    34   18   20 1   
    35   19   21 1   
    36   19   42 1   
    37   19   43 1   
    38   20   22 1   
    39   20   44 1   
    40   21   22 2   
    41   22   23 1   
    42   23   24 1   
    43   23   45 1   
    44   23   56 1   
    45   24   25 1   
    46   24   46 1   
    47   24   47 1   
    48   25   27 1   
    49   25   48 1   
    50   25   49 1   
    51   26   27 ar  
    52   26   28 ar  
    53   26   50 1   
    54   27   29 ar  
    55   28   30 ar  
    56   28   51 1   
    57   29   31 ar  
    58   30   31 ar  
    59   30   52 1   
    60   31   53 1   
@<TRIPOS>SUBSTRUCTURE
     1 5CB         1 TEMP              0 ****  ****    0 ROOT
