@<TRIPOS>MOLECULE
5CB
   55    49     1     0     0
SMALL
bcc


@<TRIPOS>ATOM
      1 O1         -2.1840    1.9980   -0.5130 oh        1 5CB     -0.333000
      2 CL2         0.8340   -7.5430   -1.2190 cl        1 5CB     -0.015000
      3 CL3        -2.1960   -0.6320   -0.6310 cl        1 5CB     -0.220000
      4 C4          2.4040   -7.2810   -3.0290 c1        1 5CB     -0.121000
      5 C5          3.2620   -6.7760   -4.0140 c1        1 5CB     -0.082000
      6 C6          1.6190   -6.3990   -2.2590 c2        1 5CB     -0.060000
      7 C7          3.3390   -5.4070   -4.2330 c1        1 5CB     -0.315000
      8 C8          1.6960   -5.0090   -2.4800 c2        1 5CB     -0.093000
      9 C9          2.5400   -4.5110   -3.4500 c1        1 5CB     -0.052000
     10 S10         4.2100   -4.5470   -5.2010 s         1 5CB      0.514000
     11 C11         3.8710   -3.0600   -4.9380 c1        1 5CB     -0.370000
     12 C12         2.8770   -3.0100   -3.8980 c1        1 5CB     -0.127000
     13 C13         2.0180   -1.7830   -4.0870 c2        1 5CB      0.029000
     14 N14         2.3770   -0.7820   -3.0940 n         1 5CB     -0.366000
     15 C15         1.5160    0.4240   -2.9030 c2        1 5CB      0.276000
     16 C16         1.1970    0.9280   -1.4780 c3        1 5CB     -0.042000
     17 C17        -0.3710   -0.3120   -0.7090 c3        1 5CB      0.049000
     18 N18        -0.2090    0.7340   -1.2010 n3        1 5CB     -0.347000
     19 C19         0.2700   -0.5010    0.8840 c3        1 5CB     -0.080000
     20 C20        -0.7520    1.9440   -0.4320 c3        1 5CB      0.141000
     21 N21        -0.1260    0.4870    1.6880 n2        1 5CB     -0.234000
     22 C22        -0.3110    1.9610    0.9760 c2        1 5CB      0.054000
     23 N23        -0.5600    3.1450    1.8020 n3        1 5CB     -0.278000
     24 C24        -0.9060    2.9920    3.1670 c3        1 5CB     -0.044000
     25 C25        -1.3240    4.3390    3.7450 c3        1 5CB     -0.123000
     26 C26        -3.8720    4.5080    4.1920 c1        1 5CB     -0.129000
     27 C27        -2.5950    4.1510    4.6690 c1        1 5CB     -0.015000
     28 C28        -4.9570    4.4010    5.0080 c1        1 5CB     -0.129000
     29 N29        -2.4480    3.7020    5.9390 n1        1 5CB     -0.136000
     30 C30        -4.8040    3.9420    6.3080 c1        1 5CB     -0.129000
     31 C31        -3.5540    3.5940    6.7710 c1        1 5CB     -0.129000
     32 O32         1.0990    1.0270   -3.8640 o         1 5CB     -0.373000
     33 H1         -2.4310    2.6100   -1.1460 ho        1 5CB      0.216000
     34 H4          2.2870   -8.2410   -2.9360 ha        1 5CB      0.149000
     35 H5          3.7990   -7.3780   -4.5400 ha        1 5CB      0.142000
     36 H8          1.1590   -4.3940   -1.9330 ha        1 5CB      0.149000
     37 H11         4.2110   -2.2970   -5.4430 DU        1 5CB      0.183000
     38 H131        1.0820   -2.0230   -3.9810 h4        1 5CB      0.111500
     39 H132        2.1630   -1.4240   -4.9770 h4        1 5CB      0.111500
     40 H14         3.1460   -0.9030   -2.5580 hn        1 5CB      0.237000
     41 H161        1.4140    1.8830   -1.4130 h1        1 5CB      0.124000
     42 H162        1.7370    0.4200   -0.8190 h1        1 5CB      0.124000
     43 H117        0.0390   -0.9910   -1.2880 h2        1 5CB      0.133000
     44 H19         1.2520   -0.6910    0.9990 h1        1 5CB      0.123000
     45 H191       -0.1070   -1.3580    1.2060 h1        1 5CB      0.123000
     46 H220       -0.5060    2.7830   -0.8860 h2        1 5CB      0.157000
     47 H23        -0.4410    3.9840    1.4500 hn        1 5CB      0.207000
     48 H241       -0.1350    2.6550    3.6600 h1        1 5CB      0.103000
     49 H242       -1.6380    2.3640    3.2450 h1        1 5CB      0.103000
     50 H251       -1.5390    4.9560    3.0160 hc        1 5CB      0.100000
     51 H252       -0.5820    4.7080    4.2800 hc        1 5CB      0.100000
     52 H26        -3.9780    4.8300    3.2820 ha        1 5CB      0.146250
     53 H28        -5.8490    4.6500    4.6750 ha        1 5CB      0.146250
     54 H30        -5.5980    3.8630    6.9080 ha        1 5CB      0.146250
     55 H31        -3.4460    3.2720    7.6810 ha        1 5CB      0.146250
@<TRIPOS>BOND
     1    1   20 1   
     2    1   33 1   
     3    2    6 1   
     4    3   17 1   
     5    4    6 1   
     6    4   34 1   
     7    5    7 1   
     8    5   35 1   
     9    6    8 1   
    10    8    9 1   
    11    8   36 1   
    12   10   11 1   
    13   11   12 1   
    14   13   14 1   
    15   13   38 1   
    16   13   39 1   
    17   14   15 1   
    18   14   40 1   
    19   15   16 1   
    20   15   32 1   
    21   16   18 1   
    22   16   41 1   
    23   16   42 1   
    24   17   18 1   
    25   17   19 1   
    26   17   43 1   
    27   18   20 1   
    28   19   21 1   
    29   19   44 1   
    30   19   45 1   
    31   20   22 1   
    32   20   46 1   
    33   21   22 1   
    34   22   23 1   
    35   23   24 1   
    36   23   47 1   
    37   24   25 1   
    38   24   48 1   
    39   24   49 1   
    40   25   27 1   
    41   25   50 1   
    42   25   51 1   
    43   26   28 1   
    44   26   52 1   
    45   27   29 1   
    46   28   53 1   
    47   30   31 1   
    48   30   54 1   
    49   31   55 1   
@<TRIPOS>SUBSTRUCTURE
     1 5CB         1 TEMP              0 ****  ****    0 ROOT
