@<TRIPOS>MOLECULE
5CB
   57    60     1     0     0
SMALL
bcc


@<TRIPOS>ATOM
      1 O1          0.6840    1.4730    0.0750 oh        1 5CB     -0.611800
      2 Cl2        -3.3730   -4.9730   -4.8770 cl        1 5CB     -0.040400
      3 Cl3         4.4010   -1.0510   -2.2980 cl        1 5CB     -0.104400
      4 C4         -3.0610   -3.7580   -7.2490 ca        1 5CB     -0.108000
      5 C5         -2.6050   -2.7460   -8.0730 ca        1 5CB     -0.044000
      6 C6         -2.7920   -3.7240   -5.8600 ca        1 5CB      0.061400
      7 C7         -1.8660   -1.6870   -7.5250 ca        1 5CB     -0.138100
      8 C8         -2.0640   -2.6860   -5.2950 ca        1 5CB     -0.158000
      9 C9         -1.5920   -1.6610   -6.1280 ca        1 5CB     -0.049800
     10 S10        -1.2100   -0.3390   -8.2860 ss        1 5CB      0.289500
     11 C11        -0.5600    0.2820   -6.9070 cc        1 5CB     -0.142400
     12 C12        -0.8200   -0.4930   -5.7870 cd        1 5CB     -0.250400
     13 C13        -0.4250   -0.1660   -4.4140 c3        1 5CB      0.226000
     14 N14         0.6960   -1.0850   -3.9590 ny        1 5CB     -0.685800
     15 C15         1.0760   -0.8610   -2.5300 c         1 5CB      0.497100
     16 C16         1.8140    0.4420   -2.2040 c3        1 5CB      0.142800
     17 C17         3.6740   -0.4730   -0.7990 c3        1 5CB      0.258900
     18 N18         2.5790    0.4710   -1.0010 n3        1 5CB     -0.792600
     19 C19         3.3010   -1.7140    0.0600 c3        1 5CB      0.064800
     20 C20         1.9430    0.8520    0.2630 c3        1 5CB      0.354000
     21 N21         2.3480   -1.4940    1.1030 n2        1 5CB     -0.488900
     22 C22         1.7160   -0.3720    1.1950 c2        1 5CB      0.429200
     23 N23         0.7350   -0.1810    2.2880 ny        1 5CB     -0.721000
     24 C24         1.3980    0.3660    3.5220 c3        1 5CB      0.118800
     25 C25         0.3890    0.6560    4.6280 c3        1 5CB     -0.144700
     26 C26         0.5590    0.8840    7.1090 ca        1 5CB     -0.216300
     27 C27         1.0810    1.2090    5.8430 ca        1 5CB      0.361600
     28 C28         1.1630    1.4350    8.2450 ca        1 5CB     -0.074000
     29 N29         2.1510    2.0300    5.6750 nb        1 5CB     -0.702000
     30 C30         2.2590    2.2800    8.0860 ca        1 5CB     -0.208300
     31 C31         2.7160    2.5450    6.7780 ca        1 5CB      0.413200
     32 O32         0.7570   -1.7370   -1.7360 o         1 5CB     -0.440100
     33 H1          0.8350    2.4200   -0.0820 ho        1 5CB      0.465000
     34 H8         -1.8860   -2.6510   -4.2110 ha        1 5CB      0.126000
     35 H11        -0.0050    1.2250   -6.8950 h4        1 5CB      0.186000
     36 H131       -1.2830   -0.3280   -3.6980 hx        1 5CB      0.100700
     37 H132       -0.0490    0.8920   -4.3290 hx        1 5CB      0.100700
     38 H14         0.3730   -2.0590   -4.0870 hn        1 5CB      0.468800
     39 H161        1.0170    1.2460   -2.1600 h1        1 5CB      0.122200
     40 H162        2.5190    0.6860   -3.0560 h1        1 5CB      0.122200
     41 H117        4.4980    0.1080   -0.2840 h2        1 5CB      0.130700
     42 H19         2.8780   -2.5440   -0.5840 h1        1 5CB      0.139200
     43 H191        4.2430   -2.1110    0.5480 h1        1 5CB      0.139200
     44 H220        2.6700    1.5500    0.7880 h2        1 5CB      0.116700
     45 H23         0.2720   -1.0720    2.5190 hn        1 5CB      0.472300
     46 H241        2.1550   -0.3930    3.8750 hx        1 5CB      0.122200
     47 H242        1.9380    1.3100    3.2190 hx        1 5CB      0.122200
     48 H251       -0.3710    1.4100    4.2830 hc        1 5CB      0.074700
     49 H252       -0.1560   -0.2830    4.9160 hc        1 5CB      0.074700
     50 H26        -0.3070    0.2160    7.2080 ha        1 5CB      0.152000
     51 H28         0.7730    1.2010    9.2490 ha        1 5CB      0.167000
     52 H30         2.7610    2.7360    8.9520 ha        1 5CB      0.172000
     53 H31         3.5840    3.2090    6.6060 h4        1 5CB      0.040100
     54 H4         -3.6430   -4.5960   -7.6690 ha        1 5CB      0.179000
     55 H142        1.5120   -0.9440   -4.5640 hn        1 5CB      0.468800
     56 H232        0.0200    0.4820    1.9520 hn        1 5CB      0.472300
     57 H5         -2.8220   -2.7690   -9.1550 ha        1 5CB      0.169000
@<TRIPOS>BOND
     1    1   20 1   
     2    1   33 1   
     3    2    6 1   
     4    3   17 1   
     5    4    5 ar  
     6    4    6 ar  
     7    4   54 1   
     8    5    7 ar  
     9    5   57 1   
    10    6    8 ar  
    11    7    9 ar  
    12    7   10 1   
    13    8    9 ar  
    14    8   34 1   
    15    9   12 1   
    16   10   11 1   
    17   11   12 2   
    18   11   35 1   
    19   12   13 1   
    20   13   14 1   
    21   13   36 1   
    22   13   37 1   
    23   14   15 1   
    24   14   38 1   
    25   14   55 1   
    26   15   16 1   
    27   15   32 2   
    28   16   18 1   
    29   16   39 1   
    30   16   40 1   
    31   17   18 1   
    32   17   19 1   
    33   17   41 1   
    34   18   20 1   
    35   19   21 1   
    36   19   42 1   
    37   19   43 1   
    38   20   22 1   
    39   20   44 1   
    40   21   22 2   
    41   22   23 1   
    42   23   24 1   
    43   23   45 1   
    44   23   56 1   
    45   24   25 1   
    46   24   46 1   
    47   24   47 1   
    48   25   27 1   
    49   25   48 1   
    50   25   49 1   
    51   26   27 ar  
    52   26   28 ar  
    53   26   50 1   
    54   27   29 ar  
    55   28   30 ar  
    56   28   51 1   
    57   29   31 ar  
    58   30   31 ar  
    59   30   52 1   
    60   31   53 1   
@<TRIPOS>SUBSTRUCTURE
     1 5CB         1 TEMP              0 ****  ****    0 ROOT
