@<TRIPOS>MOLECULE
5CB
   55    58     1     0     0
SMALL
bcc


@<TRIPOS>ATOM
      1 O1          1.6420    1.9450    0.0680 oh        1 5CB     -0.615800
      2 CL2        -4.0850   -3.5080    1.4390 cl        1 5CB     -0.088400
      3 CL3        -0.2950   -0.9520    0.2320 cl        1 5CB     -0.265400
      4 C4         -6.3380   -2.1610    0.8770 ca        1 5CB     -0.119000
      5 C5         -7.0590   -1.0250    0.5560 ca        1 5CB     -0.083000
      6 C6         -4.9380   -2.0910    1.0400 ca        1 5CB      0.017400
      7 C7         -6.3890    0.1930    0.3910 ca        1 5CB     -0.087100
      8 C8         -4.2500   -0.8950    0.8830 ca        1 5CB     -0.097000
      9 C9         -4.9770    0.2570    0.5520 ca        1 5CB     -0.066800
     10 S10        -7.0170    1.7130    0.0100 ss        1 5CB      0.053500
     11 C11        -5.5130    2.4620    0.0360 cc        1 5CB     -0.134400
     12 C12        -4.4910    1.6010    0.3370 cd        1 5CB     -0.106400
     13 C13        -3.0570    1.9850    0.4610 c3        1 5CB      0.148200
     14 N14        -2.2340    1.4270   -0.5830 n         1 5CB     -0.544900
     15 C15        -1.1720    2.1040   -1.1180 c         1 5CB      0.627100
     16 C16        -0.3310    1.4030   -2.2050 c3        1 5CB      0.131800
     17 C17         0.5150   -0.7560   -1.3750 c3        1 5CB      0.309900
     18 N18         0.7670    0.5960   -1.7570 n3        1 5CB     -0.802600
     19 C19         1.8070   -1.6120   -1.3730 c3        1 5CB      0.131800
     20 C20         1.9060    1.2860   -1.1640 c3        1 5CB      0.332000
     21 N21         3.0100   -0.9840   -0.9310 n2        1 5CB     -0.647900
     22 C22         3.0850    0.3120   -0.8400 c2        1 5CB      0.614200
     23 N23         4.2680    1.0080   -0.5120 nh        1 5CB     -0.787200
     24 C24         5.4000    0.2440   -0.0250 c3        1 5CB      0.184800
     25 C25         6.5850    1.1490    0.3310 c3        1 5CB     -0.138700
     26 C26         8.8240    0.1290   -0.1550 ca        1 5CB     -0.242300
     27 C27         7.7570    0.3090    0.7520 ca        1 5CB      0.408600
     28 C28         9.9190   -0.6450    0.2310 ca        1 5CB     -0.092000
     29 N29         7.7570   -0.2440    1.9920 nb        1 5CB     -0.663000
     30 C30         9.9270   -1.2180    1.5020 ca        1 5CB     -0.248300
     31 C31         8.8210   -0.9870    2.3420 ca        1 5CB      0.399200
     32 O32        -0.8920    3.2780   -0.7920 o         1 5CB     -0.634100
     33 H1          1.0710    2.7090   -0.1060 ho        1 5CB      0.436000
     34 H5         -8.1520   -1.0760    0.4320 ha        1 5CB      0.143000
     35 H8         -3.1590   -0.8420    1.0220 ha        1 5CB      0.157000
     36 H11        -5.4000    3.5270   -0.1720 h4        1 5CB      0.178000
     37 H131       -2.6770    1.6250    1.4640 h1        1 5CB      0.071700
     38 H132       -2.9560    3.1100    0.4360 h1        1 5CB      0.071700
     39 H14        -2.3550    0.4620   -0.7880 hn        1 5CB      0.321500
     40 H161        0.0930    2.2340   -2.8420 h1        1 5CB      0.079200
     41 H162       -1.0030    0.7720   -2.8530 h1        1 5CB      0.079200
     42 H117       -0.2340   -1.2110   -2.0810 h2        1 5CB      0.079700
     43 H19         1.9680   -1.9790   -2.4290 h1        1 5CB      0.079200
     44 H191        1.6460   -2.5120   -0.7120 h1        1 5CB      0.079200
     45 H220        2.2480    2.0420   -1.9370 h2        1 5CB      0.075700
     46 H23         4.0640    1.8140    0.0500 hn        1 5CB      0.409800
     47 H241        5.1280   -0.3720    0.8810 h1        1 5CB      0.062700
     48 H242        5.7120   -0.4670   -0.8410 h1        1 5CB      0.062700
     49 H251        6.8790    1.7710   -0.5550 hc        1 5CB      0.060700
     50 H252        6.2980    1.8510    1.1600 hc        1 5CB      0.060700
     51 H26         8.7870    0.5920   -1.1500 ha        1 5CB      0.144000
     52 H28        10.7620   -0.7990   -0.4580 ha        1 5CB      0.138000
     53 H30        10.7680   -1.8340    1.8460 ha        1 5CB      0.143000
     54 H31         8.7830   -1.4210    3.3570 h4        1 5CB      0.023100
     55 H4         -6.8540   -3.1250    1.0090 ha        1 5CB      0.150000
@<TRIPOS>BOND
     1    1   20 1   
     2    1   33 1   
     3    2    6 1   
     4    3   17 1   
     5    4    5 ar  
     6    4    6 ar  
     7    4   55 1   
     8    5    7 ar  
     9    5   34 1   
    10    6    8 ar  
    11    7    9 ar  
    12    7   10 1   
    13    8    9 ar  
    14    8   35 1   
    15    9   12 1   
    16   10   11 1   
    17   11   12 2   
    18   11   36 1   
    19   12   13 1   
    20   13   14 1   
    21   13   37 1   
    22   13   38 1   
    23   14   15 1   
    24   14   39 1   
    25   15   16 1   
    26   15   32 2   
    27   16   18 1   
    28   16   40 1   
    29   16   41 1   
    30   17   18 1   
    31   17   19 1   
    32   17   42 1   
    33   18   20 1   
    34   19   21 1   
    35   19   43 1   
    36   19   44 1   
    37   20   22 1   
    38   20   45 1   
    39   21   22 2   
    40   22   23 1   
    41   23   24 1   
    42   23   46 1   
    43   24   25 1   
    44   24   47 1   
    45   24   48 1   
    46   25   27 1   
    47   25   49 1   
    48   25   50 1   
    49   26   27 ar  
    50   26   28 ar  
    51   26   51 1   
    52   27   29 ar  
    53   28   30 ar  
    54   28   52 1   
    55   29   31 ar  
    56   30   31 ar  
    57   30   53 1   
    58   31   54 1   
@<TRIPOS>SUBSTRUCTURE
     1 5CB         1 TEMP              0 ****  ****    0 ROOT
