@<TRIPOS>MOLECULE
5CD
   32    34     1     0     0
SMALL
bcc


@<TRIPOS>ATOM
      1 N9         -0.3990   -0.2110   -0.1860 na        1 5CD     -0.272000
      2 C8          0.8190   -0.9170   -0.2810 cc        1 5CD      0.514700
      3 N7          1.5190   -0.9640    0.8710 nd        1 5CD     -0.591100
      4 C5          0.7320   -0.2750    1.7960 ca        1 5CD     -0.135200
      5 C4         -0.5090    0.2150    1.1450 ca        1 5CD      0.452800
      6 N3         -1.4600    0.9150    1.8080 nb        1 5CD     -0.611000
      7 C2         -1.1800    1.1250    3.1210 ca        1 5CD      0.669900
      8 N1         -0.0860    0.7300    3.8360 nb        1 5CD     -0.677000
      9 C6          0.8600    0.0300    3.1610 ca        1 5CD      0.514200
     10 N6          2.0640   -0.4360    3.8730 n4        1 5CD     -0.814300
     11 O2'        -3.3050    1.4140   -1.4530 oh        1 5CD     -0.563800
     12 C2'        -1.9090    1.3250   -1.5440 c3        1 5CD      0.090100
     13 C3'        -1.3970    1.5760   -2.9840 c3        1 5CD      0.083100
     14 O3'        -2.4890    1.7310   -3.8680 oh        1 5CD     -0.579800
     15 C4'        -0.6610    0.2850   -3.4010 c3        1 5CD      0.119100
     16 C5'         0.8330    0.5310   -3.5100 c3        1 5CD     -0.004000
     17 CL          1.7250   -0.9150   -3.9130 cl        1 5CD     -0.146400
     18 O4'        -0.9570   -0.7150   -2.4080 os        1 5CD     -0.391600
     19 C1'        -1.4420   -0.1290   -1.2080 c3        1 5CD      0.207800
     20 H8          1.1340   -1.3750   -1.2400 h5        1 5CD      0.127800
     21 H2         -1.9450    1.6960    3.6990 h5        1 5CD      0.102100
     22 H6N1        2.8930   -0.0740    3.3850 hn        1 5CD      0.478133
     23 H6N2        2.0810   -1.4630    3.8460 hn        1 5CD      0.478133
     24 H2'        -3.6920    0.9090   -2.1870 ho        1 5CD      0.432000
     25 HA         -1.5220    2.0880   -0.8170 h1        1 5CD      0.110700
     26 H3'        -0.7230    2.4710   -3.0220 h1        1 5CD      0.074700
     27 HB         -2.8850    2.5960   -3.6870 ho        1 5CD      0.432000
     28 H4'        -1.0790   -0.1380   -4.3590 h1        1 5CD      0.136700
     29 H5'1        1.0270    1.2720   -4.3250 h1        1 5CD      0.078200
     30 H5'2        1.2500    0.9090   -2.5460 h1        1 5CD      0.078200
     31 H1'        -2.3120   -0.7710   -0.8670 h2        1 5CD      0.127700
     32 H63         2.0680   -0.1150    4.8510 hn        1 5CD      0.478133
@<TRIPOS>BOND
     1    1    2 1   
     2    1    5 1   
     3    1   19 1   
     4    2    3 2   
     5    2   20 1   
     6    3    4 1   
     7    4    5 ar  
     8    4    9 ar  
     9    5    6 ar  
    10    6    7 ar  
    11    7    8 ar  
    12    7   21 1   
    13    8    9 ar  
    14    9   10 1   
    15   10   22 1   
    16   10   23 1   
    17   10   32 1   
    18   11   12 1   
    19   11   24 1   
    20   12   13 1   
    21   12   19 1   
    22   12   25 1   
    23   13   14 1   
    24   13   15 1   
    25   13   26 1   
    26   14   27 1   
    27   15   16 1   
    28   15   18 1   
    29   15   28 1   
    30   16   17 1   
    31   16   29 1   
    32   16   30 1   
    33   18   19 1   
    34   19   31 1   
@<TRIPOS>SUBSTRUCTURE
     1 5CD         1 TEMP              0 ****  ****    0 ROOT
