@<TRIPOS>MOLECULE
5CD
   31    33     1     0     0
SMALL
bcc


@<TRIPOS>ATOM
      1 N9         -0.3330   -0.2690   -0.2620 na        1 5CD     -0.297000
      2 C8          0.9240   -0.9170   -0.3660 cc        1 5CD      0.421700
      3 N7          1.6290   -0.8950    0.7730 nd        1 5CD     -0.545100
      4 C5          0.8180   -0.2170    1.6970 ca        1 5CD     -0.229200
      5 C4         -0.4330    0.1800    1.0630 ca        1 5CD      0.450800
      6 N3         -1.4360    0.8510    1.7070 nb        1 5CD     -0.761000
      7 C2         -1.1380    1.1030    3.0050 ca        1 5CD      0.690900
      8 N1         -0.0280    0.7980    3.7250 nb        1 5CD     -0.795000
      9 C6          0.9890    0.1290    3.0800 ca        1 5CD      0.766200
     10 N6          2.1490   -0.1880    3.7320 nh        1 5CD     -0.956500
     11 O2'        -3.3000    1.2780   -1.4570 oh        1 5CD     -0.592800
     12 C2'        -1.8910    1.2590   -1.5240 c3        1 5CD      0.082100
     13 C3'        -1.4660    1.5590   -2.9780 c3        1 5CD      0.129100
     14 O3'        -2.5340    1.8930   -3.8280 oh        1 5CD     -0.572800
     15 C4'        -0.7350    0.2840   -3.4600 c3        1 5CD      0.086100
     16 C5'         0.7520    0.5440   -3.6360 c3        1 5CD      0.008000
     17 CL          1.5820   -0.8060   -4.3770 cl        1 5CD     -0.170400
     18 O4'        -0.9570   -0.7480   -2.4890 os        1 5CD     -0.396600
     19 C1'        -1.3920   -0.1980   -1.2440 c3        1 5CD      0.222800
     20 H8          1.2350   -1.3790   -1.3140 h5        1 5CD      0.092800
     21 H2         -1.9250    1.6430    3.5760 h5        1 5CD      0.052100
     22 H6N1        2.8320   -0.7230    3.2580 hn        1 5CD      0.450800
     23 H6N2        2.2550    0.0030    4.6970 hn        1 5CD      0.450800
     24 H2'        -3.5350    1.3570   -0.5220 ho        1 5CD      0.435000
     25 HA         -1.4470    2.0100   -0.8190 h1        1 5CD      0.086700
     26 H3'        -0.7880    2.4560   -3.0130 h1        1 5CD      0.093700
     27 HB         -3.2660    1.2860   -3.6510 ho        1 5CD      0.427000
     28 H4'        -1.1910   -0.1110   -4.4100 h1        1 5CD      0.107700
     29 H5'1        0.9050    1.4230   -4.3090 h1        1 5CD      0.077200
     30 H5'2        1.2440    0.7210   -2.6500 h1        1 5CD      0.077200
     31 H1'        -2.2480   -0.8570   -0.9050 h2        1 5CD      0.106700
@<TRIPOS>BOND
     1    1    2 1   
     2    1    5 1   
     3    1   19 1   
     4    2    3 2   
     5    2   20 1   
     6    3    4 1   
     7    4    5 ar  
     8    4    9 ar  
     9    5    6 ar  
    10    6    7 ar  
    11    7    8 ar  
    12    7   21 1   
    13    8    9 ar  
    14    9   10 1   
    15   10   22 1   
    16   10   23 1   
    17   11   12 1   
    18   11   24 1   
    19   12   13 1   
    20   12   19 1   
    21   12   25 1   
    22   13   14 1   
    23   13   15 1   
    24   13   26 1   
    25   14   27 1   
    26   15   16 1   
    27   15   18 1   
    28   15   28 1   
    29   16   17 1   
    30   16   29 1   
    31   16   30 1   
    32   18   19 1   
    33   19   31 1   
@<TRIPOS>SUBSTRUCTURE
     1 5CD         1 TEMP              0 ****  ****    0 ROOT
