@<TRIPOS>MOLECULE
5CD
   31    33     1     0     0
SMALL
bcc


@<TRIPOS>ATOM
      1 N9          0.6880   -0.5280    0.2670 na        1 5CD     -0.286000
      2 C8          0.6020    0.3470    1.3830 cc        1 5CD      0.392700
      3 N7          1.7130    1.0610    1.6000 nd        1 5CD     -0.533100
      4 C5          2.5940    0.6840    0.5740 ca        1 5CD     -0.241200
      5 C4          1.9610   -0.3070   -0.2900 ca        1 5CD      0.479800
      6 N3          2.5730   -0.8670   -1.3750 nb        1 5CD     -0.731000
      7 C2          3.8310   -0.3990   -1.5620 ca        1 5CD      0.691900
      8 N1          4.5430    0.5120   -0.8500 nb        1 5CD     -0.795000
      9 C6          3.9350    1.0790    0.2480 ca        1 5CD      0.767200
     10 N6          4.5900    2.0010    1.0180 nh        1 5CD     -0.961500
     11 O2'        -1.4620   -3.3370    0.2180 oh        1 5CD     -0.581800
     12 C2'        -1.2640   -2.0360    0.7240 c3        1 5CD      0.127100
     13 C3'        -2.5430   -1.1710    0.7880 c3        1 5CD      0.079100
     14 O3'        -3.6600   -2.0350    0.7780 oh        1 5CD     -0.594800
     15 C4'        -2.4910   -0.2660   -0.4600 c3        1 5CD      0.090100
     16 C5'        -2.6060    1.2140   -0.1330 c3        1 5CD      0.010000
     17 CL         -4.1860    1.5870    0.5280 cl        1 5CD     -0.187400
     18 O4'        -1.2410   -0.4870   -1.1200 os        1 5CD     -0.398600
     19 C1'        -0.3650   -1.3090   -0.3290 c3        1 5CD      0.243800
     20 H8         -0.3030    0.3820    2.0020 h5        1 5CD      0.065800
     21 H2          4.3680   -0.8250   -2.4380 h5        1 5CD      0.054100
     22 H6N1        5.5150    2.2770    0.8020 hn        1 5CD      0.450800
     23 H6N2        4.1270    2.3910    1.7990 hn        1 5CD      0.450800
     24 H2'        -2.3020   -3.6700    0.5640 ho        1 5CD      0.437000
     25 HA         -0.7840   -2.1080    1.7360 h1        1 5CD      0.070700
     26 H3'        -2.5490   -0.5540    1.7290 h1        1 5CD      0.058700
     27 HB         -4.4480   -1.4760    0.7780 ho        1 5CD      0.429000
     28 H4'        -3.2810   -0.5700   -1.2040 h1        1 5CD      0.095700
     29 H5'1       -1.8440    1.5240    0.6230 h1        1 5CD      0.083700
     30 H5'2       -2.4780    1.8220   -1.0610 h1        1 5CD      0.083700
     31 H1'         0.0910   -2.0420   -1.0620 h2        1 5CD      0.149700
@<TRIPOS>BOND
     1    1    2 1   
     2    1    5 1   
     3    1   19 1   
     4    2    3 2   
     5    2   20 1   
     6    3    4 1   
     7    4    5 ar  
     8    4    9 ar  
     9    5    6 ar  
    10    6    7 ar  
    11    7    8 ar  
    12    7   21 1   
    13    8    9 ar  
    14    9   10 1   
    15   10   22 1   
    16   10   23 1   
    17   11   12 1   
    18   11   24 1   
    19   12   13 1   
    20   12   19 1   
    21   12   25 1   
    22   13   14 1   
    23   13   15 1   
    24   13   26 1   
    25   14   27 1   
    26   15   16 1   
    27   15   18 1   
    28   15   28 1   
    29   16   17 1   
    30   16   29 1   
    31   16   30 1   
    32   18   19 1   
    33   19   31 1   
@<TRIPOS>SUBSTRUCTURE
     1 5CD         1 TEMP              0 ****  ****    0 ROOT
