@<TRIPOS>MOLECULE
5CD
   31    28     1     0     0
SMALL
bcc


@<TRIPOS>ATOM
      1 N9          0.2550    0.0250    0.5650 n2        1 5CD     -0.214000
      2 C8          1.5530    0.4530    0.5820 c1        1 5CD     -0.034000
      3 N7          2.0190    0.3150    1.8330 n2        1 5CD     -0.118000
      4 C5          1.0090   -0.2020    2.6090 c1        1 5CD     -0.238000
      5 C4         -0.0710   -0.3780    1.8240 c1        1 5CD      0.059000
      6 N3         -1.2500   -0.7950    2.3710 n1        1 5CD     -0.235000
      7 C2         -1.3340   -1.0360    3.7240 c1        1 5CD      0.028000
      8 N1         -0.2480   -0.8590    4.5130 n1        1 5CD     -0.269000
      9 C6          0.9210   -0.4460    3.9740 c1        1 5CD      0.245000
     10 N6          1.8090   -0.2200    5.0500 n3        1 5CD     -0.354000
     11 O2'        -2.0680    1.5680   -0.7000 oh        1 5CD     -0.320000
     12 C2'        -0.7610    1.0240   -1.1590 c3        1 5CD     -0.029000
     13 C3'        -0.7990    0.7540   -2.6900 c3        1 5CD      0.018000
     14 O3'        -2.0650    0.8400   -3.1490 oh        1 5CD     -0.300000
     15 C4'        -0.2650   -0.6710   -2.8700 c3        1 5CD     -0.025000
     16 C5'         0.8430   -0.7040   -3.9840 c3        1 5CD     -0.144000
     17 CL          1.4800   -2.3280   -4.1230 cl        1 5CD     -0.097000
     18 O4'         0.2460   -0.9890   -1.7210 os        1 5CD     -0.253000
     19 C1'        -0.5470   -0.1230   -0.6260 c2        1 5CD      0.131000
     20 H8          2.0530    0.7890   -0.1780 DU        1 5CD      0.222000
     21 H2         -2.1760   -1.3330    4.1140 ha        1 5CD      0.189000
     22 H6N1        1.9160   -0.8610    5.6980 hn        1 5CD      0.246000
     23 H6N2        2.3000    0.5400    5.0790 hn        1 5CD      0.246000
     24 H2'        -2.0700    2.4600   -0.7930 ho        1 5CD      0.234000
     25 HA         -0.0330    1.6470   -0.9380 h1        1 5CD      0.126000
     26 H3'        -0.2270    1.3910   -3.1590 h1        1 5CD      0.133000
     27 HB         -2.1190    1.4950   -3.7480 ho        1 5CD      0.226000
     28 H4'        -0.9980   -1.2840   -3.0990 h1        1 5CD      0.147000
     29 H5'1        0.4510   -0.4290   -4.8490 h1        1 5CD      0.116500
     30 H5'2        1.5700   -0.0870   -3.7430 h1        1 5CD      0.116500
     31 H1'        -1.3940   -0.5550   -0.4070 h4        1 5CD      0.146000
@<TRIPOS>BOND
     1    1    2 1   
     2    1    5 1   
     3    2    3 1   
     4    3    4 1   
     5    4    9 1   
     6    5    6 1   
     7    7    8 1   
     8    7   21 1   
     9    9   10 1   
    10   10   22 1   
    11   10   23 1   
    12   11   12 1   
    13   11   24 1   
    14   12   13 1   
    15   12   19 1   
    16   12   25 1   
    17   13   14 1   
    18   13   15 1   
    19   13   26 1   
    20   14   27 1   
    21   15   16 1   
    22   15   18 1   
    23   15   28 1   
    24   16   17 1   
    25   16   29 1   
    26   16   30 1   
    27   18   19 1   
    28   19   31 1   
@<TRIPOS>SUBSTRUCTURE
     1 5CD         1 TEMP              0 ****  ****    0 ROOT
