@<TRIPOS>MOLECULE
5CD
   31    33     1     0     0
SMALL
bcc


@<TRIPOS>ATOM
      1 N9         -0.2930   -0.3220   -0.2520 na        1 5CD     -0.296000
      2 C8          0.9590   -0.9860   -0.2990 cc        1 5CD      0.425700
      3 N7          1.6280   -0.9410    0.8610 nd        1 5CD     -0.546100
      4 C5          0.7970   -0.2280    1.7390 ca        1 5CD     -0.228200
      5 C4         -0.4270    0.1690    1.0550 ca        1 5CD      0.449800
      6 N3         -1.4390    0.8740    1.6470 nb        1 5CD     -0.767000
      7 C2         -1.1790    1.1590    2.9450 ca        1 5CD      0.691900
      8 N1         -0.0970    0.8590    3.7090 nb        1 5CD     -0.795000
      9 C6          0.9290    0.1560    3.1170 ca        1 5CD      0.766200
     10 N6          2.0630   -0.1600    3.8150 nv        1 5CD     -0.956500
     11 O2'        -3.2060    1.2820   -1.3080 oh        1 5CD     -0.597800
     12 C2'        -1.8220    1.1970   -1.5540 c3        1 5CD      0.084100
     13 C3'        -1.5630    1.4280   -3.0590 c3        1 5CD      0.129100
     14 O3'        -2.7190    1.4110   -3.8680 oh        1 5CD     -0.587800
     15 C4'        -0.6840    0.2350   -3.4980 c3        1 5CD      0.120100
     16 C5'         0.7680    0.6580   -3.6490 c3        1 5CD      0.005000
     17 Cl          1.7510   -0.5950   -4.3730 cl        1 5CD     -0.168400
     18 O4'        -0.8150   -0.7900   -2.5020 os        1 5CD     -0.395600
     19 C1'        -1.3140   -0.2560   -1.2740 c3        1 5CD      0.225800
     20 H8          1.2950   -1.4720   -1.2260 h5        1 5CD      0.092800
     21 H2         -1.9740    1.7280    3.4760 h5        1 5CD      0.051100
     22 H6N1        2.7530   -0.7180    3.3780 hn        1 5CD      0.450800
     23 H6N2        2.1410    0.0570    4.7780 hn        1 5CD      0.450800
     24 H2'        -3.3210    1.3110   -0.3470 ho        1 5CD      0.442000
     25 HA         -1.2680    1.9620   -0.9450 h1        1 5CD      0.077700
     26 H3'        -1.0360    2.4090   -3.2110 h1        1 5CD      0.059700
     27 HB         -3.4530    1.7800   -3.3580 ho        1 5CD      0.435000
     28 H4'        -1.0800   -0.2320   -4.4440 h1        1 5CD      0.120700
     29 H5'1        1.2210    0.8860   -2.6540 h1        1 5CD      0.076200
     30 H5'2        0.8380    1.5470   -4.3210 h1        1 5CD      0.076200
     31 H1'        -2.1750   -0.9290   -0.9730 h2        1 5CD      0.107700
@<TRIPOS>BOND
     1    1    2 1   
     2    1    5 1   
     3    1   19 1   
     4    2    3 2   
     5    2   20 1   
     6    3    4 1   
     7    4    5 ar  
     8    4    9 ar  
     9    5    6 ar  
    10    6    7 ar  
    11    7    8 ar  
    12    7   21 1   
    13    8    9 ar  
    14    9   10 1   
    15   10   22 1   
    16   10   23 1   
    17   11   12 1   
    18   11   24 1   
    19   12   13 1   
    20   12   19 1   
    21   12   25 1   
    22   13   14 1   
    23   13   15 1   
    24   13   26 1   
    25   14   27 1   
    26   15   16 1   
    27   15   18 1   
    28   15   28 1   
    29   16   17 1   
    30   16   29 1   
    31   16   30 1   
    32   18   19 1   
    33   19   31 1   
@<TRIPOS>SUBSTRUCTURE
     1 5CD         1 TEMP              0 ****  ****    0 ROOT
