@<TRIPOS>MOLECULE
5CF
   33    34     1     0     0
SMALL
bcc


@<TRIPOS>ATOM
      1 OP3        -4.6070    1.2120   -0.3610 o         1 5CF     -0.914500
      2 P          -3.2340    0.7830    0.0500 p5        1 5CF      1.318900
      3 N1          2.0990   -0.6180    0.1640 n         1 5CF     -0.351000
      4 C2          3.1070   -0.7850    1.1750 c         1 5CF      0.824900
      5 O2          3.2090   -1.9040    1.7330 o         1 5CF     -0.666500
      6 N3          3.9500    0.2800    1.5230 nc        1 5CF     -0.734100
      7 C4          3.8150    1.4540    0.8860 cd        1 5CF      0.706500
      8 N4          4.6940    2.5070    1.1680 nh        1 5CF     -0.890800
      9 C5          2.8010    1.6480   -0.1460 cd        1 5CF     -0.192100
     10 F5          2.6740    2.8430   -0.7740 f         1 5CF     -0.166500
     11 C6          1.9450    0.5890   -0.4420 cc        1 5CF      0.094600
     12 C1'         1.2420   -1.7750   -0.1660 c3        1 5CF      0.258500
     13 C2'         0.0980   -2.0320    0.8700 c3        1 5CF      0.088100
     14 O2'         0.3760   -3.2050    1.6050 oh        1 5CF     -0.598800
     15 C3'        -1.1690   -2.2230    0.0090 c3        1 5CF      0.056100
     16 O3'        -1.4580   -3.5970   -0.1800 oh        1 5CF     -0.611800
     17 C4'        -0.7990   -1.6070   -1.3440 c3        1 5CF      0.092100
     18 O4'         0.6550   -1.6140   -1.4460 os        1 5CF     -0.448600
     19 C5'        -1.3020   -0.1490   -1.4690 c3        1 5CF      0.209400
     20 O5'        -2.6590   -0.0770   -1.3610 os        1 5CF     -0.553200
     21 OP1        -2.1770    1.8430    0.1960 o         1 5CF     -0.914500
     22 OP2        -3.1370   -0.3230    1.0780 o         1 5CF     -0.914500
     23 HN4         5.1750    2.4530    2.0380 hn        1 5CF      0.404800
     24 HN4A        4.3110    3.4040    0.9630 hn        1 5CF      0.404800
     25 H6          1.1140    0.6990   -1.1780 h4        1 5CF      0.231000
     26 H1'         1.9370   -2.6660   -0.2260 h2        1 5CF      0.080700
     27 H2'        -0.0520   -1.1590    1.5610 h1        1 5CF      0.087700
     28 HO2'        1.1770   -3.0160    2.1150 ho        1 5CF      0.404000
     29 H3'        -2.0690   -1.6440    0.4630 h1        1 5CF      0.230700
     30 HO3'       -1.8450   -3.8880    0.6530 ho        1 5CF      0.398000
     31 H4'        -1.1450   -2.2410   -2.1980 h1        1 5CF      0.067700
     32 H5'        -0.7960    0.4770   -0.6750 h1        1 5CF     -0.001300
     33 H5'A       -0.9660    0.2130   -2.4870 h1        1 5CF     -0.001300
@<TRIPOS>BOND
     1    1    2 1   
     2    2   20 1   
     3    2   21 1   
     4    2   22 1   
     5    3    4 1   
     6    3   11 1   
     7    3   12 1   
     8    4    5 2   
     9    4    6 1   
    10    6    7 2   
    11    7    8 1   
    12    7    9 1   
    13    8   23 1   
    14    8   24 1   
    15    9   10 1   
    16    9   11 2   
    17   11   25 1   
    18   12   13 1   
    19   12   18 1   
    20   12   26 1   
    21   13   14 1   
    22   13   15 1   
    23   13   27 1   
    24   14   28 1   
    25   15   16 1   
    26   15   17 1   
    27   15   29 1   
    28   16   30 1   
    29   17   18 1   
    30   17   19 1   
    31   17   31 1   
    32   19   20 1   
    33   19   32 1   
    34   19   33 1   
@<TRIPOS>SUBSTRUCTURE
     1 5CF         1 TEMP              0 ****  ****    0 ROOT
