@<TRIPOS>MOLECULE
5CF
   33    33     1     0     0
SMALL
bcc


@<TRIPOS>ATOM
      1 OP3        -0.7060   -1.7430   -3.6900 o         1 5CF     -0.921833
      2 P           0.8040   -1.7430   -3.6900 p5        1 5CF      1.559500
      3 N1         -0.4650    1.0450    0.8430 n         1 5CF     -0.248000
      4 C2         -0.8960    1.9830   -0.1860 c2        1 5CF      0.341000
      5 O2         -0.0740    2.5400   -0.8790 o         1 5CF     -0.388000
      6 N3         -2.3100    2.3260   -0.3150 n2        1 5CF     -0.320000
      7 C4         -3.2850    1.6040    0.4210 c1        1 5CF      0.177000
      8 N4         -4.6630    1.9390    0.2960 n3        1 5CF     -0.338000
      9 C5         -2.8630    0.5730    1.3790 c1        1 5CF     -0.167000
     10 F5         -3.7700   -0.0300    2.1560 f         1 5CF     -0.093000
     11 C6         -1.4300    0.3010    1.5740 c2        1 5CF      0.068000
     12 C1'         0.9250    0.9870    1.2230 c3        1 5CF      0.110000
     13 C2'         1.2990   -0.4560    1.6920 c3        1 5CF     -0.002000
     14 O2'         2.0000   -0.4070    2.8070 oh        1 5CF     -0.342000
     15 C3'         2.1690   -1.0710    0.5230 c3        1 5CF     -0.021000
     16 O3'         3.5960   -1.1310    0.9210 oh        1 5CF     -0.398000
     17 C4'         2.0170   -0.2700   -0.4600 c3        1 5CF     -0.050000
     18 O4'         1.6780    1.2150    0.2020 os        1 5CF     -0.296000
     19 C5'         0.8830   -0.7220   -1.3210 c3        1 5CF      0.050000
     20 O5'         1.3320   -1.7430   -2.1950 os        1 5CF     -0.740000
     21 OP1         1.3080   -2.9790   -4.4040 o         1 5CF     -0.921833
     22 OP2         1.3070   -0.5100   -4.4020 o         1 5CF     -0.921833
     23 HN4        -4.9260    2.5680   -0.3090 hn        1 5CF      0.201500
     24 HN4A       -5.2850    1.5080    0.8060 hn        1 5CF      0.201500
     25 H6         -1.1420   -0.3270    2.2630 h4        1 5CF      0.284000
     26 H1'         1.1100    1.6330    1.9310 h2        1 5CF      0.148000
     27 H2'         0.4910   -0.9860    1.8260 h1        1 5CF      0.112000
     28 HO2'        1.6120   -0.9140    3.4230 ho        1 5CF      0.221000
     29 H3'         1.8430   -1.9610    0.2890 h1        1 5CF      0.204000
     30 HO3'        3.8850   -1.9680    0.8630 ho        1 5CF      0.295000
     31 H4'         2.8390   -0.2240   -0.9840 h1        1 5CF      0.082000
     32 H5'         0.5510    0.0320   -1.8440 h1        1 5CF      0.057000
     33 H5'A        0.1650   -1.0690   -0.7580 h1        1 5CF      0.057000
@<TRIPOS>BOND
     1    1    2 1   
     2    2   20 1   
     3    2   21 1   
     4    2   22 1   
     5    3    4 1   
     6    3   11 1   
     7    3   12 1   
     8    4    5 1   
     9    4    6 1   
    10    6    7 1   
    11    7    8 1   
    12    8   23 1   
    13    8   24 1   
    14    9   10 1   
    15    9   11 1   
    16   11   25 1   
    17   12   13 1   
    18   12   18 1   
    19   12   26 1   
    20   13   14 1   
    21   13   15 1   
    22   13   27 1   
    23   14   28 1   
    24   15   16 1   
    25   15   17 1   
    26   15   29 1   
    27   16   30 1   
    28   17   18 1   
    29   17   19 1   
    30   17   31 1   
    31   19   20 1   
    32   19   32 1   
    33   19   33 1   
@<TRIPOS>SUBSTRUCTURE
     1 5CF         1 TEMP              0 ****  ****    0 ROOT
