@<TRIPOS>MOLECULE
5CG
   32    34     1     0     0
SMALL
bcc


@<TRIPOS>ATOM
      1 CL5'        4.4970   -1.5230   -0.1000 cl        1 5CG     -0.186400
      2 C5'         2.8460   -1.0810   -0.4910 c3        1 5CG      0.009000
      3 C4'         2.6840    0.4300   -0.5180 c3        1 5CG      0.091100
      4 O4'         1.3670    0.7360   -0.9900 os        1 5CG     -0.398600
      5 C3'         2.8620    1.0850    0.8680 c3        1 5CG      0.080100
      6 O3'         3.9460    1.9890    0.8950 oh        1 5CG     -0.595800
      7 C2'         1.5630    1.8830    1.1180 c3        1 5CG      0.127100
      8 O2'         1.6670    3.2670    0.8660 oh        1 5CG     -0.583800
      9 C1'         0.5670    1.3370    0.0430 c3        1 5CG      0.241800
     10 N9         -0.3850    0.3970    0.5780 na        1 5CG     -0.225900
     11 C8         -0.1540   -0.6420    1.5210 cc        1 5CG      0.382400
     12 N7         -1.2230   -1.4310    1.7170 nd        1 5CG     -0.574000
     13 C5         -2.2050   -0.9260    0.8610 cd        1 5CG      0.168800
     14 C6         -3.5680   -1.3600    0.6370 c         1 5CG      0.652000
     15 O6         -4.1750   -2.3020    1.1660 o         1 5CG     -0.596500
     16 N1         -4.2690   -0.5840   -0.3280 n         1 5CG     -0.509400
     17 C2         -3.6950    0.5270   -0.9750 cd        1 5CG      0.689800
     18 N2         -4.5320    1.2920   -1.8150 nh        1 5CG     -0.893800
     19 N3         -2.4120    0.9380   -0.8030 nc        1 5CG     -0.672100
     20 C4         -1.7000    0.2080    0.1290 cc        1 5CG      0.137800
     21 H5'         2.1820   -1.5490    0.2750 h1        1 5CG      0.085700
     22 H5''        2.6150   -1.5090   -1.4970 h1        1 5CG      0.085700
     23 H4'         3.3850    0.8920   -1.2690 h1        1 5CG      0.095700
     24 H3'         2.9980    0.3030    1.6640 h1        1 5CG      0.061700
     25 HO3'        4.7460    1.4750    0.7260 ho        1 5CG      0.429000
     26 H2'         1.2000    1.7310    2.1700 h1        1 5CG      0.072700
     27 HO2'        2.5340    3.5640    1.1770 ho        1 5CG      0.437000
     28 H1'         0.0100    2.1790   -0.4700 h2        1 5CG      0.145700
     29 H8          0.8080   -0.7380    2.0340 h5        1 5CG      0.060100
     30 HN1        -5.2290   -0.8080   -0.4760 hn        1 5CG      0.335500
     31 HN21       -4.0660    2.0020   -2.3390 hn        1 5CG      0.424300
     32 HN22       -5.2160    0.7830   -2.3270 hn        1 5CG      0.424300
@<TRIPOS>BOND
     1    1    2 1   
     2    2    3 1   
     3    2   21 1   
     4    2   22 1   
     5    3    4 1   
     6    3    5 1   
     7    3   23 1   
     8    4    9 1   
     9    5    6 1   
    10    5    7 1   
    11    5   24 1   
    12    6   25 1   
    13    7    8 1   
    14    7    9 1   
    15    7   26 1   
    16    8   27 1   
    17    9   10 1   
    18    9   28 1   
    19   10   11 1   
    20   10   20 1   
    21   11   12 2   
    22   11   29 1   
    23   12   13 1   
    24   13   14 1   
    25   13   20 2   
    26   14   15 2   
    27   14   16 1   
    28   16   17 1   
    29   16   30 1   
    30   17   18 1   
    31   17   19 2   
    32   18   31 1   
    33   18   32 1   
    34   19   20 1   
@<TRIPOS>SUBSTRUCTURE
     1 5CG         1 TEMP              0 ****  ****    0 ROOT
