@<TRIPOS>MOLECULE
5CG
   32    31     1     0     0
SMALL
bcc


@<TRIPOS>ATOM
      1 CL5'        1.6240   -1.5500   -4.1190 cl        1 5CG     -0.093000
      2 C5'         0.4790   -2.2120   -2.9830 c3        1 5CG     -0.146000
      3 C4'         1.0550   -2.1610   -1.6130 c3        1 5CG     -0.025000
      4 O4'         1.6630   -1.0310   -1.4260 os        1 5CG     -0.249000
      5 C3'        -0.1520   -2.2310   -0.4850 c3        1 5CG      0.018000
      6 O3'        -0.5360   -3.6410   -0.2390 oh        1 5CG     -0.299000
      7 C2'         0.3100   -1.7340    0.5420 c3        1 5CG     -0.030000
      8 O2'         0.9190   -2.7960    1.4020 oh        1 5CG     -0.318000
      9 C1'         1.4460   -0.7100    0.0310 c3        1 5CG      0.128000
     10 N9          1.0460    0.5050    0.1660 n3        1 5CG     -0.188000
     11 C8          2.1220    1.2040   -0.2730 c1        1 5CG     -0.074000
     12 N7          1.8540    2.5270   -0.1240 n2        1 5CG     -0.060000
     13 C5          0.6150    2.6450    0.4070 c1        1 5CG     -0.234000
     14 C6         -0.1990    3.8470    0.8130 c1        1 5CG      0.398000
     15 O6          0.2340    4.9660    0.6250 o         1 5CG     -0.315000
     16 N1         -1.4750    3.6730    1.3600 n3        1 5CG     -0.350000
     17 C2         -2.0030    2.3630    1.5320 c2        1 5CG      0.244000
     18 N2         -3.2940    2.1870    2.0920 n3        1 5CG     -0.336000
     19 N3         -1.2230    1.2140    1.1430 n1        1 5CG     -0.271000
     20 C4          0.1130    1.3920    0.5870 c1        1 5CG      0.050000
     21 H5'         0.2840   -3.1400   -3.2200 h1        1 5CG      0.117500
     22 H5''       -0.3470   -1.6880   -3.0090 h1        1 5CG      0.117500
     23 H4'         1.6790   -2.9030   -1.4830 h1        1 5CG      0.147000
     24 H3'        -0.9280   -1.7180   -0.7890 h1        1 5CG      0.134000
     25 HO3'       -1.4190   -3.7240   -0.3050 ho        1 5CG      0.226000
     26 H2'        -0.3870   -1.2540    1.0330 h1        1 5CG      0.122000
     27 HO2'        0.6760   -2.6670    2.2480 ho        1 5CG      0.229000
     28 H1'         2.2740   -0.8490    0.5330 h2        1 5CG      0.147000
     29 H8          2.9460    0.8230   -0.6310 DU        1 5CG      0.223000
     30 HN1        -1.9600    4.3990    1.6260 hn        1 5CG      0.249000
     31 HN21       -3.6080    1.3450    2.2620 hn        1 5CG      0.219000
     32 HN22       -3.8070    2.9160    2.2970 hn        1 5CG      0.219000
@<TRIPOS>BOND
     1    1    2 1   
     2    2    3 1   
     3    2   21 1   
     4    2   22 1   
     5    3    4 1   
     6    3    5 1   
     7    3   23 1   
     8    4    9 1   
     9    5    6 1   
    10    5    7 1   
    11    5   24 1   
    12    6   25 1   
    13    7    8 1   
    14    7    9 1   
    15    7   26 1   
    16    8   27 1   
    17    9   10 1   
    18    9   28 1   
    19   10   11 1   
    20   10   20 1   
    21   11   12 1   
    22   12   13 1   
    23   13   20 1   
    24   14   15 1   
    25   14   16 1   
    26   16   17 1   
    27   16   30 1   
    28   17   18 1   
    29   17   19 1   
    30   18   31 1   
    31   18   32 1   
@<TRIPOS>SUBSTRUCTURE
     1 5CG         1 TEMP              0 ****  ****    0 ROOT
