@<TRIPOS>MOLECULE
5CH
   39    39     1     0     0
SMALL
bcc


@<TRIPOS>ATOM
      1 N9         -0.0960   -0.1880   -0.0980 n1        1 5CH     -1.120500
      2 C2         -0.6990    2.9210    4.5060 c2        1 5CH     -0.210100
      3 C4         -0.3750    0.5050    3.5860 ce        1 5CH     -0.075300
      4 C5         -0.6920   -0.7170    4.3970 c3        1 5CH      0.003900
      5 C6         -1.9830   -0.6630    5.0160 c1        1 5CH      0.249900
      6 O24        -5.4500   -0.8980    5.0140 o         1 5CH     -0.679800
      7 O23        -4.8470    0.5440    6.8140 o         1 5CH     -0.679800
      8 C22        -4.5470   -1.9450    7.1360 c3        1 5CH     -0.349300
      9 C1         -3.0740   -0.6500    5.5340 c1        1 5CH     -0.583200
     10 C3         -0.5340    1.7190    4.0510 c1        1 5CH     -0.024800
     11 C7          0.1890    0.2460    2.2500 ce        1 5CH     -0.045000
     12 C12         1.6440    0.2880    2.2030 ce        1 5CH     -0.131000
     13 C11         2.4080   -0.6470    1.6260 c2        1 5CH     -0.053600
     14 Cl20        4.0980   -0.5640    1.6190 cl        1 5CH     -0.108400
     15 C10         0.3210   -0.3760   -1.1900 c1        1 5CH      0.466800
     16 C8         -0.6150    0.0260    1.1670 cf        1 5CH      0.645700
     17 C13        -2.0860    0.0210    1.2700 cf        1 5CH     -0.222100
     18 C18        -2.8840    0.7420    0.3980 cf        1 5CH     -0.036000
     19 C17        -4.2870    0.7150    0.5590 ce        1 5CH     -0.299600
     20 C16        -4.8540   -0.0400    1.5810 ce        1 5CH      0.226600
     21 C19        -6.3280   -0.0830    1.7920 c3        1 5CH     -0.164400
     22 N15        -4.0180   -0.7640    2.4180 nu        1 5CH     -0.203400
     23 C14        -2.6790   -0.7630    2.3160 c1        1 5CH     -0.104900
     24 H2          0.0880    3.4530    5.0620 ha        1 5CH      0.140500
     25 H5         -0.6810   -1.6220    3.7170 hc        1 5CH      0.104200
     26 H6          0.1020   -0.8550    5.1870 hc        1 5CH      0.104200
     27 H22        -3.8200   -1.8260    7.9760 h1        1 5CH      0.112700
     28 H22A       -5.5500   -2.0940    7.6080 h1        1 5CH      0.112700
     29 H22B       -4.2930   -2.9060    6.6260 h1        1 5CH      0.112700
     30 H3         -1.6390    3.4780    4.3660 ha        1 5CH      0.140500
     31 H12         2.0920    1.1560    2.7210 ha        1 5CH      0.149000
     32 H10         2.0270   -1.5420    1.1170 h4        1 5CH      0.158000
     33 H18        -2.4560    1.3470   -0.4160 ha        1 5CH      0.142000
     34 H17        -4.9300    1.2930   -0.1180 ha        1 5CH      0.150000
     35 H19        -6.8010    0.8430    1.3840 hc        1 5CH      0.071367
     36 H19A       -6.7570   -0.9690    1.2570 hc        1 5CH      0.071367
     37 H19B       -6.5820   -0.1710    2.8810 hc        1 5CH      0.071367
     38 H14        -4.4480   -1.2840    3.1650 hn        1 5CH      0.331700
     39 S21        -4.5650   -0.6160    6.0840 s6        1 5CH      1.522000
@<TRIPOS>BOND
     1    1   15 3   
     2    1   16 1   
     3    2   10 2   
     4    2   24 1   
     5    2   30 1   
     6    3    4 1   
     7    3   10 2   
     8    3   11 1   
     9    4    5 1   
    10    4   25 1   
    11    4   26 1   
    12    5    9 3   
    13    6   39 2   
    14    7   39 2   
    15    8   27 1   
    16    8   28 1   
    17    8   29 1   
    18    8   39 1   
    19    9   39 1   
    20   11   12 1   
    21   11   16 2   
    22   12   13 2   
    23   12   31 1   
    24   13   14 1   
    25   13   32 1   
    26   16   17 1   
    27   17   18 1   
    28   17   23 2   
    29   18   19 2   
    30   18   33 1   
    31   19   20 1   
    32   19   34 1   
    33   20   21 1   
    34   20   22 2   
    35   21   35 1   
    36   21   36 1   
    37   21   37 1   
    38   22   23 2   
    39   22   38 1   
@<TRIPOS>SUBSTRUCTURE
     1 5CH         1 TEMP              0 ****  ****    0 ROOT
