@<TRIPOS>MOLECULE
5CH
   39    41     1     0     0
SMALL
bcc


@<TRIPOS>ATOM
      1 N9         -3.5690    0.9700   -0.0290 nb        1 5CH     -0.651000
      2 C2          1.9120   -0.6960   -1.1810 ca        1 5CH     -0.017000
      3 C4         -0.2260   -0.7950   -0.0540 cp        1 5CH      0.022000
      4 C5          0.3860   -1.4560    1.0210 ca        1 5CH     -0.142000
      5 C6          1.7510   -1.7210    0.9900 ca        1 5CH     -0.017000
      6 O24         4.6300   -1.7260   -1.4670 o         1 5CH     -0.656800
      7 O23         4.4640   -2.7680    0.6870 o         1 5CH     -0.656800
      8 C22         4.7770   -0.2660    0.5870 c3        1 5CH     -0.360300
      9 C1          2.5370   -1.3380   -0.1040 ca        1 5CH     -0.378500
     10 C3          0.5480   -0.4240   -1.1620 ca        1 5CH     -0.142000
     11 C7         -1.6680   -0.5440   -0.0330 cp        1 5CH     -0.154300
     12 C12        -2.5370   -1.6470   -0.0750 ca        1 5CH     -0.074000
     13 C11        -3.9140   -1.4250   -0.0990 ca        1 5CH     -0.108900
     14 CL20       -5.0060   -2.7130   -0.1490 cl        1 5CH     -0.061400
     15 C10        -4.3820   -0.0910   -0.0830 ca        1 5CH      0.416200
     16 C8         -2.2240    0.7600    0.0080 cq        1 5CH      0.486800
     17 C13        -1.3640    1.9490    0.1070 cq        1 5CH     -0.278800
     18 C18        -1.5620    3.0640   -0.7160 ca        1 5CH     -0.051000
     19 C17        -0.7290    4.1720   -0.5640 ca        1 5CH     -0.256300
     20 C16         0.2820    4.1500    0.4210 ca        1 5CH      0.424600
     21 C19         1.1650    5.3440    0.5840 c3        1 5CH     -0.151400
     22 N15         0.4730    3.0760    1.2330 nb        1 5CH     -0.672000
     23 C14        -0.3330    2.0170    1.0730 ca        1 5CH      0.425200
     24 H2          2.5140   -0.4170   -2.0640 ha        1 5CH      0.158500
     25 H5         -0.2170   -1.7660    1.8880 ha        1 5CH      0.148500
     26 H6          2.2260   -2.2540    1.8340 ha        1 5CH      0.158500
     27 H22         4.5160    0.6650    0.0260 h1        1 5CH      0.116033
     28 H22A        4.4080   -0.1200    1.6310 h1        1 5CH      0.116033
     29 H22B        5.8950   -0.2880    0.6510 h1        1 5CH      0.116033
     30 H3          0.0740    0.0820   -2.0180 ha        1 5CH      0.148500
     31 H12        -2.1280   -2.6690   -0.0960 ha        1 5CH      0.162000
     32 H10        -5.4650    0.1320   -0.1100 h4        1 5CH      0.041100
     33 H18        -2.3650    3.0690   -1.4680 ha        1 5CH      0.152000
     34 H17        -0.8610    5.0590   -1.2000 ha        1 5CH      0.146000
     35 H19         1.0150    5.8000    1.5940 hc        1 5CH      0.056033
     36 H19A        2.2410    5.0540    0.4880 hc        1 5CH      0.056033
     37 H19B        0.9290    6.1090   -0.1940 hc        1 5CH      0.056033
     38 H14        -0.1470    1.1650    1.7540 h4        1 5CH      0.027100
     39 S21         4.1810   -1.6720   -0.1400 sy        1 5CH      1.397300
@<TRIPOS>BOND
     1    1   15 ar  
     2    1   16 2   
     3    2    9 ar  
     4    2   10 ar  
     5    2   24 1   
     6    3    4 ar  
     7    3   10 ar  
     8    3   11 1   
     9    4    5 ar  
    10    4   25 1   
    11    5    9 ar  
    12    5   26 1   
    13    6   39 2   
    14    7   39 2   
    15    8   27 1   
    16    8   28 1   
    17    8   29 1   
    18    8   39 1   
    19    9   39 1   
    20   10   30 1   
    21   11   12 ar  
    22   11   16 1   
    23   12   13 ar  
    24   12   31 1   
    25   13   14 1   
    26   13   15 ar  
    27   15   32 1   
    28   16   17 1   
    29   17   18 1   
    30   17   23 2   
    31   18   19 ar  
    32   18   33 1   
    33   19   20 ar  
    34   19   34 1   
    35   20   21 1   
    36   20   22 ar  
    37   21   35 1   
    38   21   36 1   
    39   21   37 1   
    40   22   23 ar  
    41   23   38 1   
@<TRIPOS>SUBSTRUCTURE
     1 5CH         1 TEMP              0 ****  ****    0 ROOT
