@<TRIPOS>MOLECULE
5CH
   39    39     1     0     0
SMALL
bcc


@<TRIPOS>ATOM
      1 N9         -0.0910   -0.1610   -0.0950 n1        1 5CH     -1.120500
      2 C2         -0.7840    2.9790    4.4750 c2        1 5CH     -0.210100
      3 C4         -0.3930    0.5630    3.5810 ce        1 5CH     -0.075300
      4 C5         -0.6750   -0.6590    4.4050 c3        1 5CH      0.003900
      5 C6         -1.9690   -0.6340    5.0220 c1        1 5CH      0.249900
      6 O24        -5.4280   -0.9650    5.0200 o         1 5CH     -0.679800
      7 O23        -4.8660    0.5120    6.8060 o         1 5CH     -0.679800
      8 C22        -4.4980   -1.9640    7.1540 c3        1 5CH     -0.349300
      9 C1         -3.0600   -0.6460    5.5400 c1        1 5CH     -0.583200
     10 C3         -0.5860    1.7760    4.0340 c1        1 5CH     -0.024800
     11 C7          0.1790    0.3050    2.2480 ce        1 5CH     -0.045000
     12 C12         1.6340    0.3870    2.2020 ce        1 5CH     -0.131000
     13 C11         2.4230   -0.5320    1.6350 c2        1 5CH     -0.053600
     14 CL20        4.1110   -0.4020    1.6290 cl        1 5CH     -0.108400
     15 C10         0.3320   -0.3490   -1.1850 c1        1 5CH      0.466800
     16 C8         -0.6160    0.0520    1.1670 cf        1 5CH      0.645700
     17 C13        -2.0860    0.0070    1.2700 cf        1 5CH     -0.222100
     18 C18        -2.9040    0.6960    0.3890 cf        1 5CH     -0.036000
     19 C17        -4.3060    0.6320    0.5500 ce        1 5CH     -0.299600
     20 C16        -4.8530   -0.1270    1.5790 ce        1 5CH      0.226600
     21 C19        -6.3250   -0.2090    1.7890 c3        1 5CH     -0.164400
     22 N15        -3.9980   -0.8190    2.4240 nh        1 5CH     -0.203400
     23 C14        -2.6590   -0.7810    2.3230 c1        1 5CH     -0.104900
     24 H2         -0.0130    3.5380    5.0260 ha        1 5CH      0.140500
     25 H5         -0.6390   -1.5710    3.7340 hc        1 5CH      0.104200
     26 H6          0.1210   -0.7660    5.1970 hc        1 5CH      0.104200
     27 H22        -3.7750   -1.8170    7.9930 h1        1 5CH      0.112700
     28 H22A       -5.4970   -2.1360    7.6270 h1        1 5CH      0.112700
     29 H22B       -4.2180   -2.9230    6.6540 h1        1 5CH      0.112700
     30 H3         -1.7390    3.5070    4.3290 ha        1 5CH      0.140500
     31 H12         2.0570    1.2720    2.7110 ha        1 5CH      0.149000
     32 H10         2.0680   -1.4440    1.1360 h4        1 5CH      0.158000
     33 H18        -2.4920    1.3040   -0.4310 ha        1 5CH      0.142000
     34 H17        -4.9640    1.1850   -0.1340 ha        1 5CH      0.150000
     35 H19        -6.8230    0.6990    1.3710 hc        1 5CH      0.071367
     36 H19A       -6.7290   -1.1120    1.2640 hc        1 5CH      0.071367
     37 H19B       -6.5770   -0.2920    2.8800 hc        1 5CH      0.071367
     38 H14        -4.4130   -1.3430    3.1770 hn        1 5CH      0.331700
     39 S21        -4.5520   -0.6470    6.0880 s6        1 5CH      1.522000
@<TRIPOS>BOND
     1    1   15 3   
     2    1   16 1   
     3    2   10 2   
     4    2   24 1   
     5    2   30 1   
     6    3    4 1   
     7    3   10 2   
     8    3   11 1   
     9    4    5 1   
    10    4   25 1   
    11    4   26 1   
    12    5    9 3   
    13    6   39 2   
    14    7   39 2   
    15    8   27 1   
    16    8   28 1   
    17    8   29 1   
    18    8   39 1   
    19    9   39 1   
    20   11   12 1   
    21   11   16 2   
    22   12   13 2   
    23   12   31 1   
    24   13   14 1   
    25   13   32 1   
    26   16   17 1   
    27   17   18 1   
    28   17   23 2   
    29   18   19 2   
    30   18   33 1   
    31   19   20 1   
    32   19   34 1   
    33   20   21 1   
    34   20   22 2   
    35   21   35 1   
    36   21   36 1   
    37   21   37 1   
    38   22   23 2   
    39   22   38 1   
@<TRIPOS>SUBSTRUCTURE
     1 5CH         1 TEMP              0 ****  ****    0 ROOT
