@<TRIPOS>MOLECULE
5CH
   39    28     1     0     0
SMALL
bcc


@<TRIPOS>ATOM
      1 N9          2.1210   -0.1820   -3.2400 n1        1 5CH     -0.125000
      2 C2          0.6680   -1.1570    2.2810 c1        1 5CH     -0.070000
      3 C4          1.4670    0.0080    0.3400 c1        1 5CH     -0.249000
      4 C5          1.0380    1.2080    0.8840 c1        1 5CH     -0.098500
      5 C6          0.4250    1.2260    2.1260 c1        1 5CH     -0.098500
      6 O24        -0.3480    1.3060    5.0870 o         1 5CH     -0.936000
      7 S21        -0.5720    0.0630    4.4010 ss        1 5CH      2.861000
      8 O23         0.0330   -0.8700    5.3110 o         1 5CH     -0.936000
      9 C22        -2.3030   -0.2600    4.2050 c2        1 5CH     -0.939000
     10 C1          0.2390    0.0430    2.8250 c1        1 5CH     -0.249000
     11 C3          1.2810   -1.1750    1.0390 c1        1 5CH     -0.070000
     12 C7          2.1490   -0.0010   -0.8660 c1        1 5CH     -0.249000
     13 C12         3.5130    0.0310   -0.8780 c1        1 5CH     -0.070000
     14 C11         4.1860   -0.0430   -2.0630 c1        1 5CH     -0.122000
     15 CL20        5.9260    0.0620   -2.0850 cl        1 5CH      0.017000
     16 C10         3.4840   -0.1500   -3.2530 c1        1 5CH     -0.049000
     17 C8          1.4480   -0.1080   -2.0580 c1        1 5CH      0.051000
     18 C13         0.0610   -0.0810   -2.0510 c1        1 5CH     -0.249000
     19 C18        -0.5990    1.0850   -2.3110 c1        1 5CH     -0.098500
     20 C17        -1.9610    1.0930   -2.3970 c1        1 5CH     -0.098500
     21 C16        -2.6730   -0.0830   -2.2200 c1        1 5CH      0.002000
     22 C19        -4.1850   -0.0710   -2.2960 c3        1 5CH     -0.175000
     23 N15        -2.0140   -1.2460   -1.9600 n1        1 5CH     -0.146000
     24 C14        -0.6530   -1.2560   -1.8740 c1        1 5CH     -0.070000
     25 H2          0.5370   -1.9900    2.7730 ha        1 5CH      0.157750
     26 H5          1.1690    2.0410    0.3920 ha        1 5CH      0.151750
     27 H6          0.1230    2.0720    2.5090 ha        1 5CH      0.151750
     28 H22        -2.7650   -0.0910    5.0530 ha        1 5CH      0.155333
     29 H22A       -2.6690    0.3280    3.5110 ha        1 5CH      0.155333
     30 H22B       -2.4330   -1.1950    3.9420 ha        1 5CH      0.155333
     31 H3          1.5830   -2.0210    0.6560 ha        1 5CH      0.157750
     32 H12         4.0080    0.0690   -0.0370 ha        1 5CH      0.157750
     33 H10         3.9640   -0.2030   -4.1000 ha        1 5CH      0.178000
     34 H18        -0.0970    1.9130   -2.4360 ha        1 5CH      0.151750
     35 H17        -2.4340    1.9270   -2.5830 ha        1 5CH      0.151750
     36 H19        -4.4650    0.1020   -3.2200 hc        1 5CH      0.095333
     37 H19A       -4.5340   -0.9400   -2.0070 hc        1 5CH      0.095333
     38 H19B       -4.5360    0.6330   -1.7110 hc        1 5CH      0.095333
     39 H14        -0.1820   -2.0900   -1.6880 ha        1 5CH      0.157750
@<TRIPOS>BOND
     1    1   17 1   
     2    2   10 1   
     3    2   25 1   
     4    3   11 1   
     5    4    5 1   
     6    4   26 1   
     7    5   27 1   
     8    6    7 1   
     9    7    8 1   
    10    9   28 1   
    11    9   29 1   
    12    9   30 1   
    13   11   31 1   
    14   12   13 1   
    15   13   32 1   
    16   14   15 1   
    17   14   16 1   
    18   16   33 1   
    19   18   24 1   
    20   19   20 1   
    21   19   34 1   
    22   20   35 1   
    23   21   22 1   
    24   21   23 1   
    25   22   36 1   
    26   22   37 1   
    27   22   38 1   
    28   24   39 1   
@<TRIPOS>SUBSTRUCTURE
     1 5CH         1 TEMP              0 ****  ****    0 ROOT
