@<TRIPOS>MOLECULE
5CI
   51    53     1     0     0
SMALL
bcc


@<TRIPOS>ATOM
      1 O41         4.1690   -4.5440   -1.3080 o         1 5CI     -0.553000
      2 C51         4.3430   -3.3250   -1.3950 c         1 5CI      0.660100
      3 O31         5.3850   -2.7990   -0.6930 oh        1 5CI     -0.623100
      4 C41         3.5380   -2.3450   -2.1820 c3        1 5CI     -0.161400
      5 C31         3.7430   -0.8830   -1.8010 c3        1 5CI      0.098800
      6 C21         3.4100   -0.5790   -0.3250 c3        1 5CI     -0.205400
      7 C11         2.2680    0.3950   -0.3780 c         1 5CI      0.722600
      8 O21         1.6120    0.9590    0.4810 o         1 5CI     -0.519500
      9 O11         1.9090    0.6830   -1.7010 os        1 5CI     -0.422200
     10 O71         5.0210   -0.4110   -2.1680 oh        1 5CI     -0.571800
     11 C61         2.7300   -0.0190   -2.5770 c         1 5CI      0.723600
     12 O51         2.5210    0.1330   -3.7660 o         1 5CI     -0.510500
     13 N5'         8.2390    0.1460   -1.4700 n3        1 5CI     -0.901800
     14 C5'         8.1320    0.3140   -2.8940 c3        1 5CI      0.137800
     15 C4'         9.3970   -0.0160   -3.7050 c3        1 5CI      0.084100
     16 O4'         9.8870   -1.3170   -3.3490 os        1 5CI     -0.421600
     17 C3'         9.1470   -0.0060   -5.2220 c3        1 5CI      0.084100
     18 O3'        10.0530    0.9230   -5.7890 oh        1 5CI     -0.591800
     19 C2'         9.4680   -1.4390   -5.7150 c3        1 5CI      0.082100
     20 O2'        10.6180   -1.4500   -6.5260 oh        1 5CI     -0.578800
     21 C1'         9.7220   -2.2600   -4.4170 c3        1 5CI      0.210800
     22 N9          8.7370   -3.2690   -4.0720 na        1 5CI     -0.249000
     23 C8          7.3070   -3.2070   -4.0580 cc        1 5CI      0.338800
     24 BR8         6.2870   -2.1870   -5.2360 br        1 5CI      0.032700
     25 N7          6.7320   -4.0700   -3.2000 nd        1 5CI     -0.515100
     26 C5          7.7900   -4.7350   -2.5740 ca        1 5CI     -0.245200
     27 C4          9.0580   -4.2440   -3.0930 ca        1 5CI      0.478800
     28 N3         10.2700   -4.7230   -2.6900 nb        1 5CI     -0.727000
     29 C2         10.1640   -5.7060   -1.7620 ca        1 5CI      0.695900
     30 N1          9.0620   -6.2540   -1.1890 nb        1 5CI     -0.787000
     31 C6          7.8330   -5.7670   -1.5740 ca        1 5CI      0.754200
     32 N6          6.6770   -6.2020   -0.9790 nh        1 5CI     -0.948500
     33 H2          3.8270   -2.4750   -3.2650 hc        1 5CI      0.113700
     34 H3          2.4540   -2.6200   -2.0750 hc        1 5CI      0.113700
     35 H4          4.2890   -0.1160    0.1950 hc        1 5CI      0.112200
     36 H5          3.1150   -1.5010    0.2340 hc        1 5CI      0.112200
     37 H7          5.6710   -0.8390   -1.5870 ho        1 5CI      0.450000
     38 H8          8.5620   -0.7770   -1.2500 hn        1 5CI      0.353300
     39 H9          7.2840   -0.3410   -3.2470 h1        1 5CI      0.066700
     40 H10         7.8590    1.3830   -3.1170 h1        1 5CI      0.066700
     41 H11        10.2330    0.6920   -3.4390 h1        1 5CI      0.094700
     42 H12         8.0910    0.2830   -5.4690 h1        1 5CI      0.073700
     43 H13         9.9430    0.8730   -6.7490 ho        1 5CI      0.421000
     44 H14         8.6630   -1.8690   -6.3670 h1        1 5CI      0.114700
     45 H15        11.3230   -0.9830   -6.0530 ho        1 5CI      0.422000
     46 H16        10.7170   -2.8030   -4.4890 h2        1 5CI      0.133700
     47 H17        11.1300   -6.1330   -1.4130 h5        1 5CI      0.058100
     48 H18         5.8080   -5.9530   -1.3960 hn        1 5CI      0.453300
     49 H19         5.9130   -3.5140   -0.2980 ho        1 5CI      0.461000
     50 H5'2        8.8800    0.8090   -1.0790 hn        1 5CI      0.353300
     51 H63         6.7030   -7.0040   -0.3950 hn        1 5CI      0.453300
@<TRIPOS>BOND
     1    1    2 2   
     2    2    3 1   
     3    2    4 1   
     4    3   49 1   
     5    4    5 1   
     6    4   33 1   
     7    4   34 1   
     8    5    6 1   
     9    5   10 1   
    10    5   11 1   
    11    6    7 1   
    12    6   35 1   
    13    6   36 1   
    14    7    8 2   
    15    7    9 1   
    16    9   11 1   
    17   10   37 1   
    18   11   12 2   
    19   13   14 1   
    20   13   38 1   
    21   13   50 1   
    22   14   15 1   
    23   14   39 1   
    24   14   40 1   
    25   15   16 1   
    26   15   17 1   
    27   15   41 1   
    28   16   21 1   
    29   17   18 1   
    30   17   19 1   
    31   17   42 1   
    32   18   43 1   
    33   19   20 1   
    34   19   21 1   
    35   19   44 1   
    36   20   45 1   
    37   21   22 1   
    38   21   46 1   
    39   22   23 1   
    40   22   27 1   
    41   23   24 1   
    42   23   25 2   
    43   25   26 1   
    44   26   27 ar  
    45   26   31 ar  
    46   27   28 ar  
    47   28   29 ar  
    48   29   30 ar  
    49   29   47 1   
    50   30   31 ar  
    51   31   32 1   
    52   32   48 1   
    53   32   51 1   
@<TRIPOS>SUBSTRUCTURE
     1 5CI         1 TEMP              0 ****  ****    0 ROOT
