@<TRIPOS>MOLECULE
5CI
   50    52     1     0     0
SMALL
bcc


@<TRIPOS>ATOM
      1 O41         5.0510   -0.0490   -2.0430 o         1 5CI     -0.847800
      2 C51         4.8130    0.3100   -3.2290 c         1 5CI      0.902600
      3 O31         5.7500    0.6300   -4.0310 o         1 5CI     -0.847800
      4 C41         3.3700    0.3770   -3.7250 c3        1 5CI     -0.216400
      5 C31         3.0520    1.7600   -4.2740 c3        1 5CI      0.126800
      6 C21         3.2350    2.8670   -3.2040 c3        1 5CI     -0.204400
      7 C11         1.8760    3.4780   -3.0400 c         1 5CI      0.728600
      8 O21         1.4380    4.3810   -2.3410 o         1 5CI     -0.569500
      9 O11         0.9370    2.8650   -3.8740 os        1 5CI     -0.451200
     10 O71         3.7770    2.0820   -5.4400 oh        1 5CI     -0.609800
     11 C61         1.5610    1.8640   -4.6280 c         1 5CI      0.718600
     12 O51         0.8280    1.2600   -5.3930 o         1 5CI     -0.543500
     13 N5'         9.8770   -2.0820    1.3590 n8        1 5CI     -0.898800
     14 C5'         8.7690   -1.6380    0.5530 c3        1 5CI      0.139800
     15 C4'         9.0840   -1.3450   -0.9210 c3        1 5CI      0.089100
     16 O4'         9.6690   -2.5150   -1.5160 os        1 5CI     -0.437600
     17 C3'         7.8350   -0.9520   -1.7250 c3        1 5CI      0.109100
     18 O3'         7.9710    0.4020   -2.0920 oh        1 5CI     -0.618800
     19 C2'         7.8310   -1.8750   -2.9670 c3        1 5CI      0.104100
     20 O2'         8.1290   -1.1950   -4.1670 oh        1 5CI     -0.615800
     21 C1'         9.0140   -2.8640   -2.7440 c3        1 5CI      0.239800
     22 N9          8.6680   -4.2760   -2.7300 na        1 5CI     -0.230000
     23 C8          7.6780   -4.9930   -2.0040 cc        1 5CI      0.359800
     24 Br8         6.3300   -4.1980   -1.0000 br        1 5CI      0.044700
     25 N7          7.7750   -6.3340   -2.1350 nd        1 5CI     -0.532100
     26 C5          8.8850   -6.5430   -2.9550 ca        1 5CI     -0.227200
     27 C4          9.4750   -5.2620   -3.3260 ca        1 5CI      0.467800
     28 N3         10.5880   -5.1550   -4.1190 nb        1 5CI     -0.714000
     29 C2         11.0700   -6.3520   -4.5110 ca        1 5CI      0.676900
     30 N1         10.6270   -7.6140   -4.2440 nb        1 5CI     -0.803000
     31 C6          9.5050   -7.7330   -3.4650 ca        1 5CI      0.748200
     32 N6          8.9470   -8.9650   -3.2050 nv        1 5CI     -0.955500
     33 H2          3.2370   -0.3780   -4.5410 hc        1 5CI      0.067700
     34 H3          2.6740    0.1300   -2.8860 hc        1 5CI      0.067700
     35 H4          3.6000    2.4350   -2.2370 hc        1 5CI      0.116200
     36 H5          3.9690    3.6350   -3.5550 hc        1 5CI      0.116200
     37 H7          4.6550    1.6590   -5.3640 ho        1 5CI      0.473000
     38 H8         10.6220   -1.4110    1.3250 hn        1 5CI      0.342800
     39 H9          8.3590   -0.6870    0.9980 h1        1 5CI      0.062200
     40 H10         7.9650   -2.4250    0.6080 h1        1 5CI      0.062200
     41 H11         9.8650   -0.5370   -1.0040 h1        1 5CI      0.073700
     42 H12         6.8870   -1.1010   -1.1370 h1        1 5CI      0.093700
     43 H13         7.0900    0.6980   -2.3890 ho        1 5CI      0.466000
     44 H14         6.8380   -2.3860   -3.0760 h1        1 5CI      0.071700
     45 H15         7.5560   -0.4050   -4.1950 ho        1 5CI      0.466000
     46 H16         9.7860   -2.7240   -3.5640 h2        1 5CI      0.128700
     47 H17        11.9770   -6.3100   -5.1520 h5        1 5CI      0.045100
     48 H18         8.2460   -9.0140   -2.5080 hn        1 5CI      0.436800
     49 H19         9.4530   -9.7860   -3.4290 hn        1 5CI      0.436800
     50 H5'2       10.2290   -2.9530    1.0080 hn        1 5CI      0.342800
@<TRIPOS>BOND
     1    1    2 1   
     2    2    3 1   
     3    2    4 1   
     4    4    5 1   
     5    4   33 1   
     6    4   34 1   
     7    5    6 1   
     8    5   10 1   
     9    5   11 1   
    10    6    7 1   
    11    6   35 1   
    12    6   36 1   
    13    7    8 2   
    14    7    9 1   
    15    9   11 1   
    16   10   37 1   
    17   11   12 2   
    18   13   14 1   
    19   13   38 1   
    20   13   50 1   
    21   14   15 1   
    22   14   39 1   
    23   14   40 1   
    24   15   16 1   
    25   15   17 1   
    26   15   41 1   
    27   16   21 1   
    28   17   18 1   
    29   17   19 1   
    30   17   42 1   
    31   18   43 1   
    32   19   20 1   
    33   19   21 1   
    34   19   44 1   
    35   20   45 1   
    36   21   22 1   
    37   21   46 1   
    38   22   23 1   
    39   22   27 1   
    40   23   24 1   
    41   23   25 2   
    42   25   26 1   
    43   26   27 ar  
    44   26   31 ar  
    45   27   28 ar  
    46   28   29 ar  
    47   29   30 ar  
    48   29   47 1   
    49   30   31 ar  
    50   31   32 1   
    51   32   48 1   
    52   32   49 1   
@<TRIPOS>SUBSTRUCTURE
     1 5CI         1 TEMP              0 ****  ****    0 ROOT
