@<TRIPOS>MOLECULE
5CI
   49    51     1     0     0
SMALL
bcc


@<TRIPOS>ATOM
      1 O41        -7.1180   -1.1700   -2.1030 o         1 5CI     -0.868550
      2 C51        -6.5460   -0.9300   -0.9990 c         1 5CI      0.899100
      3 O31        -7.1870   -0.5590    0.0330 o         1 5CI     -0.868550
      4 C41        -5.0310   -1.1510   -0.9220 c3        1 5CI     -0.202400
      5 C31        -4.3070   -0.3410    0.1580 c3        1 5CI      0.150800
      6 C21        -4.4490    1.1620   -0.1130 c3        1 5CI     -0.202400
      7 C11        -3.3890    2.0550    0.5050 c         1 5CI      0.899100
      8 O21        -2.6240    2.7360   -0.2550 o         1 5CI     -0.868550
      9 O11        -3.2340    2.1460    1.7660 o         1 5CI     -0.868550
     10 O71        -4.8100   -0.6860    1.4440 oh        1 5CI     -0.638800
     11 C61        -2.8090   -0.7410    0.1540 c         1 5CI      0.673100
     12 O51        -2.2800   -1.3170   -0.8240 o         1 5CI     -0.673100
     13 N5'        -2.0710   -0.4660    1.2930 n         1 5CI     -0.553900
     14 C5'        -0.6550   -0.6480    1.3460 c3        1 5CI      0.086000
     15 C4'         0.1410    0.6070    1.7510 c3        1 5CI      0.089100
     16 O4'         1.5390    0.2490    1.7530 os        1 5CI     -0.429600
     17 C3'        -0.0610    1.8310    0.8390 c3        1 5CI      0.108100
     18 O3'        -0.4610    2.9310    1.6210 oh        1 5CI     -0.654800
     19 C2'         1.3290    2.1360    0.2330 c3        1 5CI      0.112100
     20 O2'         1.8050    3.4450    0.4380 oh        1 5CI     -0.611800
     21 C1'         2.3040    1.1520    0.9550 c3        1 5CI      0.215800
     22 N9          3.2070    0.4120    0.0810 na        1 5CI     -0.220000
     23 C8          2.9470   -0.4150   -1.0430 cc        1 5CI      0.362800
     24 BR8         1.2600   -0.6850   -1.7740 br        1 5CI      0.087700
     25 N7          4.0560   -1.0020   -1.5490 nd        1 5CI     -0.549100
     26 C5          5.1030   -0.5790   -0.7290 ca        1 5CI     -0.215200
     27 C4          4.5870    0.3010    0.3160 ca        1 5CI      0.456800
     28 N3          5.3900    0.8590    1.2780 nb        1 5CI     -0.705000
     29 C2          6.6830    0.5010    1.1590 ca        1 5CI      0.660900
     30 N1          7.2960   -0.3110    0.2470 nb        1 5CI     -0.803000
     31 C6          6.5090   -0.8540   -0.7330 ca        1 5CI      0.722200
     32 N6          7.0610   -1.6120   -1.7550 nh        1 5CI     -0.939500
     33 H2         -4.8660   -2.2390   -0.7160 hc        1 5CI      0.055450
     34 H3         -4.5760   -0.9180   -1.9170 hc        1 5CI      0.055450
     35 H4         -4.4380    1.3250   -1.2220 hc        1 5CI      0.055450
     36 H5         -5.4540    1.4750    0.2760 hc        1 5CI      0.055450
     37 H7         -5.7660   -0.5000    1.4180 ho        1 5CI      0.455000
     38 H8         -2.4940    0.1520    1.9620 hn        1 5CI      0.358500
     39 H9         -0.4200   -1.4410    2.1150 h1        1 5CI      0.047200
     40 H10        -0.2820   -1.0210    0.3500 h1        1 5CI      0.047200
     41 H11        -0.0970    0.8880    2.8150 h1        1 5CI      0.078700
     42 H12        -0.8140    1.6280    0.0230 h1        1 5CI      0.137700
     43 H13        -1.4190    3.0790    1.4420 ho        1 5CI      0.503000
     44 H14         1.3170    1.9870   -0.8800 h1        1 5CI      0.080700
     45 H15         1.2230    3.8920    1.0720 ho        1 5CI      0.438000
     46 H16         2.9630    1.7350    1.6710 h2        1 5CI      0.105700
     47 H17         7.3650    0.9250    1.9250 h5        1 5CI      0.038100
     48 H18         6.4210   -2.1720   -2.2690 hn        1 5CI      0.420800
     49 H19         7.9650   -1.9950   -1.6080 hn        1 5CI      0.420800
@<TRIPOS>BOND
     1    1    2 1   
     2    2    3 1   
     3    2    4 1   
     4    4    5 1   
     5    4   33 1   
     6    4   34 1   
     7    5    6 1   
     8    5   10 1   
     9    5   11 1   
    10    6    7 1   
    11    6   35 1   
    12    6   36 1   
    13    7    8 1   
    14    7    9 1   
    15   10   37 1   
    16   11   12 2   
    17   11   13 1   
    18   13   14 1   
    19   13   38 1   
    20   14   15 1   
    21   14   39 1   
    22   14   40 1   
    23   15   16 1   
    24   15   17 1   
    25   15   41 1   
    26   16   21 1   
    27   17   18 1   
    28   17   19 1   
    29   17   42 1   
    30   18   43 1   
    31   19   20 1   
    32   19   21 1   
    33   19   44 1   
    34   20   45 1   
    35   21   22 1   
    36   21   46 1   
    37   22   23 1   
    38   22   27 1   
    39   23   24 1   
    40   23   25 2   
    41   25   26 1   
    42   26   27 ar  
    43   26   31 ar  
    44   27   28 ar  
    45   28   29 ar  
    46   29   30 ar  
    47   29   47 1   
    48   30   31 ar  
    49   31   32 1   
    50   32   48 1   
    51   32   49 1   
@<TRIPOS>SUBSTRUCTURE
     1 5CI         1 TEMP              0 ****  ****    0 ROOT
