@<TRIPOS>MOLECULE
5CI
   49    44     1     0     0
SMALL
bcc


@<TRIPOS>ATOM
      1 O41        -5.0670    4.9710    3.2480 o         1 5CI     -0.597000
      2 C51        -4.3600    3.9580    3.0010 c1        1 5CI      0.330000
      3 O31        -3.6780    3.4260    3.9170 o         1 5CI     -0.597000
      4 C41        -4.3310    3.3740    1.5930 c2        1 5CI     -0.238000
      5 C31        -2.9630    3.6320    0.9630 c3        1 5CI      0.129000
      6 C21        -3.0330    4.8800    0.0950 c3        1 5CI     -0.224000
      7 C11        -3.9770    4.6370   -1.0660 c2        1 5CI      0.307000
      8 O21        -5.1800    4.9920   -0.9820 o         1 5CI     -0.609500
      9 O11        -3.5320    4.1780   -2.1520 o         1 5CI     -0.609500
     10 O71        -2.0110    3.8200    1.9740 oh        1 5CI     -0.366000
     11 C61        -2.5580    2.4190    0.0900 c1        1 5CI      0.317000
     12 O51        -3.3240    1.9920   -0.7480 o         1 5CI     -0.434000
     13 N5'        -1.2330    1.8270    0.2350 n2        1 5CI     -0.363000
     14 C5'        -0.7740    0.8310   -0.7190 c3        1 5CI     -0.030000
     15 C4'         0.6900    0.4370   -0.3920 c3        1 5CI     -0.022000
     16 O4'         0.7350   -0.7670    0.0940 os        1 5CI     -0.286000
     17 C3'         1.5280    0.3800   -1.6810 c3        1 5CI     -0.003000
     18 O3'         2.4100    1.3980   -1.7100 oh        1 5CI     -0.382000
     19 C2'         2.2780   -0.9800   -1.6300 c3        1 5CI      0.001000
     20 O2'         3.7300   -0.7790   -1.9110 oh        1 5CI     -0.339000
     21 C1'         2.1120   -1.4070   -0.4280 c3        1 5CI      0.124000
     22 N9          2.0230   -2.8400   -0.4230 n3        1 5CI     -0.137000
     23 C8          0.9700   -3.5450   -0.8890 c1        1 5CI     -0.089000
     24 BR8        -0.6910   -3.8900   -1.7680 br        1 5CI      0.213000
     25 N7          1.1720   -4.8520   -0.5860 n2        1 5CI     -0.122000
     26 C5          2.3600   -4.9530    0.0720 c1        1 5CI     -0.224000
     27 C4          2.8860   -3.7160    0.1740 c1        1 5CI      0.065000
     28 N3          4.0670   -3.5290    0.8320 n1        1 5CI     -0.179000
     29 C2          4.7160   -4.5950    1.3880 c1        1 5CI     -0.002000
     30 N1          4.1840   -5.8480    1.2860 n1        1 5CI     -0.277000
     31 C6          3.0220   -6.0350    0.6380 c1        1 5CI      0.201000
     32 N6          2.8980   -7.4480    0.5720 n2        1 5CI     -0.337000
     33 H2         -4.4940    2.4080    1.6370 ha        1 5CI      0.084500
     34 H3         -5.0240    3.7960    1.0520 ha        1 5CI      0.084500
     35 H4         -3.3610    5.6320    0.6300 hc        1 5CI      0.105000
     36 H5         -2.1390    5.0890   -0.2490 hc        1 5CI      0.105000
     37 H7         -1.6050    4.5960    1.8550 ho        1 5CI      0.254000
     38 H8         -0.6770    2.1090    0.9040 hn        1 5CI      0.272000
     39 H9         -1.3450    0.0390   -0.6640 h1        1 5CI      0.086500
     40 H10        -0.8180    1.2020   -1.6250 h1        1 5CI      0.086500
     41 H11         1.0800    1.0720    0.2380 h1        1 5CI      0.118000
     42 H12         0.9440    0.4150   -2.4650 h1        1 5CI      0.177000
     43 H13         2.4300    1.7520   -2.5320 ho        1 5CI      0.302000
     44 H14         1.8900   -1.6070   -2.2700 h1        1 5CI      0.120000
     45 H15         3.9210   -1.0900   -2.7190 ho        1 5CI      0.237000
     46 H16         2.8550   -1.1140    0.1380 h2        1 5CI      0.145000
     47 H17         5.5440   -4.4560    1.8850 ha        1 5CI      0.175000
     48 H18         3.0840   -7.9590    1.3080 hn        1 5CI      0.216000
     49 H19         2.6430   -7.8490   -0.2110 hn        1 5CI      0.216000
@<TRIPOS>BOND
     1    1    2 1   
     2    2    3 1   
     3    4    5 1   
     4    4   33 1   
     5    4   34 1   
     6    5    6 1   
     7    5   10 1   
     8    5   11 1   
     9    6    7 1   
    10    6   35 1   
    11    6   36 1   
    12    7    8 1   
    13    7    9 1   
    14   10   37 1   
    15   11   12 1   
    16   13   14 1   
    17   13   38 1   
    18   14   15 1   
    19   14   39 1   
    20   14   40 1   
    21   15   16 1   
    22   15   17 1   
    23   15   41 1   
    24   16   21 1   
    25   17   18 1   
    26   17   19 1   
    27   17   42 1   
    28   18   43 1   
    29   19   20 1   
    30   19   21 1   
    31   19   44 1   
    32   20   45 1   
    33   21   22 1   
    34   21   46 1   
    35   22   23 1   
    36   22   27 1   
    37   23   25 1   
    38   25   26 1   
    39   26   31 1   
    40   27   28 1   
    41   29   30 1   
    42   29   47 1   
    43   32   48 1   
    44   32   49 1   
@<TRIPOS>SUBSTRUCTURE
     1 5CI         1 TEMP              0 ****  ****    0 ROOT
