@<TRIPOS>MOLECULE
5CI
   50    52     1     0     0
SMALL
bcc


@<TRIPOS>ATOM
      1 O41         0.0550    1.3130   -3.9450 o         1 5CI     -0.822800
      2 C51         0.4170    0.9440   -2.8000 c         1 5CI      0.910600
      3 O31        -0.1220    1.2970   -1.7090 o         1 5CI     -0.822800
      4 C41         1.6450    0.0070   -2.6960 c3        1 5CI     -0.247400
      5 C31         2.7510    0.7100   -1.9270 c3        1 5CI      0.141800
      6 C21         3.1830    2.0300   -2.6240 c3        1 5CI     -0.200400
      7 C11         4.6200    1.8320   -2.9830 c         1 5CI      0.736600
      8 O21         5.4790    2.5100   -3.5330 o         1 5CI     -0.580500
      9 O11         5.0750    0.5700   -2.5810 os        1 5CI     -0.498200
     10 O71         2.4300    0.9550   -0.5770 oh        1 5CI     -0.618800
     11 C61         4.0380   -0.1260   -1.9400 c         1 5CI      0.727600
     12 O51         4.3590   -1.2370   -1.5500 o         1 5CI     -0.568500
     13 N5'         9.2560   -1.8020    0.8140 n3        1 5CI     -0.909800
     14 C5'         8.2860   -1.4500   -0.1980 c3        1 5CI      0.145800
     15 C4'         8.9250   -1.0280   -1.5270 c3        1 5CI      0.125100
     16 O4'         9.7060   -2.1150   -2.0480 os        1 5CI     -0.429600
     17 C3'         7.8670   -0.6350   -2.5730 c3        1 5CI      0.087100
     18 O3'         8.0610    0.7320   -2.8770 oh        1 5CI     -0.608800
     19 C2'         8.1670   -1.4940   -3.8230 c3        1 5CI      0.091100
     20 O2'         8.5660   -0.7330   -4.9380 oh        1 5CI     -0.583800
     21 C1'         9.3420   -2.4310   -3.3980 c3        1 5CI      0.214800
     22 N9          9.0990   -3.8540   -3.5340 na        1 5CI     -0.239000
     23 C8          8.0380   -4.6760   -3.0580 cc        1 5CI      0.349800
     24 BR8         6.4600   -4.0210   -2.3250 br        1 5CI      0.059700
     25 N7          8.2610   -5.9950   -3.2280 nd        1 5CI     -0.521100
     26 C5          9.5260   -6.0840   -3.8120 ca        1 5CI     -0.229200
     27 C4         10.0810   -4.7500   -3.9980 ca        1 5CI      0.469800
     28 N3         11.3100   -4.5220   -4.5580 nb        1 5CI     -0.724000
     29 C2         11.9420   -5.6610   -4.9170 ca        1 5CI      0.682900
     30 N1         11.5480   -6.9600   -4.8080 nb        1 5CI     -0.801000
     31 C6         10.3220   -7.2010   -4.2380 ca        1 5CI      0.754200
     32 N6          9.8710   -8.4840   -4.0400 nh        1 5CI     -0.955500
     33 H2          1.9990   -0.2660   -3.7190 hc        1 5CI      0.059200
     34 H3          1.3450   -0.9200   -2.1490 hc        1 5CI      0.059200
     35 H4          2.5550    2.2170   -3.5360 hc        1 5CI      0.126700
     36 H5          3.0670    2.8970   -1.9260 hc        1 5CI      0.126700
     37 H7          1.4580    1.0750   -0.5260 ho        1 5CI      0.481000
     38 H8          8.8120   -2.3320    1.5370 hn        1 5CI      0.350300
     39 H9          7.6960   -0.5690    0.1860 h1        1 5CI      0.045700
     40 H10         7.5540   -2.2850   -0.4050 h1        1 5CI      0.045700
     41 H11         9.6490   -0.1800   -1.3650 h1        1 5CI      0.091700
     42 H12         6.8220   -0.8250   -2.2030 h1        1 5CI      0.103700
     43 H13         7.2090    1.0870   -3.1800 ho        1 5CI      0.448000
     44 H14         7.2610   -2.0580   -4.1710 h1        1 5CI      0.105700
     45 H15         9.0560    0.0400   -4.6200 ho        1 5CI      0.424000
     46 H16        10.2550   -2.1960   -4.0300 h2        1 5CI      0.117700
     47 H17        12.9440   -5.5210   -5.3770 h5        1 5CI      0.048100
     48 H18        10.3540   -9.2450   -4.4500 hn        1 5CI      0.441800
     49 H19         8.9290   -8.6070   -3.7620 hn        1 5CI      0.441800
     50 H5'2        9.9950   -2.3490    0.4170 hn        1 5CI      0.350300
@<TRIPOS>BOND
     1    1    2 1   
     2    2    3 1   
     3    2    4 1   
     4    4    5 1   
     5    4   33 1   
     6    4   34 1   
     7    5    6 1   
     8    5   10 1   
     9    5   11 1   
    10    6    7 1   
    11    6   35 1   
    12    6   36 1   
    13    7    8 2   
    14    7    9 1   
    15    9   11 1   
    16   10   37 1   
    17   11   12 2   
    18   13   14 1   
    19   13   38 1   
    20   13   50 1   
    21   14   15 1   
    22   14   39 1   
    23   14   40 1   
    24   15   16 1   
    25   15   17 1   
    26   15   41 1   
    27   16   21 1   
    28   17   18 1   
    29   17   19 1   
    30   17   42 1   
    31   18   43 1   
    32   19   20 1   
    33   19   21 1   
    34   19   44 1   
    35   20   45 1   
    36   21   22 1   
    37   21   46 1   
    38   22   23 1   
    39   22   27 1   
    40   23   24 1   
    41   23   25 2   
    42   25   26 1   
    43   26   27 ar  
    44   26   31 ar  
    45   27   28 ar  
    46   28   29 ar  
    47   29   30 ar  
    48   29   47 1   
    49   30   31 ar  
    50   31   32 1   
    51   32   48 1   
    52   32   49 1   
@<TRIPOS>SUBSTRUCTURE
     1 5CI         1 TEMP              0 ****  ****    0 ROOT
