@<TRIPOS>MOLECULE
5CL
   12    12     1     0     0
SMALL
bcc


@<TRIPOS>ATOM
      1 C1          1.2090    1.1220   -0.0000 ca        1 5CL      0.028400
      2 C2          0.0000    1.8200    0.0000 ca        1 5CL     -0.109000
      3 C3         -1.2090    1.1220    0.0000 ca        1 5CL      0.028400
      4 C4         -1.2180   -0.2820   -0.0000 ca        1 5CL      0.020400
      5 C5         -0.0000   -0.9820   -0.0000 ca        1 5CL      0.028400
      6 C6          1.2180   -0.2820   -0.0000 ca        1 5CL      0.020400
      7 CL1        -2.6860   -1.1230   -0.0000 cl        1 5CL     -0.031400
      8 CL2        -0.0000   -2.6750   -0.0000 cl        1 5CL     -0.031400
      9 CL3         2.6860   -1.1230   -0.0000 cl        1 5CL     -0.031400
     10 CL4        -2.6560    2.0020    0.0000 cl        1 5CL     -0.047400
     11 CL5         2.6560    2.0020   -0.0000 cl        1 5CL     -0.047400
     12 H2          0.0000    2.9230    0.0000 ha        1 5CL      0.172000
@<TRIPOS>BOND
     1    1    2 ar  
     2    1    6 ar  
     3    1   11 1   
     4    2    3 ar  
     5    2   12 1   
     6    3    4 ar  
     7    3   10 1   
     8    4    5 ar  
     9    4    7 1   
    10    5    6 ar  
    11    5    8 1   
    12    6    9 1   
@<TRIPOS>SUBSTRUCTURE
     1 5CL         1 TEMP              0 ****  ****    0 ROOT
