@<TRIPOS>MOLECULE
5CL
   12     9     1     0     0
SMALL
bcc


@<TRIPOS>ATOM
      1 C1         -0.6610    0.0000   -1.2560 c1        1 5CL      0.035900
      2 C2          0.7250    0.0000   -1.2560 c1        1 5CL     -0.051500
      3 C3          1.4180    0.0000   -0.0550 c1        1 5CL      0.039900
      4 C4          0.7250    0.0000    1.1450 c1        1 5CL      0.035900
      5 C5         -0.6610    0.0000    1.1450 c1        1 5CL      0.035900
      6 C6         -1.3540    0.0000   -0.0550 c1        1 5CL      0.035900
      7 CL1         1.5970   -0.0020    2.6550 cl        1 5CL     -0.046900
      8 CL2        -1.5330    0.0010    2.6550 cl        1 5CL     -0.046900
      9 CL3        -3.0980    0.0010   -0.0550 cl        1 5CL     -0.046900
     10 CL4         3.1620    0.0020   -0.0550 cl        1 5CL     -0.058900
     11 CL5        -1.5330   -0.0020   -2.7660 cl        1 5CL     -0.046900
     12 H2          1.2130    0.0000   -2.1010 ha        1 5CL      0.114500
@<TRIPOS>BOND
     1    1    6 3   
     2    1   11 1   
     3    2    3 3   
     4    2   12 1   
     5    3   10 1   
     6    4    5 3   
     7    4    7 1   
     8    5    8 1   
     9    6    9 1   
@<TRIPOS>SUBSTRUCTURE
     1 5CL         1 TEMP              0 ****  ****    0 ROOT
