@<TRIPOS>MOLECULE
5CM
   35    36     1     0     0
SMALL
bcc


@<TRIPOS>ATOM
      1 N1         -1.3430    0.0220    2.4550 n         1 5CM     -0.369000
      2 C2         -1.6470    0.1220    3.8550 c         1 5CM      0.821900
      3 N3         -0.6220    0.2760    4.7970 nc        1 5CM     -0.769100
      4 C4          0.6560    0.2880    4.3650 cd        1 5CM      0.711500
      5 C5          1.0040    0.2060    2.9630 cd        1 5CM     -0.386800
      6 C5A         2.3920    0.2400    2.4660 c3        1 5CM     -0.056900
      7 C6         -0.0360    0.0720    2.0520 cc        1 5CM      0.080600
      8 O2         -2.8510    0.1010    4.2170 o         1 5CM     -0.698500
      9 N4          1.6900    0.3450    5.3130 nh        1 5CM     -0.898800
     10 C1'        -2.4290   -0.1750    1.4820 c3        1 5CM      0.292500
     11 C2'        -2.4840    0.9190    0.3950 c3        1 5CM     -0.119400
     12 C3'        -1.7750    0.2870   -0.8050 c3        1 5CM      0.109100
     13 C4'        -1.8540   -1.2350   -0.5590 c3        1 5CM      0.062100
     14 O4'        -2.2960   -1.4280    0.8070 os        1 5CM     -0.440600
     15 O3'        -2.4170    0.6540   -2.0060 oh        1 5CM     -0.654800
     16 C5'        -0.5150   -1.9880   -0.7530 c3        1 5CM      0.222400
     17 O5'         0.0710   -1.7390   -1.9620 os        1 5CM     -0.569200
     18 P           1.2670   -0.4880   -2.0550 p5        1 5CM      1.341900
     19 OP1         1.4560   -0.1430   -0.5880 o         1 5CM     -0.927167
     20 OP2         2.4260   -1.1040   -2.7660 o         1 5CM     -0.927167
     21 OP3         0.4120    0.5420   -2.7540 o         1 5CM     -0.927167
     22 H5A1        2.9950   -0.5900    2.9110 hc        1 5CM      0.055033
     23 H5A2        2.3970    0.1220    1.3370 hc        1 5CM      0.055033
     24 H5A3        2.8850    1.2100    2.7270 hc        1 5CM      0.055033
     25 H6          0.2130    0.0140    0.9430 h4        1 5CM      0.296000
     26 HN41        1.4420    0.6830    6.2150 hn        1 5CM      0.393300
     27 HN42        2.5390    0.7170    4.9510 hn        1 5CM      0.393300
     28 H1'        -3.3890   -0.2490    2.0720 h2        1 5CM      0.091700
     29 H2'        -3.5520    1.1390    0.1530 hc        1 5CM      0.049700
     30 H2''       -1.9870    1.8670    0.7020 hc        1 5CM      0.049700
     31 H3'        -0.6790    0.5950   -0.8590 h1        1 5CM      0.144700
     32 H4'        -2.6530   -1.6910   -1.2010 h1        1 5CM      0.044700
     33 HO3'       -1.6980    0.6760   -2.6730 ho        1 5CM      0.478000
     34 H5'         0.1760   -1.7390    0.1000 h1        1 5CM     -0.002300
     35 H5''       -0.7660   -3.0900   -0.6910 h1        1 5CM     -0.002300
@<TRIPOS>BOND
     1    1    2 1   
     2    1    7 1   
     3    1   10 1   
     4    2    3 1   
     5    2    8 2   
     6    3    4 2   
     7    4    5 1   
     8    4    9 1   
     9    5    6 1   
    10    5    7 2   
    11    6   22 1   
    12    6   23 1   
    13    6   24 1   
    14    7   25 1   
    15    9   26 1   
    16    9   27 1   
    17   10   11 1   
    18   10   14 1   
    19   10   28 1   
    20   11   12 1   
    21   11   29 1   
    22   11   30 1   
    23   12   13 1   
    24   12   15 1   
    25   12   31 1   
    26   13   14 1   
    27   13   16 1   
    28   13   32 1   
    29   15   33 1   
    30   16   17 1   
    31   16   34 1   
    32   16   35 1   
    33   17   18 1   
    34   18   19 1   
    35   18   20 1   
    36   18   21 1   
@<TRIPOS>SUBSTRUCTURE
     1 5CM         1 TEMP              0 ****  ****    0 ROOT
