@<TRIPOS>MOLECULE
5CM
   35    35     1     0     0
SMALL
bcc


@<TRIPOS>ATOM
      1 N1          0.7670    0.6520    0.7370 n         1 5CM     -0.257000
      2 C2          0.5930   -0.5890    1.5090 c2        1 5CM      0.336000
      3 N3          1.3570   -0.8040    2.7200 n2        1 5CM     -0.347000
      4 C4          2.2010    0.2380    3.2300 c1        1 5CM      0.179000
      5 C5          2.2930    1.5260    2.5150 c1        1 5CM     -0.296000
      6 C5A         3.2070    2.6670    3.0700 c3        1 5CM     -0.178000
      7 C6          1.5500    1.7210    1.2760 c2        1 5CM      0.107000
      8 O2         -0.1130   -1.4640    1.0840 o         1 5CM     -0.435000
      9 N4          2.8430    0.0770    4.4630 n3        1 5CM     -0.334000
     10 C1'         0.0400    0.8490   -0.4110 c3        1 5CM      0.144000
     11 C2'         0.7150    0.4200   -1.4520 c3        1 5CM     -0.194000
     12 C3'        -0.3530   -0.1310   -2.4220 c3        1 5CM     -0.001000
     13 C4'        -1.6890   -0.2120   -1.5900 c3        1 5CM     -0.042000
     14 O4'        -1.3360   -0.0420   -0.3640 os        1 5CM     -0.283000
     15 O3'        -0.5060    0.7010   -3.4650 oh        1 5CM     -0.380000
     16 C5'        -2.3560   -1.6080   -1.7800 c3        1 5CM      0.075000
     17 O5'        -3.5510   -1.4650   -2.5690 os        1 5CM     -0.736000
     18 P          -4.5270   -2.7370   -2.7260 p5        1 5CM      1.559500
     19 OP1        -5.5260   -2.4710   -3.8170 o         1 5CM     -0.921167
     20 OP2        -5.2630   -2.9810   -1.4110 o         1 5CM     -0.921167
     21 OP3        -3.7180   -3.9450   -3.0780 o         1 5CM     -0.921167
     22 H5A1        3.1150    3.4890    2.4860 hc        1 5CM      0.091333
     23 H5A2        2.9510    2.8730    3.9340 hc        1 5CM      0.091333
     24 H5A3        4.1450    2.3670    3.0670 hc        1 5CM      0.091333
     25 H6          1.5830    2.5970    0.8100 h4        1 5CM      0.308000
     26 HN41        2.8730   -0.7630    4.8690 hn        1 5CM      0.184500
     27 HN42        3.2300    0.7970    4.8740 hn        1 5CM      0.184500
     28 H1'        -0.1740    1.7920   -0.5140 h2        1 5CM      0.127000
     29 H2'         1.1920    1.1470   -1.8630 hc        1 5CM      0.088000
     30 H2''        1.3440   -0.2990   -1.1850 hc        1 5CM      0.088000
     31 H3'        -0.0860   -1.0540   -2.7440 h1        1 5CM      0.181000
     32 H4'        -2.3170    0.5130   -1.8730 h1        1 5CM      0.057000
     33 HO3'       -0.1820    0.3210   -4.1960 ho        1 5CM      0.270000
     34 H5'        -1.7250   -2.2150   -2.2460 h1        1 5CM      0.042000
     35 H5''       -2.5770   -1.9670   -0.9380 h1        1 5CM      0.042000
@<TRIPOS>BOND
     1    1    2 1   
     2    1    7 1   
     3    1   10 1   
     4    2    3 1   
     5    2    8 1   
     6    3    4 1   
     7    4    9 1   
     8    5    6 1   
     9    5    7 1   
    10    6   22 1   
    11    6   23 1   
    12    6   24 1   
    13    7   25 1   
    14    9   26 1   
    15    9   27 1   
    16   10   11 1   
    17   10   14 1   
    18   10   28 1   
    19   11   12 1   
    20   11   29 1   
    21   11   30 1   
    22   12   13 1   
    23   12   15 1   
    24   12   31 1   
    25   13   14 1   
    26   13   16 1   
    27   13   32 1   
    28   15   33 1   
    29   16   17 1   
    30   16   34 1   
    31   16   35 1   
    32   17   18 1   
    33   18   19 1   
    34   18   20 1   
    35   18   21 1   
@<TRIPOS>SUBSTRUCTURE
     1 5CM         1 TEMP              0 ****  ****    0 ROOT
