@<TRIPOS>MOLECULE
5CN
   47    49     1     0     0
SMALL
bcc


@<TRIPOS>ATOM
      1 C1         -0.3730    0.7380    0.3190 ca        1 5CN      0.134600
      2 C2          0.9310    0.2200    0.1990 ca        1 5CN     -0.135000
      3 C3          1.6810   -0.1130    1.3200 ca        1 5CN     -0.058000
      4 C7          0.3300    2.0500   -2.6120 c3        1 5CN     -0.101400
      5 C8         -0.7060    2.2900   -1.5170 c3        1 5CN      0.169300
      6 C9         -1.5500   -0.0040   -1.6640 c3        1 5CN      0.169300
      7 C10        -1.3380    0.2540   -3.1530 c3        1 5CN     -0.101400
      8 C11         0.0610    0.7870   -3.4190 c3        1 5CN     -0.064700
      9 C12         0.2600    1.0330   -4.8990 c3        1 5CN     -0.094100
     10 C14        -3.1250    0.5340    2.6540 c         1 5CN      0.496600
     11 C15        -4.0310   -0.3410    1.9560 cc        1 5CN      0.120200
     12 C16        -4.9210   -1.2960    2.4430 cd        1 5CN     -0.077300
     13 C19        -5.3210   -1.3420   -1.1980 cg        1 5CN      0.103800
     14 C4          1.1550    0.0550    2.6070 ca        1 5CN     -0.104300
     15 C5         -0.1370    0.5540    2.7640 ca        1 5CN     -0.104000
     16 C6         -0.8990    0.8900    1.6320 ca        1 5CN     -0.049400
     17 N1         -1.1910    1.1180   -0.7940 nh        1 5CN     -0.671000
     18 O1          3.0690   -1.1060    3.5200 oh        1 5CN     -0.575800
     19 N2         -2.2500    1.4370    1.8160 n4        1 5CN     -0.525200
     20 O2         -3.0070    0.6390    3.8710 o         1 5CN     -0.432100
     21 C17        -5.5850   -1.8610    1.2980 cd        1 5CN     -0.216300
     22 C18        -5.0660   -1.2210    0.1800 cc        1 5CN      0.434700
     23 O3         -4.1010   -0.2760    0.5520 os        1 5CN     -0.347800
     24 N3         -5.5460   -1.4570   -2.3330 n1        1 5CN     -0.237800
     25 H2          1.3630    0.0860   -0.8090 ha        1 5CN      0.171000
     26 H3          2.7090   -0.5060    1.2080 ha        1 5CN      0.183000
     27 H71         1.3540    1.9890   -2.1590 hc        1 5CN      0.062200
     28 H72         0.3240    2.9500   -3.2840 hc        1 5CN      0.062200
     29 H81        -0.2900    3.0290   -0.7770 h1        1 5CN      0.054450
     30 H82        -1.6260    2.7460   -1.9860 h1        1 5CN      0.054450
     31 H91        -2.6450   -0.2010   -1.4720 h1        1 5CN      0.054450
     32 H92        -0.9800   -0.9330   -1.3780 h1        1 5CN      0.054450
     33 H101       -2.1000    0.9820   -3.5330 hc        1 5CN      0.062200
     34 H102       -1.4880   -0.7110   -3.7040 hc        1 5CN      0.062200
     35 H11         0.7970   -0.0040   -3.0940 hc        1 5CN      0.044700
     36 H121        0.1230    0.0830   -5.4710 hc        1 5CN      0.046367
     37 H122       -0.4760    1.7830   -5.2790 hc        1 5CN      0.046367
     38 H123        1.2900    1.4180   -5.0910 hc        1 5CN      0.046367
     39 H131        1.3330   -0.7060    4.6230 h1        1 5CN      0.073700
     40 H132        2.4540    0.6860    4.2040 h1        1 5CN      0.073700
     41 H16        -5.0890   -1.5670    3.4880 ha        1 5CN      0.206000
     42 H5         -0.5510    0.6810    3.7800 ha        1 5CN      0.166000
     43 HO1         2.7250   -2.0000    3.4010 ho        1 5CN      0.409000
     44 HN2        -2.1620    2.3450    2.2920 hn        1 5CN      0.479300
     45 H17        -6.3490   -2.6400    1.3180 ha        1 5CN      0.210000
     46 C13         1.9800   -0.2620    3.8180 c3        1 5CN      0.165700
     47 H22        -2.6870    1.5780    0.8880 hn        1 5CN      0.479300
@<TRIPOS>BOND
     1    1    2 ar  
     2    1   16 ar  
     3    1   17 1   
     4    2    3 ar  
     5    2   25 1   
     6    3   14 ar  
     7    3   26 1   
     8    4    5 1   
     9    4    8 1   
    10    4   27 1   
    11    4   28 1   
    12    5   17 1   
    13    5   29 1   
    14    5   30 1   
    15    6    7 1   
    16    6   17 1   
    17    6   31 1   
    18    6   32 1   
    19    7    8 1   
    20    7   33 1   
    21    7   34 1   
    22    8    9 1   
    23    8   35 1   
    24    9   36 1   
    25    9   37 1   
    26    9   38 1   
    27   10   11 1   
    28   10   19 1   
    29   10   20 2   
    30   11   12 2   
    31   11   23 1   
    32   12   21 1   
    33   12   41 1   
    34   13   22 1   
    35   13   24 3   
    36   14   15 ar  
    37   14   46 1   
    38   15   16 ar  
    39   15   42 1   
    40   16   19 1   
    41   18   43 1   
    42   18   46 1   
    43   19   44 1   
    44   19   47 1   
    45   21   22 2   
    46   21   45 1   
    47   22   23 1   
    48   39   46 1   
    49   40   46 1   
@<TRIPOS>SUBSTRUCTURE
     1 5CN         1 TEMP              0 ****  ****    0 ROOT
