@<TRIPOS>MOLECULE
5CN
   46    42     1     0     0
SMALL
bcc


@<TRIPOS>ATOM
      1 C1          0.8480   -0.3010   -0.2320 c1        1 5CN     -0.015000
      2 C2          2.2340   -0.2560   -0.2020 c1        1 5CN     -0.143000
      3 C3          2.9030   -0.2950    1.0110 c1        1 5CN     -0.112000
      4 C7          0.4270    2.0600   -2.0050 c3        1 5CN     -0.184500
      5 C8         -0.5310    0.9240   -1.7170 c3        1 5CN     -0.057000
      6 C9          1.1210   -0.6920   -2.5510 c3        1 5CN     -0.057000
      7 C10         2.0860    0.4370   -2.8440 c3        1 5CN     -0.184500
      8 C11         1.3900    1.7260   -3.0880 c3        1 5CN     -0.105000
      9 C12         2.4570    2.8660   -3.1830 c3        1 5CN     -0.208000
     10 C13         2.9210   -0.4770    3.5180 c3        1 5CN      0.019000
     11 C14        -1.9240   -1.5980    1.5530 c1        1 5CN      0.379000
     12 C15        -3.4340   -1.6770    1.5840 c1        1 5CN     -0.017500
     13 C16        -4.1810   -2.6840    2.1610 c1        1 5CN     -0.130000
     14 C19        -6.8480   -0.4280    0.9770 c1        1 5CN     -0.073000
     15 C4          2.1880   -0.3810    2.1960 c2        1 5CN     -0.067000
     16 C5          0.8020   -0.4260    2.1670 c2        1 5CN     -0.150000
     17 C6          0.1320   -0.3870    0.9530 c2        1 5CN      0.073000
     18 N1          0.1640   -0.3550   -1.4810 n2        1 5CN     -0.249000
     19 O1          2.8470    0.7630    4.1890 oh        1 5CN     -0.328000
     20 N2         -1.2840   -0.4990    0.9210 n3        1 5CN     -0.295000
     21 O2         -1.2600   -2.4420    2.1210 o         1 5CN     -0.345000
     22 C17        -5.5020   -2.3610    2.0220 c1        1 5CN     -0.130000
     23 C18        -5.5770   -1.1540    1.3570 c1        1 5CN     -0.017500
     24 O3         -4.3000   -0.7370    1.0900 os        1 5CN     -0.082000
     25 N3         -7.8050    0.1200    0.6900 n1        1 5CN      0.006000
     26 H2          2.7360   -0.1960   -1.0330 ha        1 5CN      0.137000
     27 H3          3.8780   -0.2630    1.0320 ha        1 5CN      0.156000
     28 H71        -0.0870    2.8480   -2.2710 hc        1 5CN      0.087000
     29 H72         0.9270    2.2670   -1.1900 hc        1 5CN      0.087000
     30 H81        -1.0560    1.1480   -0.9250 h1        1 5CN      0.092500
     31 H82        -1.1360    0.8190   -2.4790 h1        1 5CN      0.092500
     32 H91         0.6220   -0.9010   -3.3660 h1        1 5CN      0.092500
     33 H92         1.6300   -1.4810   -2.2820 h1        1 5CN      0.092500
     34 H101        2.6880    0.5420   -2.0840 hc        1 5CN      0.087000
     35 H102        2.6120    0.2070   -3.6350 hc        1 5CN      0.087000
     36 H11         0.9080    1.6710   -3.9340 hc        1 5CN      0.089000
     37 H121        2.8310    3.0380   -2.2950 hc        1 5CN      0.074667
     38 H122        3.1740    2.5910   -3.7930 hc        1 5CN      0.074667
     39 H123        2.0330    3.6810   -3.5230 hc        1 5CN      0.074667
     40 H131        2.5080   -1.1720    4.0700 h1        1 5CN      0.075500
     41 H132        3.8610   -0.7050    3.3550 h1        1 5CN      0.075500
     42 H16        -3.8290   -3.4840    2.5930 DU        1 5CN      0.183500
     43 H5          0.2980   -0.4870    3.0010 ha        1 5CN      0.169000
     44 HO1         3.5720    0.8720    4.6920 ho        1 5CN      0.203000
     45 HN2        -1.7830    0.1520    0.5260 hn        1 5CN      0.258000
     46 H17        -6.2580   -2.8920    2.3360 DU        1 5CN      0.183500
@<TRIPOS>BOND
     1    1    2 1   
     2    1   17 1   
     3    2   26 1   
     4    3   15 1   
     5    3   27 1   
     6    4    5 1   
     7    4    8 1   
     8    4   28 1   
     9    4   29 1   
    10    5   18 1   
    11    5   30 1   
    12    5   31 1   
    13    6    7 1   
    14    6   18 1   
    15    6   32 1   
    16    6   33 1   
    17    7    8 1   
    18    7   34 1   
    19    7   35 1   
    20    8    9 1   
    21    8   36 1   
    22    9   37 1   
    23    9   38 1   
    24    9   39 1   
    25   10   15 1   
    26   10   19 1   
    27   10   40 1   
    28   10   41 1   
    29   11   20 1   
    30   11   21 1   
    31   12   13 1   
    32   12   24 1   
    33   13   22 1   
    34   14   25 1   
    35   15   16 1   
    36   16   17 1   
    37   16   43 1   
    38   17   20 1   
    39   19   44 1   
    40   20   45 1   
    41   22   23 1   
    42   23   24 1   
@<TRIPOS>SUBSTRUCTURE
     1 5CN         1 TEMP              0 ****  ****    0 ROOT
