@<TRIPOS>MOLECULE
5CN
   46    49     1     0     0
SMALL
bcc


@<TRIPOS>ATOM
      1 C1          0.0000    0.0000    0.0000 ca        1 5CN     -0.444000
      2 C2          1.4090    0.0000    0.0000 ca        1 5CN     -0.029000
      3 C3          2.1280    0.0000    1.1950 ca        1 5CN     -0.122000
      4 C7         -0.9340    2.0370   -2.5300 c3        1 5CN     -0.265000
      5 C8         -1.6190    1.0930   -1.5350 c3        1 5CN     -0.564000
      6 C9         -0.2740   -0.8050   -2.3510 c3        1 5CN     -0.631000
      7 C10         0.4490    0.0860   -3.3630 DU        1 5CN     -0.029000
      8 C11        -0.4320    1.2800   -3.7720 c3        1 5CN      0.286000
      9 C12         0.3250    2.2170   -4.7100 c3        1 5CN     -0.126000
     10 C14        -2.8920   -0.0000    2.4300 c2        1 5CN      0.312000
     11 C15        -4.3360   -0.0430    2.1430 c2        1 5CN     -0.107000
     12 C16        -5.3820   -0.0540    2.9840 c2        1 5CN     -0.090000
     13 C19        -6.6820   -0.1570   -0.4030 c1        1 5CN     -0.088000
     14 C4          1.4530   -0.0010    2.4160 ca        1 5CN     -0.053000
     15 C5          0.0580   -0.0010    2.4410 ca        1 5CN     -0.104000
     16 C6         -0.6620   -0.0000    1.2460 ca        1 5CN     -0.054000
     17 N1         -0.6970    0.0010   -1.2040 nh        1 5CN      2.012000
     18 O1          2.4650   -1.3440    4.0980 oh        1 5CN     -0.084000
     19 N2         -2.0580   -0.0000    1.2960 ns        1 5CN      0.084000
     20 O2         -2.4780   -0.0000    3.5880 o         1 5CN     -0.353000
     21 C17        -6.5170   -0.1010    2.1390 c2        1 5CN     -0.129000
     22 C18        -6.0340   -0.1140    0.8510 c2        1 5CN      0.081000
     23 O3         -4.6750   -0.0780    0.8510 os        1 5CN     -0.015000
     24 N3         -7.2400   -0.1960   -1.4400 n1        1 5CN     -0.013000
     25 H2          1.9510    0.0000   -0.9380 ha        1 5CN      0.112000
     26 H3          3.2110   -0.0000    1.1760 ha        1 5CN      0.111000
     27 H71        -0.8020    1.5190   -3.4720 hc        1 5CN      0.046000
     28 H72        -1.5670    2.9030   -2.6840 hc        1 5CN      0.046000
     29 H81        -0.8750    0.4240   -1.1190 h1        1 5CN     -0.173500
     30 H82        -2.0550    1.6820   -0.7370 h1        1 5CN     -0.173500
     31 H91         0.3240   -1.6910   -2.1750 h1        1 5CN     -0.162500
     32 H92        -0.3860   -0.2590   -1.4220 h1        1 5CN     -0.162500
     33 H101       -0.2650    0.7790   -3.7920 ha        1 5CN     -0.023000
     34 H102        0.8580   -0.5370   -4.1490 ha        1 5CN     -0.023000
     35 H11         0.4720    0.8680   -3.3420 DU        1 5CN      0.067000
     36 H121       -0.3390    3.0040   -5.0470 hc        1 5CN      0.050333
     37 H122        1.1650    2.6530   -4.1840 hc        1 5CN      0.050333
     38 H123        0.6850    1.6580   -5.5650 hc        1 5CN      0.050333
     39 H131        3.2700    0.1750    3.4840 h1        1 5CN      0.163000
     40 H132        2.1080   -0.9610    4.1830 h1        1 5CN      0.163000
     41 H16        -5.3300   -0.0340    4.0660 ha        1 5CN      0.156000
     42 H5         -0.4660   -0.0020    3.3890 ha        1 5CN      0.165000
     43 HO1         2.8480   -1.3480    4.9590 ho        1 5CN      0.234000
     44 HN2        -2.4580   -0.0800    0.3820 hn        1 5CN      0.098000
     45 H17        -7.5510   -0.1230    2.4620 ha        1 5CN      0.144000
     46 C13         2.2220   -0.0020    3.6930 c3        1 5CN     -0.411000
@<TRIPOS>BOND
     1    1    2 1   
     2    1   16 1   
     3    1   17 1   
     4    2    3 1   
     5    2   25 1   
     6    3   14 1   
     7    3   26 1   
     8    4    5 1   
     9    4    8 1   
    10    4   27 1   
    11    4   28 1   
    12    5   17 1   
    13    5   29 1   
    14    5   30 1   
    15    6    7 1   
    16    6   17 1   
    17    6   31 1   
    18    6   32 1   
    19    7    8 1   
    20    7   33 1   
    21    7   34 1   
    22    7   35 1   
    23    8    9 1   
    24    8   35 1   
    25    9   36 1   
    26    9   37 1   
    27    9   38 1   
    28   10   11 1   
    29   10   19 1   
    30   10   20 1   
    31   11   12 1   
    32   11   23 1   
    33   12   21 1   
    34   12   41 1   
    35   13   22 1   
    36   13   24 1   
    37   14   15 1   
    38   14   46 1   
    39   15   16 1   
    40   15   42 1   
    41   16   19 1   
    42   18   43 1   
    43   18   46 1   
    44   19   44 1   
    45   21   22 1   
    46   21   45 1   
    47   22   23 1   
    48   39   46 1   
    49   40   46 1   
@<TRIPOS>SUBSTRUCTURE
     1 5CN         1 TEMP              0 ****  ****    0 ROOT
