@<TRIPOS>MOLECULE
5CN
   46    48     1     0     0
SMALL
bcc


@<TRIPOS>ATOM
      1 C1         -1.9750    3.5900   -1.1760 ca        1 5CN      0.080600
      2 C2         -1.8680    4.0800   -2.4890 ca        1 5CN     -0.145000
      3 C3         -1.5280    5.4020   -2.7530 ca        1 5CN     -0.118000
      4 C7         -4.6260    1.5810   -1.5510 c3        1 5CN     -0.105900
      5 C8         -3.6400    1.9730   -0.4520 c3        1 5CN      0.180800
      6 C9         -1.7660    1.2330   -1.8180 c3        1 5CN      0.180800
      7 C10        -2.7160    0.7660   -2.9220 c3        1 5CN     -0.105900
      8 C11        -4.0860    0.4160   -2.3640 c3        1 5CN     -0.065700
      9 C12        -5.0400    0.0480   -3.4780 c3        1 5CN     -0.090100
     10 C14        -1.9640    4.7970    2.3620 c         1 5CN      0.596600
     11 C15        -2.0000    4.0920    3.6640 cc        1 5CN      0.207200
     12 C16        -2.1490    4.5970    4.9460 cd        1 5CN     -0.185300
     13 C19        -1.8470    0.9720    5.3520 cg        1 5CN      0.144800
     14 C4         -1.2910    6.2850   -1.7010 ca        1 5CN     -0.114300
     15 C5         -1.3790    5.8320   -0.3850 ca        1 5CN     -0.139000
     16 C6         -1.7080    4.4950   -0.0910 ca        1 5CN      0.063600
     17 N1         -2.2730    2.2240   -0.8850 nh        1 5CN     -0.646000
     18 O1          0.3290    8.0870   -1.5160 oh        1 5CN     -0.593800
     19 N2         -1.7470    4.0270    1.2370 n         1 5CN     -0.449100
     20 O2         -2.1220    6.0340    2.3490 o         1 5CN     -0.585100
     21 C17        -2.1150    3.4680    5.8430 cd        1 5CN     -0.204300
     22 C18        -1.9490    2.3420    5.0530 cc        1 5CN      0.343700
     23 O3         -1.8740    2.6980    3.6980 os        1 5CN     -0.340800
     24 N3         -1.7660   -0.1570    5.6170 n1        1 5CN     -0.317800
     25 H2         -2.0570    3.4050   -3.3390 ha        1 5CN      0.138000
     26 H3         -1.4500    5.7480   -3.7950 ha        1 5CN      0.138000
     27 H71        -5.5990    1.2960   -1.0760 hc        1 5CN      0.048200
     28 H72        -4.8190    2.4550   -2.2250 hc        1 5CN      0.048200
     29 H81        -4.0350    2.8800    0.0830 h1        1 5CN      0.054450
     30 H82        -3.5770    1.1250    0.2910 h1        1 5CN      0.054450
     31 H91        -1.5000    0.3370   -1.1850 h1        1 5CN      0.054450
     32 H92        -0.8190    1.6180   -2.2890 h1        1 5CN      0.054450
     33 H101       -2.8260    1.5580   -3.7070 hc        1 5CN      0.048200
     34 H102       -2.2670   -0.1340   -3.4150 hc        1 5CN      0.048200
     35 H11        -3.9730   -0.4720   -1.6790 hc        1 5CN      0.050700
     36 H121       -5.1850    0.9090   -4.1750 hc        1 5CN      0.035700
     37 H122       -4.6400   -0.8150   -4.0620 hc        1 5CN      0.035700
     38 H123       -6.0350   -0.2360   -3.0570 hc        1 5CN      0.035700
     39 H131       -0.9340    7.9310   -3.0740 h1        1 5CN      0.053200
     40 H132       -1.7320    8.3780   -1.4830 h1        1 5CN      0.053200
     41 H16        -2.2680    5.6430    5.2230 ha        1 5CN      0.189000
     42 H5         -1.1920    6.5460    0.4350 ha        1 5CN      0.163000
     43 HO1         0.3940    7.8320   -0.5870 ho        1 5CN      0.403000
     44 HN2        -1.6690    3.0380    1.3610 hn        1 5CN      0.348500
     45 H17        -2.2050    3.5080    6.9260 ha        1 5CN      0.180000
     46 C13        -0.9600    7.7190   -1.9700 c3        1 5CN      0.175700
@<TRIPOS>BOND
     1    1    2 ar  
     2    1   16 ar  
     3    1   17 1   
     4    2    3 ar  
     5    2   25 1   
     6    3   14 ar  
     7    3   26 1   
     8    4    5 1   
     9    4    8 1   
    10    4   27 1   
    11    4   28 1   
    12    5   17 1   
    13    5   29 1   
    14    5   30 1   
    15    6    7 1   
    16    6   17 1   
    17    6   31 1   
    18    6   32 1   
    19    7    8 1   
    20    7   33 1   
    21    7   34 1   
    22    8    9 1   
    23    8   35 1   
    24    9   36 1   
    25    9   37 1   
    26    9   38 1   
    27   10   11 1   
    28   10   19 1   
    29   10   20 2   
    30   11   12 2   
    31   11   23 1   
    32   12   21 1   
    33   12   41 1   
    34   13   22 1   
    35   13   24 3   
    36   14   15 ar  
    37   14   46 1   
    38   15   16 ar  
    39   15   42 1   
    40   16   19 1   
    41   18   43 1   
    42   18   46 1   
    43   19   44 1   
    44   21   22 2   
    45   21   45 1   
    46   22   23 1   
    47   39   46 1   
    48   40   46 1   
@<TRIPOS>SUBSTRUCTURE
     1 5CN         1 TEMP              0 ****  ****    0 ROOT
