@<TRIPOS>MOLECULE
5CO
   57    56     1     0     0
SMALL
bcc


@<TRIPOS>ATOM
      1 CAA        -0.5310   -2.0870    0.1760 c3        1 5CO     -0.179000
      2 CAB         7.7290    2.2780   -0.9380 c3        1 5CO     -0.208000
      3 OAD         6.2290   -3.0880   -1.5420 o         1 5CO     -0.340000
      4 OAE         5.6670    1.2110    6.8070 o         1 5CO     -0.959000
      5 OAF         5.2690   -1.0730    7.2640 o         1 5CO     -0.959000
      6 ClAG        8.3020   -1.0430   -2.3590 cl        1 5CO      0.031000
      7 CAH         3.3140   -0.8150    4.8750 c2        1 5CO     -0.069000
      8 CAI         2.8270   -1.3890    3.7600 c2        1 5CO     -0.166000
      9 CAJ         5.5030   -0.6310    3.7620 c2        1 5CO     -0.198000
     10 CAK         0.8890   -2.3490    0.4700 c2        1 5CO     -0.188000
     11 CAL         8.3780    1.1480   -0.1760 c3        1 5CO     -0.121000
     12 CAM         1.6320   -1.5350    1.2330 c2        1 5CO     -0.052000
     13 CAN         8.6410   -1.7440    7.2050 cu        1 5CO     -0.442000
     14 CAO         5.7590   -1.8200   10.3180 c1        1 5CO     -0.236500
     15 CAP         6.7950   -0.8190    4.1850 c2        1 5CO      0.050000
     16 CAQ         6.4190   -2.1930   11.2440 c1        1 5CO     -0.236500
     17 NAR         6.6330   -0.0030    1.1170 n2        1 5CO     -0.204000
     18 NAS         5.6310   -2.0620    0.4000 ns        1 5CO     -0.303000
     19 OAT         2.9930   -1.8330    1.3550 os        1 5CO     -0.185000
     20 CAU         4.6070   -0.1050    4.8510 c3        1 5CO     -0.664000
     21 CAV         3.5930   -1.3810    2.5230 c2        1 5CO      0.075000
     22 CAW         7.4290   -0.0080   -0.0190 c2        1 5CO      0.059000
     23 CAX         7.3530   -1.0160   -0.9620 c2        1 5CO     -0.234000
     24 CAY         4.9090   -1.0050    2.5040 c2        1 5CO     -0.029000
     25 CAZ         5.7620   -1.0000    1.2890 c2        1 5CO      0.187000
     26 CBA         6.4040   -2.1230   -0.7790 c2        1 5CO      0.335000
     27 NBB         7.7550   -2.3970    8.1780 ny        1 5CO     -0.113000
     28 NBC         7.0070   -0.5600    5.5240 n7        1 5CO     -0.862000
     29 HAA        -0.9080   -1.1740    0.6990 hc        1 5CO      0.084667
     30 HAAA       -1.1540   -2.9600    0.4960 hc        1 5CO      0.084667
     31 HAAB       -0.6730   -1.9450   -0.9260 hc        1 5CO      0.084667
     32 HAB         6.8280    2.6530   -0.3960 hc        1 5CO      0.082000
     33 HABA        8.4540    3.1210   -1.0500 hc        1 5CO      0.082000
     34 HABB        7.4170    1.9410   -1.9560 hc        1 5CO      0.082000
     35 HAC         8.0680   -3.8000    6.4890 hx        1 5CO      0.124000
     36 HACA        6.7500   -2.3380    8.0050 hn        1 5CO      0.246000
     37 HACB        9.3770   -3.8260    7.7860 hx        1 5CO      0.124000
     38 HAH         2.7620   -0.8240    5.8280 ha        1 5CO      0.145000
     39 HAI         1.8520   -1.9000    3.7420 ha        1 5CO      0.149000
     40 HAJ         4.3750    0.9830    4.6300 h1        1 5CO      0.178000
     41 HAK         1.2900   -0.6210    1.7370 h4        1 5CO      0.148000
     42 HAKA        1.3280   -3.2480    0.0060 ha        1 5CO      0.143000
     43 HAL         9.2970    0.7960   -0.7170 hc        1 5CO      0.104500
     44 HALA        8.7070    1.5180    0.8330 hc        1 5CO      0.104500
     45 HAM         2.5750    0.4680   -0.0110 ha        1 5CO      0.001000
     46 HAMA        2.6870    1.0310   -0.3700 ha        1 5CO      0.001000
     47 HAN         4.9400   -3.5460    8.2290 ha        1 5CO      0.001000
     48 HANA        7.6350   -1.1650    3.5650 h4        1 5CO      0.179000
     49 HAO         7.9570   -2.3970    9.1680 hn        1 5CO      0.246000
     50 HAOA        5.1680   -1.4810    9.4920 ha        1 5CO      0.239000
     51 HAP         4.5000   -3.1850    7.8600 ha        1 5CO      0.001000
     52 HAPA        9.4870   -1.1450    7.5630 hx        1 5CO      0.127000
     53 HAQ         7.8700   -1.0240    6.0880 hn        1 5CO      0.359000
     54 HAQA        6.9850   -2.5180   12.0810 ha        1 5CO      0.239000
     55 HNAS        4.9150   -2.7440    0.5410 hn        1 5CO      0.265000
     56 SBD         5.6570   -0.0990    6.2910 s6        1 5CO      2.707000
     57 CAC         8.5950   -3.2200    7.2780 cx        1 5CO     -0.119000
@<TRIPOS>BOND
     1    1   10 1   
     2    1   29 1   
     3    1   30 1   
     4    1   31 1   
     5    2   11 1   
     6    2   32 1   
     7    2   33 1   
     8    2   34 1   
     9    3   26 1   
    10    4   56 1   
    11    5   56 1   
    12    6   23 1   
    13    7    8 1   
    14    7   20 1   
    15    7   38 1   
    16    8   21 1   
    17    8   39 1   
    18    9   15 1   
    19    9   20 1   
    20    9   24 1   
    21   10   12 1   
    22   10   42 1   
    23   11   22 1   
    24   11   43 1   
    25   11   44 1   
    26   12   19 1   
    27   12   41 1   
    28   13   27 1   
    29   13   52 1   
    30   13   57 1   
    31   14   16 1   
    32   14   50 1   
    33   15   28 1   
    34   15   48 1   
    35   16   54 1   
    36   17   22 1   
    37   17   25 1   
    38   18   25 1   
    39   18   26 1   
    40   18   55 1   
    41   19   21 1   
    42   20   40 1   
    43   20   56 1   
    44   21   24 1   
    45   22   23 1   
    46   23   26 1   
    47   24   25 1   
    48   27   36 1   
    49   27   49 1   
    50   27   57 1   
    51   28   53 1   
    52   28   56 1   
    53   35   57 1   
    54   37   57 1   
    55   45   46 1   
    56   47   51 1   
@<TRIPOS>SUBSTRUCTURE
     1 5CO         1 TEMP              0 ****  ****    0 ROOT
