@<TRIPOS>MOLECULE
5CO
   57    54     1     0     0
SMALL
bcc


@<TRIPOS>ATOM
      1 CAA         0.4950    2.0240    0.4630 c3        1 5CO     -0.180000
      2 CAB         9.9880   -2.5690    0.1800 c1        1 5CO     -0.145000
      3 OAD         6.9470    2.4430   -0.8470 o         1 5CO     -0.332000
      4 OAE         6.6110    0.4570    7.7850 o         1 5CO     -0.960000
      5 OAF         5.2570   -1.4640    7.5370 o         1 5CO     -0.960000
      6 CLAG        9.1610    0.5440   -1.6880 cl        1 5CO      0.048000
      7 CAH         3.9060    0.1820    5.3370 c2        1 5CO     -0.071000
      8 CAI         3.3740    0.2020    4.1010 c2        1 5CO     -0.165000
      9 CAJ         6.1200   -0.2110    4.3270 c2        1 5CO     -0.216000
     10 CAK         1.6810    1.1680    0.6410 c2        1 5CO     -0.184000
     11 CAL         9.1840   -1.6980    0.3430 c1        1 5CO     -0.128000
     12 CAM         2.5250    1.3080    1.6730 c2        1 5CO     -0.066000
     13 CAN         8.0280   -3.4860    7.2540 cu        1 5CO     -0.442000
     14 CAO         4.6860   -3.3890    9.9480 c1        1 5CO     -0.236500
     15 CAP         7.1420   -1.0610    4.6750 c2        1 5CO      0.062000
     16 CAQ         4.9130   -4.3510   10.6240 c1        1 5CO     -0.236500
     17 NAR         7.3950   -0.7830    1.6440 n2        1 5CO     -0.207000
     18 NAS         6.3390    1.2790    1.0150 n         1 5CO     -0.301000
     19 OAT         3.6710    0.5050    1.6800 os        1 5CO     -0.175000
     20 CAU         5.3650    0.3030    5.5280 c3        1 5CO     -0.668000
     21 CAV         4.2330    0.2930    2.9320 c2        1 5CO      0.073000
     22 CAW         8.2310   -0.6660    0.5360 c2        1 5CO      0.160000
     23 CAX         8.1510    0.3980   -0.3480 c2        1 5CO     -0.208000
     24 CAY         5.5860    0.1000    3.0260 c2        1 5CO     -0.031000
     25 CAZ         6.4880    0.1720    1.8470 c2        1 5CO      0.202000
     26 CBA         7.1430    1.4460   -0.1310 c2        1 5CO      0.337000
     27 NBB         6.8120   -3.9520    7.9360 n4        1 5CO     -0.111000
     28 NBC         7.2600   -1.2950    6.0300 n3        1 5CO     -0.868000
     29 HAA         0.3700    2.7520    1.3020 hc        1 5CO      0.084667
     30 HAAA       -0.4260    1.3900    0.4050 hc        1 5CO      0.084667
     31 HAAB        0.5810    2.6000   -0.4930 hc        1 5CO      0.084667
     32 HAB         1.5500   -0.6890   -2.3100 ha        1 5CO      0.000500
     33 HABA        2.0260   -0.9980   -1.9410 ha        1 5CO      0.000500
     34 HABB       10.7050   -3.3350    0.0270 ha        1 5CO      0.229000
     35 HAC         5.9620   -3.4070    7.7860 hn        1 5CO      0.244500
     36 HACA        6.7940   -4.7510    5.8630 hx        1 5CO      0.126000
     37 HACB        7.7490   -5.7470    7.0870 hx        1 5CO      0.126000
     38 HAH         3.2850    0.1000    6.2420 ha        1 5CO      0.147000
     39 HAI         2.2900    0.1270    3.9260 ha        1 5CO      0.150000
     40 HAJ         5.5910    1.4050    5.6570 h1        1 5CO      0.172000
     41 HAK         2.4300    2.0300    2.4950 h4        1 5CO      0.145000
     42 HAKA        1.8610    0.4060   -0.1380 ha        1 5CO      0.147000
     43 HAL         3.3940   -3.5090   -2.1710 ha        1 5CO      0.000500
     44 HALA        3.0260   -2.9420   -2.2100 ha        1 5CO      0.000500
     45 HAM         3.4380   -1.7570   -0.3290 ha        1 5CO      0.000500
     46 HAMA        3.3940   -1.2420    0.1090 ha        1 5CO      0.000500
     47 HAN         7.8340   -1.5730    3.9890 h4        1 5CO      0.198000
     48 HANA        6.7860   -3.6540    3.7750 ha        1 5CO      0.000500
     49 HAO         6.8340   -4.3480    8.8640 hn        1 5CO      0.244500
     50 HAOA        4.4870   -2.5260    9.3470 ha        1 5CO      0.239500
     51 HAP         8.9760   -3.4530    7.8030 hx        1 5CO      0.128000
     52 HAPA        6.6210   -4.2890    3.6070 ha        1 5CO      0.000500
     53 HAQ         5.0920   -5.1950   11.2410 ha        1 5CO      0.239500
     54 HAQA        7.7830   -2.2190    6.4280 hn        1 5CO      0.360000
     55 HNAS        5.5900    1.9190    1.1750 hn        1 5CO      0.262000
     56 SBD         6.1330   -0.5290    6.9010 s6        1 5CO      2.712000
     57 CAC         7.3750   -4.7370    6.8120 cx        1 5CO     -0.122000
@<TRIPOS>BOND
     1    1   10 1   
     2    1   29 1   
     3    1   30 1   
     4    1   31 1   
     5    2   11 1   
     6    2   34 1   
     7    3   26 1   
     8    4   56 1   
     9    5   56 1   
    10    6   23 1   
    11    7    8 1   
    12    7   20 1   
    13    7   38 1   
    14    8   21 1   
    15    8   39 1   
    16    9   15 1   
    17    9   20 1   
    18    9   24 1   
    19   10   12 1   
    20   10   42 1   
    21   11   22 1   
    22   12   19 1   
    23   12   41 1   
    24   13   27 1   
    25   13   51 1   
    26   13   57 1   
    27   14   16 1   
    28   14   50 1   
    29   15   28 1   
    30   15   47 1   
    31   16   53 1   
    32   17   22 1   
    33   17   25 1   
    34   18   25 1   
    35   18   26 1   
    36   18   55 1   
    37   19   21 1   
    38   20   40 1   
    39   20   56 1   
    40   21   24 1   
    41   22   23 1   
    42   23   26 1   
    43   24   25 1   
    44   27   35 1   
    45   27   49 1   
    46   27   57 1   
    47   28   54 1   
    48   28   56 1   
    49   32   33 1   
    50   36   57 1   
    51   37   57 1   
    52   43   44 1   
    53   45   46 1   
    54   48   52 1   
@<TRIPOS>SUBSTRUCTURE
     1 5CO         1 TEMP              0 ****  ****    0 ROOT
