@<TRIPOS>MOLECULE
5CO
   57    55     1     0     0
SMALL
bcc


@<TRIPOS>ATOM
      1 CAA        -3.5810   -5.4600   -0.3390 c3        1 5CO     -0.212000
      2 CAB         2.9160   -5.8600   -1.1530 c3        1 5CO     -0.208000
      3 CAC         1.2560    6.3670   -0.6510 c3        1 5CO     -0.125000
      4 OAD         1.7620   -3.1940    3.4770 o         1 5CO     -0.335000
      5 OAE        -0.7740    3.8200   -2.1560 o         1 5CO     -0.929500
      6 OAF         1.2940    3.0340   -1.8190 o         1 5CO     -0.929500
      7 CLAG        3.6650   -4.9390    1.9620 cl        1 5CO      0.038000
      8 CAH        -2.0230    1.2870   -0.8670 c1        1 5CO     -0.101500
      9 CAI        -2.5350    0.0140   -0.6360 c1        1 5CO     -0.101500
     10 CAJ         0.1690    0.4730   -0.4260 c1        1 5CO      0.063000
     11 CAK        -3.0000   -4.1830   -1.0630 c3        1 5CO     -0.197000
     12 CAL         3.2580   -4.3510   -1.0880 c3        1 5CO     -0.122000
     13 CAM        -3.0850   -2.9630   -0.0980 c3        1 5CO     -0.021000
     14 CAN         1.6270    5.2790    1.5020 c3        1 5CO     -0.076000
     15 CAO        -0.4550    6.1550    1.0990 c3        1 5CO     -0.076000
     16 CAP         1.1770    3.9400    0.9150 c3        1 5CO     -0.042000
     17 CAQ        -0.9040    4.8230    0.5150 c3        1 5CO     -0.042000
     18 NAR         1.3280   -2.7200   -0.5990 n1        1 5CO     -0.203000
     19 NAS         0.6640   -2.1340    1.7740 n         1 5CO     -0.302000
     20 OAT        -1.7840   -2.4010    0.0750 os        1 5CO     -0.219000
     21 CAU        -0.6810    1.5120   -0.7620 c1        1 5CO     -0.862000
     22 CAV        -1.6890   -1.0180   -0.3020 c1        1 5CO      0.171000
     23 CAW         2.2920   -3.6430   -0.1070 c1        1 5CO      0.061000
     24 CAX         2.4580   -3.8220    1.3450 c2        1 5CO     -0.228000
     25 CAY        -0.3430   -0.7950   -0.1960 c1        1 5CO     -0.129000
     26 CAZ         0.5680   -1.8930    0.3320 c2        1 5CO      0.184000
     27 CBA         1.6380   -3.0380    2.2760 c2        1 5CO      0.335000
     28 NBB         1.0230    6.4940    0.7710 n3        1 5CO     -0.250000
     29 NBC         0.1130    4.0640    0.2210 n3        1 5CO     -0.837000
     30 SBD         0.0020    3.1510   -1.1500 s6        1 5CO      2.853000
     31 HAA        -3.3640   -6.2780   -0.8740 hc        1 5CO      0.080000
     32 HAAA       -4.5740   -5.3720   -0.2520 hc        1 5CO      0.080000
     33 HAAB       -3.1850   -5.5360    0.5470 hc        1 5CO      0.080000
     34 HAB         3.5860   -6.3230   -1.6990 hc        1 5CO      0.082667
     35 HABA        2.9170   -6.2300   -0.2580 hc        1 5CO      0.082667
     36 HABB        2.0440   -5.9760   -1.5470 hc        1 5CO      0.082667
     37 HAC         2.2090    6.5500   -0.8450 h1        1 5CO      0.075667
     38 HACA        0.6990    7.0070   -1.1320 h1        1 5CO      0.075667
     39 HACB        1.0320    5.4580   -0.9390 h1        1 5CO      0.075667
     40 HAH        -2.6090    2.0010   -1.0970 ha        1 5CO      0.159000
     41 HAI        -3.4870   -0.1460   -0.7100 ha        1 5CO      0.159000
     42 HAJ         1.1380    0.6350   -0.3500 ha        1 5CO      0.171000
     43 HAK        -2.0390   -4.3450   -1.3160 hc        1 5CO      0.099500
     44 HAKA       -3.5200   -3.9980   -1.8670 hc        1 5CO      0.099500
     45 HAL         3.1610   -3.9450   -2.0080 hc        1 5CO      0.107000
     46 HALA        4.1920   -4.2380   -0.7720 hc        1 5CO      0.107000
     47 HAM        -3.4340   -3.2620    0.7770 h1        1 5CO      0.105500
     48 HAMA       -3.6890   -2.2830   -0.4790 h1        1 5CO      0.105500
     49 HAN         2.6270    5.3350    1.4470 h1        1 5CO      0.096000
     50 HANA        1.3600    5.3140    2.4460 h1        1 5CO      0.096000
     51 HAO        -1.0370    6.8780    0.7380 h1        1 5CO      0.096000
     52 HAOA       -0.5620    6.1210    2.1020 h1        1 5CO      0.096000
     53 HAP         1.9000    3.5800    0.3370 h1        1 5CO      0.092000
     54 HAPA        1.0100    3.3130    1.6440 h1        1 5CO      0.092000
     55 HAQ        -1.4210    4.9900   -0.2950 h1        1 5CO      0.092000
     56 HAQA       -1.4840    4.3520    1.1830 h1        1 5CO      0.092000
     57 HNAS        0.1750   -1.6000    2.3690 hn        1 5CO      0.260000
@<TRIPOS>BOND
     1    1   11 1   
     2    1   31 1   
     3    1   32 1   
     4    1   33 1   
     5    2   12 1   
     6    2   34 1   
     7    2   35 1   
     8    2   36 1   
     9    3   28 1   
    10    3   37 1   
    11    3   38 1   
    12    3   39 1   
    13    4   27 1   
    14    5   30 1   
    15    6   30 1   
    16    7   24 1   
    17    8    9 1   
    18    8   40 1   
    19    9   41 1   
    20   10   21 1   
    21   10   42 1   
    22   11   13 1   
    23   11   43 1   
    24   11   44 1   
    25   12   23 1   
    26   12   45 1   
    27   12   46 1   
    28   13   20 1   
    29   13   47 1   
    30   13   48 1   
    31   14   16 1   
    32   14   28 1   
    33   14   49 1   
    34   14   50 1   
    35   15   17 1   
    36   15   28 1   
    37   15   51 1   
    38   15   52 1   
    39   16   29 1   
    40   16   53 1   
    41   16   54 1   
    42   17   29 1   
    43   17   55 1   
    44   17   56 1   
    45   18   26 1   
    46   19   26 1   
    47   19   27 1   
    48   19   57 1   
    49   20   22 1   
    50   21   30 1   
    51   22   25 1   
    52   23   24 1   
    53   24   27 1   
    54   25   26 1   
    55   29   30 1   
@<TRIPOS>SUBSTRUCTURE
     1 5CO         1 TEMP              0 ****  ****    0 ROOT
