@<TRIPOS>MOLECULE
5CO
   57    56     1     0     0
SMALL
bcc


@<TRIPOS>ATOM
      1 CAA        -0.2480   -0.9250    0.2370 c3        1 5CO     -0.176000
      2 CAB         5.6550    0.8860   -2.2500 c3        1 5CO     -0.209000
      3 OAD         8.1300   -3.3560    0.4830 o         1 5CO     -0.345000
      4 OAE         5.9610    1.1430    7.4160 o         1 5CO     -0.959000
      5 OAF         5.2410   -1.0890    7.7250 o         1 5CO     -0.959000
      6 CLAG        8.4780   -1.4130   -1.8100 cl        1 5CO      0.032000
      7 CAH         3.4320   -0.4020    5.2980 c2        1 5CO     -0.072000
      8 CAI         2.9010   -0.8580    4.1480 c2        1 5CO     -0.165000
      9 CAJ         5.6780   -0.5300    4.2710 c2        1 5CO     -0.201000
     10 CAK         1.0770   -1.4330    0.6360 c2        1 5CO     -0.196000
     11 CAL         6.7370    1.0750   -1.2150 c3        1 5CO     -0.123000
     12 CAM         1.8620   -0.7930    1.5150 c2        1 5CO     -0.049000
     13 CAN         8.4640   -2.2970    7.6880 cu        1 5CO     -0.436000
     14 CAO         5.2580   -2.4860   10.5320 c1        1 5CO     -0.236500
     15 CAP         6.9140   -0.9090    4.7320 c2        1 5CO      0.024000
     16 CAQ         5.7580   -3.1710   11.3760 c1        1 5CO     -0.236500
     17 NAR         5.9460    0.0860    0.8940 n2        1 5CO     -0.185000
     18 NAS         6.6620   -2.0760    1.6590 n         1 5CO     -0.317000
     19 OAT         3.1350   -1.3250    1.7430 os        1 5CO     -0.164000
     20 CAU         4.8240    0.0860    5.3490 c3        1 5CO     -0.662000
     21 CAV         3.7150   -0.9510    2.9460 c2        1 5CO      0.096000
     22 CAW         6.7470   -0.0640   -0.2330 c2        1 5CO      0.063000
     23 CAX         7.5080   -1.1980   -0.4440 c2        1 5CO     -0.231000
     24 CAY         5.0690   -0.7830    2.9940 c2        1 5CO     -0.049000
     25 CAZ         5.9220   -0.9020    1.7830 c2        1 5CO      0.195000
     26 CBA         7.4920   -2.2900    0.5390 c2        1 5CO      0.336000
     27 NBB         7.4330   -2.9070    8.5400 n4        1 5CO     -0.111000
     28 NBC         7.1080   -0.7270    6.0860 n3        1 5CO     -0.865000
     29 HAA        -0.5190    0.0140    0.7790 hc        1 5CO      0.082333
     30 HAAA       -1.0320   -1.6950    0.4500 hc        1 5CO      0.082333
     31 HAAB       -0.2590   -0.7120   -0.8620 hc        1 5CO      0.082333
     32 HAB         4.6490    0.8590   -1.7660 hc        1 5CO      0.082333
     33 HABA        5.6770    1.7360   -2.9750 hc        1 5CO      0.082333
     34 HABB        5.8070   -0.0660   -2.8140 hc        1 5CO      0.082333
     35 HAC         6.4640   -2.6470    8.3510 hn        1 5CO      0.246500
     36 HACA        7.5880   -4.1060    6.6760 hx        1 5CO      0.126500
     37 HACB        8.8050   -4.5350    7.9950 hx        1 5CO      0.126500
     38 HAH         2.8460   -0.3390    6.2270 ha        1 5CO      0.145000
     39 HAI         1.8570   -1.1960    4.0750 ha        1 5CO      0.150000
     40 HAJ         4.7760    1.2050    5.1660 h1        1 5CO      0.179000
     41 HAK         1.6220    0.1410    2.0390 h4        1 5CO      0.146000
     42 HAKA        1.4090   -2.3680    0.1580 ha        1 5CO      0.141000
     43 HAL         7.7420    1.1370   -1.7130 hc        1 5CO      0.106500
     44 HALA        6.5710    2.0480   -0.6760 hc        1 5CO      0.106500
     45 HAM         4.7740    3.2820   -1.4080 ha        1 5CO      0.000750
     46 HAMA        4.6310    3.8980   -1.1650 ha        1 5CO      0.000750
     47 HAN         7.7260   -1.3490    4.1360 h4        1 5CO      0.174000
     48 HANA        7.1260   -3.5950    4.4090 ha        1 5CO      0.000750
     49 HAO         7.5810   -3.0760    9.5240 hn        1 5CO      0.246500
     50 HAOA        4.8130   -1.8680    9.7790 ha        1 5CO      0.239500
     51 HAP         9.3800   -1.9040    8.1450 hx        1 5CO      0.130000
     52 HAPA        7.0970   -4.2310    4.1760 ha        1 5CO      0.000750
     53 HAQ         7.8740   -1.3550    6.6560 hn        1 5CO      0.360000
     54 HAQA        6.1790   -3.7730   12.1420 ha        1 5CO      0.239500
     55 HNAS        6.5820   -2.7930    2.3480 hn        1 5CO      0.253000
     56 SBD         5.7990   -0.1250    6.8270 s6        1 5CO      2.707000
     57 CAC         8.1640   -3.7400    7.5560 cx        1 5CO     -0.121000
@<TRIPOS>BOND
     1    1   10 1   
     2    1   29 1   
     3    1   30 1   
     4    1   31 1   
     5    2   11 1   
     6    2   32 1   
     7    2   33 1   
     8    2   34 1   
     9    3   26 1   
    10    4   56 1   
    11    5   56 1   
    12    6   23 1   
    13    7    8 1   
    14    7   20 1   
    15    7   38 1   
    16    8   21 1   
    17    8   39 1   
    18    9   15 1   
    19    9   20 1   
    20    9   24 1   
    21   10   12 1   
    22   10   42 1   
    23   11   22 1   
    24   11   43 1   
    25   11   44 1   
    26   12   19 1   
    27   12   41 1   
    28   13   27 1   
    29   13   51 1   
    30   13   57 1   
    31   14   16 1   
    32   14   50 1   
    33   15   28 1   
    34   15   47 1   
    35   16   54 1   
    36   17   22 1   
    37   17   25 1   
    38   18   25 1   
    39   18   26 1   
    40   18   55 1   
    41   19   21 1   
    42   20   40 1   
    43   20   56 1   
    44   21   24 1   
    45   22   23 1   
    46   23   26 1   
    47   24   25 1   
    48   27   35 1   
    49   27   49 1   
    50   27   57 1   
    51   28   53 1   
    52   28   56 1   
    53   36   57 1   
    54   37   57 1   
    55   45   46 1   
    56   48   52 1   
@<TRIPOS>SUBSTRUCTURE
     1 5CO         1 TEMP              0 ****  ****    0 ROOT
