@<TRIPOS>MOLECULE
5CO
   57    59     1     0     0
SMALL
bcc


@<TRIPOS>ATOM
      1 CAA        -3.5940    6.2820   -0.9980 c3        1 5CO     -0.095100
      2 CAB        -2.6500   -3.6830    1.9440 c3        1 5CO     -0.091100
      3 OAD        -5.4570   -0.0140   -1.2490 o         1 5CO     -0.610500
      4 OAE         2.6520   -1.3840   -1.6050 o         1 5CO     -0.652300
      5 OAF         3.8740    0.6550   -1.9960 o         1 5CO     -0.652300
      6 CLAG       -5.7530   -2.0370    0.9820 cl        1 5CO     -0.047400
      7 CAH         1.5260    2.1750   -1.3530 ca        1 5CO      0.039000
      8 CAI         0.3500    2.9090   -1.2800 ca        1 5CO     -0.241000
      9 CAJ         0.3520    0.1820   -0.6890 ca        1 5CO      0.066000
     10 CAK        -3.4750    4.7950   -0.7860 c3        1 5CO     -0.089400
     11 CAL        -3.0150   -2.2900    2.3980 c3        1 5CO     -0.038200
     12 CAM        -2.0440    4.3440   -1.0230 c3        1 5CO      0.129400
     13 CAN         4.3290   -1.7820    2.0300 c3        1 5CO      0.156800
     14 CAO         5.6740    0.1860    1.5990 c3        1 5CO      0.156800
     15 CAP         3.1400   -1.1270    1.2960 c3        1 5CO      0.222300
     16 CAQ         4.4810    0.8370    0.8660 c3        1 5CO      0.222300
     17 NAR        -2.0040   -0.6690    0.8490 nc        1 5CO     -0.640300
     18 NAS        -3.2380    0.3790   -0.9220 n         1 5CO     -0.459400
     19 OAT        -2.0500    2.9210   -0.8100 os        1 5CO     -0.335900
     20 CAU         1.5480    0.8070   -1.0560 ca        1 5CO     -0.417500
     21 CAV        -0.8460    2.2740   -0.9050 ca        1 5CO      0.217100
     22 CAW        -3.1490   -1.3590    1.2240 cc        1 5CO      0.197400
     23 CAX        -4.3480   -1.2040    0.5560 cd        1 5CO     -0.162800
     24 CAY        -0.8490    0.8900   -0.6090 ca        1 5CO     -0.213900
     25 CAZ        -2.0790    0.1670   -0.1880 cd        1 5CO      0.568500
     26 CBA        -4.4430   -0.2730   -0.5780 c         1 5CO      0.697700
     27 NBB         5.2610   -0.8070    2.5800 n3        1 5CO     -0.730600
     28 NBC         3.5390   -0.1200    0.3450 n3        1 5CO     -0.819500
     29 HAA        -3.3100    6.5580   -2.0420 hc        1 5CO      0.041367
     30 HAAA       -4.6480    6.6060   -0.8220 hc        1 5CO      0.041367
     31 HAAB       -2.9310    6.8390   -0.2930 hc        1 5CO      0.041367
     32 HAB        -1.6720   -3.6790    1.4060 hc        1 5CO      0.043367
     33 HABA       -2.5650   -4.3570    2.8310 hc        1 5CO      0.043367
     34 HABB       -3.4310   -4.0930    1.2600 hc        1 5CO      0.043367
     35 HAC         7.0370   -2.0290    2.5430 h1        1 5CO      0.034700
     36 HACA        7.0130   -0.6330    3.7160 h1        1 5CO      0.034700
     37 HACB        6.0000   -2.1150    4.0400 h1        1 5CO      0.034700
     38 HAH         2.4620    2.6740   -1.6670 ha        1 5CO      0.162000
     39 HAI         0.3650    3.9820   -1.5200 ha        1 5CO      0.152000
     40 HAJ         0.3590   -0.9040   -0.4710 ha        1 5CO      0.171000
     41 HAK        -3.7810    4.5250    0.2590 hc        1 5CO      0.063200
     42 HAKA       -4.1590    4.2460   -1.4840 hc        1 5CO      0.063200
     43 HAL        -3.9870   -2.3110    2.9590 hc        1 5CO      0.066200
     44 HALA       -2.2310   -1.9080    3.1070 hc        1 5CO      0.066200
     45 HAM        -1.7190    4.5570   -2.0750 h1        1 5CO      0.048700
     46 HAMA       -1.3390    4.8260   -0.2960 h1        1 5CO      0.048700
     47 HAN         3.9120   -2.3790    2.8890 h1        1 5CO      0.041700
     48 HANA        4.8410   -2.4990    1.3240 h1        1 5CO      0.041700
     49 HAO         6.3770   -0.2510    0.8300 h1        1 5CO      0.041700
     50 HAOA        6.2230    1.0010    2.1470 h1        1 5CO      0.041700
     51 HAP         2.5760   -1.9420    0.7580 h1        1 5CO      0.059450
     52 HAPA        2.4560   -0.6610    2.0640 h1        1 5CO      0.059450
     53 HAQ         3.9500    1.5250    1.5860 h1        1 5CO      0.059450
     54 HAQA        4.8940    1.4540    0.0160 h1        1 5CO      0.059450
     55 HNAS       -3.2520    1.0670   -1.6450 hn        1 5CO      0.347500
     56 SBD         2.9840   -0.0800   -1.1790 sy        1 5CO      1.514200
     57 CAC         6.3860   -1.4310    3.2390 c3        1 5CO      0.156100
@<TRIPOS>BOND
     1    1   10 1   
     2    1   29 1   
     3    1   30 1   
     4    1   31 1   
     5    2   11 1   
     6    2   32 1   
     7    2   33 1   
     8    2   34 1   
     9    3   26 2   
    10    4   56 2   
    11    5   56 2   
    12    6   23 1   
    13    7    8 ar  
    14    7   20 ar  
    15    7   38 1   
    16    8   21 ar  
    17    8   39 1   
    18    9   20 ar  
    19    9   24 ar  
    20    9   40 1   
    21   10   12 1   
    22   10   41 1   
    23   10   42 1   
    24   11   22 1   
    25   11   43 1   
    26   11   44 1   
    27   12   19 1   
    28   12   45 1   
    29   12   46 1   
    30   13   15 1   
    31   13   27 1   
    32   13   47 1   
    33   13   48 1   
    34   14   16 1   
    35   14   27 1   
    36   14   49 1   
    37   14   50 1   
    38   15   28 1   
    39   15   51 1   
    40   15   52 1   
    41   16   28 1   
    42   16   53 1   
    43   16   54 1   
    44   17   22 1   
    45   17   25 2   
    46   18   25 1   
    47   18   26 1   
    48   18   55 1   
    49   19   21 1   
    50   20   56 1   
    51   21   24 ar  
    52   22   23 2   
    53   23   26 1   
    54   24   25 1   
    55   27   57 1   
    56   28   56 1   
    57   35   57 1   
    58   36   57 1   
    59   37   57 1   
@<TRIPOS>SUBSTRUCTURE
     1 5CO         1 TEMP              0 ****  ****    0 ROOT
