@<TRIPOS>MOLECULE
5CP
   47    50     1     0     0
SMALL
bcc


@<TRIPOS>ATOM
      1 C4         -1.7020   -1.7570   -0.0120 ca        1 5CP      0.720200
      2 C5         -1.0730   -3.0350    0.0180 ca        1 5CP     -0.506600
      3 C6          0.3440   -3.0680    0.1170 ca        1 5CP      0.721200
      4 N1          1.0910   -1.9150    0.1740 nb        1 5CP     -0.818000
      5 N3         -0.9870   -0.5970    0.0690 nb        1 5CP     -0.810000
      6 C1U        -5.4490    3.9020    0.5800 cx        1 5CP     -0.127900
      7 C1W        -6.3260    3.4780   -0.5570 cx        1 5CP     -0.127900
      8 C1T        -4.9110    2.9580   -0.4680 cx        1 5CP     -0.060400
      9 C1R        -4.6430    1.5620   -0.1530 cc        1 5CP     -0.074600
     10 C1S        -3.6130    0.7360   -0.6350 cd        1 5CP     -0.245300
     11 N1Q        -5.4050    0.7710    0.7200 na        1 5CP     -0.007600
     12 N1P        -4.9420   -0.4670    0.8400 nc        1 5CP     -0.550800
     13 C1H        -3.8330   -0.5470    0.0130 cd        1 5CP      0.506200
     14 N1G        -3.0980   -1.7230   -0.2170 nh        1 5CP     -0.788600
     15 N1X         1.0250   -4.2850    0.2190 nh        1 5CP     -0.851900
     16 C1Y         0.4000   -5.4870   -0.2420 c3        1 5CP      0.190100
     17 C2          0.3890   -0.7330    0.1780 ca        1 5CP      0.922900
     18 N1I         1.0950    0.4820    0.3500 nh        1 5CP     -0.713300
     19 C1J         2.4840    0.5850    0.1230 ca        1 5CP      0.149600
     20 C1O         2.9740    1.5470   -0.7920 ca        1 5CP     -0.139000
     21 C1N         4.3420    1.7240   -0.9630 ca        1 5CP     -0.103000
     22 C1K         3.4120   -0.1830    0.8570 ca        1 5CP     -0.139000
     23 C1L         4.7770    0.0010    0.6670 ca        1 5CP     -0.103000
     24 C1M         5.2560    0.9510   -0.2400 ca        1 5CP     -0.109300
     25 C1V         6.7220    1.1260   -0.4500 c3        1 5CP      0.029000
     26 C1Z         7.2660    2.2000    0.3550 c1        1 5CP      0.213700
     27 N1A         7.7110    3.0610    0.9980 n1        1 5CP     -0.373800
     28 H5         -1.6620   -3.9560   -0.0340 ha        1 5CP      0.152000
     29 H1UA       -5.6570    3.5200    1.5950 hc        1 5CP      0.075200
     30 H1W        -7.1680    2.7900   -0.3640 hc        1 5CP      0.075200
     31 H1WA       -6.5680    4.2050   -1.3530 hc        1 5CP      0.075200
     32 H1T        -4.1670    3.3550   -1.1900 hc        1 5CP      0.100700
     33 H1S        -2.8150    0.9890   -1.3220 ha        1 5CP      0.178000
     34 HN1Q       -6.2150    1.0510    1.2200 hn        1 5CP      0.320700
     35 HN1G       -3.5530   -2.5610    0.0940 hn        1 5CP      0.429800
     36 HN1X        2.0160   -4.2420    0.1110 hn        1 5CP      0.429800
     37 H1Y        -0.4480   -5.7570    0.4440 h1        1 5CP      0.041700
     38 H1YA       -0.0060   -5.3910   -1.2860 h1        1 5CP      0.041700
     39 H1YB        1.1550   -6.3160   -0.2210 h1        1 5CP      0.041700
     40 HN1I        0.5750    1.2990    0.0920 hn        1 5CP      0.439800
     41 H1O         2.2760    2.1680   -1.3750 ha        1 5CP      0.147500
     42 H1N         4.7050    2.4790   -1.6770 ha        1 5CP      0.135000
     43 H1K         3.0650   -0.9320    1.5860 ha        1 5CP      0.147500
     44 H1L         5.4880   -0.6090    1.2470 ha        1 5CP      0.135000
     45 H1V         7.2650    0.1730   -0.1900 hc        1 5CP      0.078200
     46 H1VA        6.9290    1.3500   -1.5350 hc        1 5CP      0.078200
     47 H1U        -5.0580    4.9340    0.6050 hc        1 5CP      0.075200
@<TRIPOS>BOND
     1    1    2 ar  
     2    1    5 ar  
     3    1   14 1   
     4    2    3 ar  
     5    2   28 1   
     6    3    4 ar  
     7    3   15 1   
     8    4   17 ar  
     9    5   17 ar  
    10    6    7 1   
    11    6    8 1   
    12    6   29 1   
    13    6   47 1   
    14    7    8 1   
    15    7   30 1   
    16    7   31 1   
    17    8    9 1   
    18    8   32 1   
    19    9   10 2   
    20    9   11 1   
    21   10   13 1   
    22   10   33 1   
    23   11   12 1   
    24   11   34 1   
    25   12   13 2   
    26   13   14 1   
    27   14   35 1   
    28   15   16 1   
    29   15   36 1   
    30   16   37 1   
    31   16   38 1   
    32   16   39 1   
    33   17   18 1   
    34   18   19 1   
    35   18   40 1   
    36   19   20 ar  
    37   19   22 ar  
    38   20   21 ar  
    39   20   41 1   
    40   21   24 ar  
    41   21   42 1   
    42   22   23 ar  
    43   22   43 1   
    44   23   24 ar  
    45   23   44 1   
    46   24   25 1   
    47   25   26 1   
    48   25   45 1   
    49   25   46 1   
    50   26   27 3   
@<TRIPOS>SUBSTRUCTURE
     1 5CP         1 TEMP              0 ****  ****    0 ROOT
