@<TRIPOS>MOLECULE
5CP
   47    50     1     0     0
SMALL
bcc


@<TRIPOS>ATOM
      1 C4         -0.1000    0.0310    0.1190 ca        1 5CP      0.720200
      2 C5          1.3130    0.0670   -0.0620 ca        1 5CP     -0.506600
      3 C6          2.1270   -0.1270    1.0840 ca        1 5CP      0.721200
      4 N1          1.5840   -0.3360    2.3300 nb        1 5CP     -0.818000
      5 N3         -0.6670   -0.1990    1.3380 nb        1 5CP     -0.810000
      6 C1U        -6.8640   -0.7780    0.0480 cx        1 5CP     -0.127900
      7 C1W        -7.0340    0.4500   -0.7930 cx        1 5CP     -0.127900
      8 C1T        -5.8150    0.3070    0.0860 cx        1 5CP     -0.060400
      9 C1R        -4.4940    0.0940   -0.4890 cc        1 5CP     -0.074600
     10 C1S        -3.2530    0.5720   -0.0360 cd        1 5CP     -0.245300
     11 N1Q        -4.2290   -0.6530   -1.6470 na        1 5CP     -0.007600
     12 N1P        -2.9390   -0.7000   -1.9530 nc        1 5CP     -0.550800
     13 C1H        -2.2850    0.0520   -0.9900 cd        1 5CP      0.506200
     14 N1G        -0.9070    0.3300   -1.0000 nh        1 5CP     -0.788600
     15 N1X         3.5200   -0.1710    0.9730 nh        1 5CP     -0.851900
     16 C1Y         4.1600    0.4340   -0.1550 c3        1 5CP      0.190100
     17 C2          0.2110   -0.3920    2.3940 ca        1 5CP      0.922900
     18 N1I        -0.4040   -0.7170    3.6270 nh        1 5CP     -0.713300
     19 C1J         0.2720   -0.5970    4.8620 ca        1 5CP      0.149600
     20 C1O        -0.2880    0.1940    5.8910 ca        1 5CP     -0.139000
     21 C1N         0.3160    0.2530    7.1420 ca        1 5CP     -0.103000
     22 C1K         1.4490   -1.3250    5.1330 ca        1 5CP     -0.139000
     23 C1L         2.0450   -1.2480    6.3870 ca        1 5CP     -0.103000
     24 C1M         1.4890   -0.4620    7.4010 ca        1 5CP     -0.109300
     25 C1V         2.1480   -0.3720    8.7350 c3        1 5CP      0.029000
     26 C1Z         1.5820   -1.3020    9.6900 c1        1 5CP      0.213700
     27 N1A         1.1330   -2.0460   10.4630 n1        1 5CP     -0.373800
     28 H5          1.7520    0.2400   -1.0500 ha        1 5CP      0.152000
     29 H1UA       -7.5060   -0.9170    0.9350 hc        1 5CP      0.075200
     30 H1W        -6.9220    0.3740   -1.8890 hc        1 5CP      0.075200
     31 H1WA       -7.7990    1.1950   -0.5130 hc        1 5CP      0.075200
     32 H1T        -5.7570    0.9400    0.9970 hc        1 5CP      0.100700
     33 H1S        -3.0440    1.1780    0.8370 ha        1 5CP      0.178000
     34 HN1Q       -4.8950   -1.1180   -2.2180 hn        1 5CP      0.320700
     35 HN1G       -0.4530    0.1240   -1.8690 hn        1 5CP      0.429800
     36 HN1X        4.0300   -0.1370    1.8300 hn        1 5CP      0.429800
     37 H1Y         3.9380   -0.1650   -1.0800 h1        1 5CP      0.041700
     38 H1YA        5.2690    0.4320    0.0150 h1        1 5CP      0.041700
     39 H1YB        3.8200    1.4920   -0.3290 h1        1 5CP      0.041700
     40 HN1I       -1.3800   -0.4950    3.6710 hn        1 5CP      0.439800
     41 H1O        -1.2100    0.7690    5.7140 ha        1 5CP      0.147500
     42 H1N        -0.1350    0.8720    7.9330 ha        1 5CP      0.135000
     43 H1K         1.9050   -1.9620    4.3580 ha        1 5CP      0.147500
     44 H1L         2.9650   -1.8220    6.5810 ha        1 5CP      0.135000
     45 H1V         3.2500   -0.5850    8.6370 hc        1 5CP      0.078200
     46 H1VA        2.0400    0.6730    9.1450 hc        1 5CP      0.078200
     47 H1U        -6.6280   -1.7400   -0.4400 hc        1 5CP      0.075200
@<TRIPOS>BOND
     1    1    2 ar  
     2    1    5 ar  
     3    1   14 1   
     4    2    3 ar  
     5    2   28 1   
     6    3    4 ar  
     7    3   15 1   
     8    4   17 ar  
     9    5   17 ar  
    10    6    7 1   
    11    6    8 1   
    12    6   29 1   
    13    6   47 1   
    14    7    8 1   
    15    7   30 1   
    16    7   31 1   
    17    8    9 1   
    18    8   32 1   
    19    9   10 2   
    20    9   11 1   
    21   10   13 1   
    22   10   33 1   
    23   11   12 1   
    24   11   34 1   
    25   12   13 2   
    26   13   14 1   
    27   14   35 1   
    28   15   16 1   
    29   15   36 1   
    30   16   37 1   
    31   16   38 1   
    32   16   39 1   
    33   17   18 1   
    34   18   19 1   
    35   18   40 1   
    36   19   20 ar  
    37   19   22 ar  
    38   20   21 ar  
    39   20   41 1   
    40   21   24 ar  
    41   21   42 1   
    42   22   23 ar  
    43   22   43 1   
    44   23   24 ar  
    45   23   44 1   
    46   24   25 1   
    47   25   26 1   
    48   25   45 1   
    49   25   46 1   
    50   26   27 3   
@<TRIPOS>SUBSTRUCTURE
     1 5CP         1 TEMP              0 ****  ****    0 ROOT
