@<TRIPOS>MOLECULE
5CP
   50    53     1     0     0
SMALL
bcc


@<TRIPOS>ATOM
      1 C4         -0.8760   -0.6560    1.5560 ca        1 5CP      0.598200
      2 C5          0.1510   -0.1390    0.7160 ca        1 5CP     -0.253600
      3 C6          1.0070    0.8250    1.3080 ca        1 5CP      0.565200
      4 N1          0.8780    1.2350    2.6010 nb        1 5CP     -0.627000
      5 N3         -1.0310   -0.2730    2.8490 nb        1 5CP     -0.625000
      6 C1U        -6.3260   -0.4790   -3.0130 cx        1 5CP     -0.087900
      7 C1W        -6.5030    0.8000   -2.2670 cx        1 5CP     -0.087900
      8 C1T        -6.0340   -0.4350   -1.5250 cx        1 5CP     -0.151400
      9 C1R        -4.6750   -0.5510   -1.0270 cc        1 5CP      0.050400
     10 C1S        -4.2100   -1.2680    0.1020 cd        1 5CP     -0.233300
     11 N1Q        -3.5380    0.0450   -1.6070 na        1 5CP      0.060400
     12 N1P        -2.4180   -0.2250   -0.9760 nc        1 5CP     -0.516800
     13 C1H        -2.7850   -1.0440    0.0880 cd        1 5CP      0.267200
     14 N1G        -1.8380   -1.6490    1.0070 n4        1 5CP     -0.685400
     15 N1X         2.0930    1.4360    0.5040 n4        1 5CP     -0.752700
     16 C1Y         3.4340    0.8640    0.8250 c3        1 5CP      0.078100
     17 C2         -0.1410    0.6630    3.3190 ca        1 5CP      0.806900
     18 N1I        -0.2890    1.0840    4.7550 n4        1 5CP     -0.593100
     19 C1J         0.6430    0.3650    5.6300 ca        1 5CP     -0.121400
     20 C1O         1.9300    0.8950    5.8530 ca        1 5CP     -0.083500
     21 C1N         2.7790    0.2480    6.7410 ca        1 5CP     -0.099500
     22 C1K         0.2140   -0.8000    6.2970 ca        1 5CP     -0.083500
     23 C1L         1.0830   -1.4270    7.1840 ca        1 5CP     -0.099500
     24 C1M         2.3720   -0.9210    7.4080 ca        1 5CP      0.031700
     25 C1V         3.3020   -1.6100    8.3500 c3        1 5CP      0.001000
     26 C1Z         4.6290   -1.7230    7.7870 c1        1 5CP      0.168700
     27 N1A         5.6970   -1.8290    7.3410 n1        1 5CP     -0.285800
     28 H5          0.2520   -0.4580   -0.3400 ha        1 5CP      0.237000
     29 H1W        -5.8010    1.6350   -2.4370 hc        1 5CP      0.100950
     30 H1WA       -7.5270    1.1690   -2.0540 hc        1 5CP      0.100950
     31 H1T        -6.7570   -0.9350   -0.8410 hc        1 5CP      0.136700
     32 H1S        -4.8040   -1.8610    0.7940 ha        1 5CP      0.213000
     33 HN1Q       -3.5250    0.6080   -2.4410 hn        1 5CP      0.373700
     34 HN1G       -1.2990   -2.3810    0.5080 hn        1 5CP      0.505800
     35 HN1X        1.8820    1.2840   -0.4970 hn        1 5CP      0.497800
     36 H1Y         3.6930    1.0740    1.8990 hx        1 5CP      0.136367
     37 H1YA        3.4360   -0.2440    0.6360 hx        1 5CP      0.136367
     38 H1YB        4.1940    1.3620    0.1530 hx        1 5CP      0.136367
     39 HN1I       -0.1030    2.1010    4.8240 hn        1 5CP      0.504300
     40 H1O         2.2700    1.8200    5.3570 ha        1 5CP      0.161500
     41 H1N         3.7870    0.6620    6.9340 ha        1 5CP      0.197000
     42 H1K        -0.7970   -1.2150    6.1500 ha        1 5CP      0.161500
     43 H1L         0.7450   -2.3330    7.7220 ha        1 5CP      0.197000
     44 H1V         3.3530   -1.0200    9.3160 hc        1 5CP      0.125700
     45 H1VA        2.9210   -2.6390    8.6140 hc        1 5CP      0.125700
     46 H1U        -7.2190   -1.0450   -3.3450 hc        1 5CP      0.100950
     47 H1G2       -2.3900   -2.0940    1.7680 hn        1 5CP      0.505800
     48 H1X2        2.1170    2.4600    0.6760 hn        1 5CP      0.497800
     49 H1I2       -1.2610    0.8950    5.0640 hn        1 5CP      0.504300
     50 H1UA       -5.4900   -0.5850   -3.7270 hc        1 5CP      0.100950
@<TRIPOS>BOND
     1    1    2 ar  
     2    1    5 ar  
     3    1   14 1   
     4    2    3 ar  
     5    2   28 1   
     6    3    4 ar  
     7    3   15 1   
     8    4   17 ar  
     9    5   17 ar  
    10    6    7 1   
    11    6    8 1   
    12    6   46 1   
    13    6   50 1   
    14    7    8 1   
    15    7   29 1   
    16    7   30 1   
    17    8    9 1   
    18    8   31 1   
    19    9   10 2   
    20    9   11 1   
    21   10   13 1   
    22   10   32 1   
    23   11   12 1   
    24   11   33 1   
    25   12   13 2   
    26   13   14 1   
    27   14   34 1   
    28   14   47 1   
    29   15   16 1   
    30   15   35 1   
    31   15   48 1   
    32   16   36 1   
    33   16   37 1   
    34   16   38 1   
    35   17   18 1   
    36   18   19 1   
    37   18   39 1   
    38   18   49 1   
    39   19   20 ar  
    40   19   22 ar  
    41   20   21 ar  
    42   20   40 1   
    43   21   24 ar  
    44   21   41 1   
    45   22   23 ar  
    46   22   42 1   
    47   23   24 ar  
    48   23   43 1   
    49   24   25 1   
    50   25   26 1   
    51   25   44 1   
    52   25   45 1   
    53   26   27 3   
@<TRIPOS>SUBSTRUCTURE
     1 5CP         1 TEMP              0 ****  ****    0 ROOT
