@<TRIPOS>MOLECULE
5CP
   47    52     1     0     0
SMALL
bcc


@<TRIPOS>ATOM
      1 C4          0.0000    0.0000    0.0000 c2        1 5CP      0.009000
      2 C5          1.3910    0.0000    0.0000 c2        1 5CP     -0.385000
      3 C6          2.0540    0.0000    1.2240 c2        1 5CP      0.125000
      4 N1          1.3400   -0.0000    2.3470 n2        1 5CP     -0.161000
      5 N3         -0.6480    0.0010    1.1630 n2        1 5CP     -0.179000
      6 C1U        -6.6560   -0.9640    0.1820 cx        1 5CP     -0.209000
      7 C1W        -6.6980    0.5590    0.0330 cx        1 5CP     -0.209000
      8 C1T        -5.4320   -0.1250    0.5550 cx        1 5CP     -0.244000
      9 C1R        -4.2050   -0.2070   -0.4600 c3        1 5CP     -0.329000
     10 C1S        -2.9220   -0.0820   -0.0480 c2        1 5CP     -0.173000
     11 N1Q        -4.1990   -0.3060   -1.8060 n7        1 5CP      0.281000
     12 N1P        -2.8690   -0.2340   -2.2420 n2        1 5CP     -0.205000
     13 C1H        -2.1010   -0.0990   -1.1880 c2        1 5CP     -0.061000
     14 N1G        -0.7030    0.0050   -1.1960 nu        1 5CP      0.228000
     15 N1X         3.4390   -0.0000    1.2720 nu        1 5CP     -0.159000
     16 C1Y         4.2160   -0.0010    0.0310 DU        1 5CP     -0.093000
     17 C2          0.0160    0.0010    2.3090 c2        1 5CP      0.016000
     18 N1I        -0.6930    0.0010    3.4990 nu        1 5CP      0.177000
     19 C1J        -0.0150   -0.1200    4.7160 ca        1 5CP     -0.087000
     20 C1O        -0.4470    0.5960    5.8270 ca        1 5CP     -0.114500
     21 C1N         0.2240    0.4750    7.0280 ca        1 5CP     -0.063000
     22 C1K         1.0880   -0.9570    4.8200 ca        1 5CP     -0.114500
     23 C1L         1.7540   -1.0740    6.0230 ca        1 5CP     -0.063000
     24 C1M         1.3240   -0.3560    7.1250 ca        1 5CP     -0.103000
     25 C1V         2.0550   -0.4860    8.4370 c3        1 5CP      0.108000
     26 C1Z         1.4640   -1.5820    9.2210 c1        1 5CP     -0.209000
     27 N1A         1.0200   -2.4420    9.8180 n1        1 5CP     -0.077000
     28 H5          1.7750   -0.0810   -1.0100 ha        1 5CP      0.142000
     29 H1UA       -6.3070   -1.1640   -0.8240 hc        1 5CP      0.094000
     30 H1W        -7.3230    1.0720    0.7540 hc        1 5CP      0.094000
     31 H1WA       -6.2150    0.8700   -0.8850 hc        1 5CP      0.094000
     32 H1T        -4.4990   -0.3090    0.0370 DU        1 5CP      0.330000
     33 H1S        -2.7670    0.2610    0.9670 ha        1 5CP      0.198000
     34 HN1Q       -5.0950   -0.0950   -2.1990 hn        1 5CP      0.116000
     35 HN1G       -0.0920   -0.3410   -1.9090 hn        1 5CP      0.079000
     36 HN1X        3.9140    0.7110    0.7530 DU        1 5CP      0.184000
     37 H1Y         3.4750    0.1080   -0.7530 ha        1 5CP      0.054333
     38 H1YA        5.0550    0.6680   -0.1130 ha        1 5CP      0.054333
     39 H1YB        4.7260   -0.9530   -0.0510 ha        1 5CP      0.054333
     40 HN1I       -1.1180    0.9070    3.5140 hn        1 5CP      0.063000
     41 H1O        -1.4600    0.9740    5.7610 ha        1 5CP      0.126500
     42 H1N        -0.2070    1.0590    7.8320 ha        1 5CP      0.109500
     43 H1K         1.4580   -1.4650    3.9370 ha        1 5CP      0.126500
     44 H1L         2.7870   -1.3520    6.1930 ha        1 5CP      0.109500
     45 H1V         2.0000    0.1810    9.2890 hc        1 5CP      0.085000
     46 H1VA        2.9520   -1.0920    8.4880 hc        1 5CP      0.085000
     47 H1U        -7.6070   -1.1580    0.6630 hc        1 5CP      0.094000
@<TRIPOS>BOND
     1    1    2 1   
     2    1    5 1   
     3    1   14 1   
     4    2    3 1   
     5    2   28 1   
     6    3    4 1   
     7    3   15 1   
     8    4   17 1   
     9    5   17 1   
    10    6    7 1   
    11    6    8 1   
    12    6   29 1   
    13    6   47 1   
    14    7    8 1   
    15    7   30 1   
    16    7   31 1   
    17    8    9 1   
    18    8   32 1   
    19    9   10 1   
    20    9   11 1   
    21    9   32 1   
    22   10   13 1   
    23   10   33 1   
    24   11   12 1   
    25   11   34 1   
    26   12   13 1   
    27   13   14 1   
    28   14   35 1   
    29   15   16 1   
    30   15   36 1   
    31   16   36 1   
    32   16   37 1   
    33   16   38 1   
    34   16   39 1   
    35   17   18 1   
    36   18   19 1   
    37   18   40 1   
    38   19   20 1   
    39   19   22 1   
    40   20   21 1   
    41   20   41 1   
    42   21   24 1   
    43   21   42 1   
    44   22   23 1   
    45   22   43 1   
    46   23   24 1   
    47   23   44 1   
    48   24   25 1   
    49   25   26 1   
    50   25   45 1   
    51   25   46 1   
    52   26   27 1   
@<TRIPOS>SUBSTRUCTURE
     1 5CP         1 TEMP              0 ****  ****    0 ROOT
