@<TRIPOS>MOLECULE
5CS
   30    30     1     0     0
SMALL
bcc


@<TRIPOS>ATOM
      1 N          -2.4030    1.9750    3.1070 n3        1 5CS     -0.906800
      2 CA         -1.7230    2.9680    2.3040 c3        1 5CS      0.034500
      3 CB         -2.2690    3.1720    0.8910 c3        1 5CS     -0.018300
      4 SG         -2.6160    1.7300   -0.0860 ss        1 5CS     -0.343200
      5 C          -1.7240    4.3910    2.9700 c         1 5CS      0.918600
      6 O          -2.7850    4.7800    3.5350 o         1 5CS     -0.842800
      7 CI         -1.0400   -2.2520   -2.0270 c3        1 5CS      0.031500
      8 NI         -1.0030   -3.5980   -1.4920 n3        1 5CS     -0.892800
      9 CJ         -0.3910   -2.1830   -3.4550 c         1 5CS      0.914600
     10 OJ1        -1.0370   -1.5930   -4.3620 o         1 5CS     -0.843300
     11 OJ2         0.7480   -2.7100   -3.6060 o         1 5CS     -0.843300
     12 CF         -0.3140   -1.1900   -1.1790 c3        1 5CS      0.106100
     13 OF         -0.5600   -1.4120    0.2500 os        1 5CS     -0.286100
     14 NX         -1.1420   -0.3400    0.8490 n3        1 5CS     -0.513700
     15 CD         -1.0770    0.8170   -0.0740 c3        1 5CS      0.199600
     16 CE         -0.7740    0.2410   -1.4650 c3        1 5CS     -0.081400
     17 OXT        -0.6670    5.0700    2.8760 o         1 5CS     -0.842800
     18 H          -2.8360    1.2900    2.5120 hn        1 5CS      0.344800
     19 H2         -3.1180    2.4240    3.6510 hn        1 5CS      0.344800
     20 HA         -0.6480    2.6320    2.2180 h1        1 5CS      0.041700
     21 HB2        -1.5570    3.8350    0.3430 h1        1 5CS      0.070700
     22 HB3        -3.2640    3.6850    0.9450 h1        1 5CS      0.070700
     23 HI         -2.1260   -1.9640   -2.1080 h1        1 5CS      0.060700
     24 HN1        -1.0340   -3.5650   -0.4900 hn        1 5CS      0.335300
     25 HN2A       -0.1410   -4.0350   -1.7680 hn        1 5CS      0.335300
     26 HF          0.7970   -1.3070   -1.3020 h1        1 5CS      0.060700
     27 HX         -0.5670   -0.1220    1.6650 hn        1 5CS      0.338800
     28 HD         -0.2740    1.5460    0.2240 h2        1 5CS      0.054700
     29 HE3         0.0250    0.8280   -1.9750 hc        1 5CS      0.075700
     30 HE2        -1.6810    0.2470   -2.1210 hc        1 5CS      0.075700
@<TRIPOS>BOND
     1    1    2 1   
     2    1   18 1   
     3    1   19 1   
     4    2    3 1   
     5    2    5 1   
     6    2   20 1   
     7    3    4 1   
     8    3   21 1   
     9    3   22 1   
    10    4   15 1   
    11    5    6 1   
    12    5   17 1   
    13    7    8 1   
    14    7    9 1   
    15    7   12 1   
    16    7   23 1   
    17    8   24 1   
    18    8   25 1   
    19    9   10 1   
    20    9   11 1   
    21   12   13 1   
    22   12   16 1   
    23   12   26 1   
    24   13   14 1   
    25   14   15 1   
    26   14   27 1   
    27   15   16 1   
    28   15   28 1   
    29   16   29 1   
    30   16   30 1   
@<TRIPOS>SUBSTRUCTURE
     1 5CS         1 TEMP              0 ****  ****    0 ROOT
