@<TRIPOS>MOLECULE
5CU
   14    12     1     0     0
SMALL
bcc


@<TRIPOS>ATOM
      1 O53        -2.4520   -0.0140    2.0930 o         1 5CU     -0.546000
      2 C51        -1.1930   -0.0140    2.0930 c1        1 5CU      0.384000
      3 O52        -0.5640   -0.0140    3.1840 o         1 5CU     -0.546000
      4 C5         -0.4370   -0.0140    0.7830 c1        1 5CU     -0.231000
      5 C4         -0.0700    1.2580    0.1440 c2        1 5CU      0.368000
      6 O4         -0.4340    2.3100    0.6310 o         1 5CU     -0.324000
      7 N3          0.6390    1.2530   -1.0850 n         1 5CU     -0.386000
      8 C2          1.0040   -0.0160   -1.7120 c1        1 5CU      0.387000
      9 O2          1.5100   -0.0230   -2.8170 o         1 5CU     -0.440000
     10 N1          0.6390   -1.2800   -1.0750 n2        1 5CU     -0.325000
     11 C6         -0.0670   -1.2860    0.1460 c2        1 5CU     -0.003000
     12 H3          0.8670    2.0410   -1.4830 hn        1 5CU      0.240000
     13 H4         -0.3080   -2.1330    0.5670 h4        1 5CU      0.177000
     14 H2          0.8680   -2.0690   -1.4700 hn        1 5CU      0.244000
@<TRIPOS>BOND
     1    1    2 1   
     2    2    3 1   
     3    4    5 1   
     4    4   11 1   
     5    5    6 1   
     6    5    7 1   
     7    7    8 1   
     8    7   12 1   
     9    8    9 1   
    10   10   11 1   
    11   10   14 1   
    12   11   13 1   
@<TRIPOS>SUBSTRUCTURE
     1 5CU         1 TEMP              0 ****  ****    0 ROOT
