@<TRIPOS>MOLECULE
5CU
   14    14     1     0     0
SMALL
bcc


@<TRIPOS>ATOM
      1 O53         0.0140    0.5170    0.0010 o         1 5CU     -0.811300
      2 C51         1.1500   -0.0350    0.0570 c         1 5CU      0.933800
      3 O52         1.6150   -0.6520    1.0450 o         1 5CU     -0.811300
      4 C5          1.9720    0.0100   -1.2330 cc        1 5CU     -0.270400
      5 C4          3.4320    0.1730   -1.2220 c         1 5CU      0.729700
      6 O4          4.1790    0.3940   -0.2590 o         1 5CU     -0.599500
      7 N3          4.0730    0.0990   -2.4940 ns        1 5CU     -0.606500
      8 C2          3.3770   -0.0540   -3.6950 c         1 5CU      0.796500
      9 O2          3.9730   -0.1030   -4.8020 o         1 5CU     -0.715500
     10 N1          1.9790   -0.1550   -3.6410 ns        1 5CU     -0.481100
     11 C6          1.3180   -0.1190   -2.4170 cd        1 5CU     -0.000400
     12 H3          5.0620    0.1810   -2.5530 hn        1 5CU      0.326500
     13 H4          0.2150   -0.1940   -2.4530 h4        1 5CU      0.177000
     14 H2          1.4870   -0.2410   -4.4960 hn        1 5CU      0.330500
@<TRIPOS>BOND
     1    1    2 1   
     2    2    3 1   
     3    2    4 1   
     4    4    5 1   
     5    4   11 2   
     6    5    6 2   
     7    5    7 1   
     8    7    8 1   
     9    7   12 1   
    10    8    9 2   
    11    8   10 1   
    12   10   11 1   
    13   10   14 1   
    14   11   13 1   
@<TRIPOS>SUBSTRUCTURE
     1 5CU         1 TEMP              0 ****  ****    0 ROOT
