@<TRIPOS>MOLECULE
5CU
   14    14     1     0     0
SMALL
bcc


@<TRIPOS>ATOM
      1 O53         2.6030   -1.3830    0.5840 o         1 5CU     -0.811300
      2 C51         2.1270   -0.3820   -0.0230 c         1 5CU      0.933800
      3 O52         2.7890    0.4500   -0.6910 o         1 5CU     -0.811300
      4 C5          0.6050   -0.2420    0.0210 cc        1 5CU     -0.269400
      5 C4         -0.0570    1.0660    0.1150 c         1 5CU      0.729700
      6 O4          0.4560    2.1830    0.2720 o         1 5CU     -0.599500
      7 N3         -1.4810    1.0480    0.0470 n         1 5CU     -0.606500
      8 C2         -2.2280   -0.1290   -0.0380 c         1 5CU      0.796500
      9 O2         -3.4860   -0.1110   -0.0820 o         1 5CU     -0.715500
     10 N1         -1.5380   -1.3500   -0.0750 n         1 5CU     -0.481100
     11 C6         -0.1470   -1.3720   -0.0430 cd        1 5CU     -0.000400
     12 H3         -1.9880    1.9020    0.0850 hn        1 5CU      0.326500
     13 H4          0.3280   -2.3710   -0.0660 h4        1 5CU      0.177000
     14 H2         -2.0710   -2.1830   -0.1130 hn        1 5CU      0.330500
@<TRIPOS>BOND
     1    1    2 1   
     2    2    3 1   
     3    2    4 1   
     4    4    5 1   
     5    4   11 2   
     6    5    6 2   
     7    5    7 1   
     8    7    8 1   
     9    7   12 1   
    10    8    9 2   
    11    8   10 1   
    12   10   11 1   
    13   10   14 1   
    14   11   13 1   
@<TRIPOS>SUBSTRUCTURE
     1 5CU         1 TEMP              0 ****  ****    0 ROOT
