@<TRIPOS>MOLECULE
5CU
   14    14     1     0     0
SMALL
bcc


@<TRIPOS>ATOM
      1 O53         0.0530    0.5790    0.0290 o         1 5CU     -0.811300
      2 C51         1.1620   -0.0240    0.0650 c         1 5CU      0.933800
      3 O52         1.6050   -0.6830    1.0360 o         1 5CU     -0.811300
      4 C5          1.9780    0.0130   -1.2290 cc        1 5CU     -0.269400
      5 C4          3.4440    0.1120   -1.2260 c         1 5CU      0.729700
      6 O4          4.2050    0.2790   -0.2630 o         1 5CU     -0.599500
      7 N3          4.0740    0.0370   -2.5030 n         1 5CU     -0.606500
      8 C2          3.3640   -0.0600   -3.7020 c         1 5CU      0.796500
      9 O2          3.9510   -0.1110   -4.8140 o         1 5CU     -0.715500
     10 N1          1.9630   -0.1010   -3.6400 n         1 5CU     -0.481100
     11 C6          1.3120   -0.0620   -2.4120 cd        1 5CU     -0.000400
     12 H3          5.0650    0.0780   -2.5670 hn        1 5CU      0.326500
     13 H4          0.2060   -0.0890   -2.4420 h4        1 5CU      0.177000
     14 H2          1.4630   -0.1470   -4.4940 hn        1 5CU      0.330500
@<TRIPOS>BOND
     1    1    2 1   
     2    2    3 1   
     3    2    4 1   
     4    4    5 1   
     5    4   11 2   
     6    5    6 2   
     7    5    7 1   
     8    7    8 1   
     9    7   12 1   
    10    8    9 2   
    11    8   10 1   
    12   10   11 1   
    13   10   14 1   
    14   11   13 1   
@<TRIPOS>SUBSTRUCTURE
     1 5CU         1 TEMP              0 ****  ****    0 ROOT
