@<TRIPOS>MOLECULE
5CV
   76    80     1     0     0
SMALL
bcc


@<TRIPOS>ATOM
      1 C4         -1.5530    0.8010    0.1890 cc        1 5CV     -0.187000
      2 C5         -0.2330    0.3880    0.0390 cd        1 5CV      0.088600
      3 C8         -2.0190    0.2720    3.9090 cc        1 5CV     -0.055100
      4 C10        -1.3300    0.3560    5.1270 cd        1 5CV     -0.093200
      5 C15        -3.4100    0.1790    8.2930 ca        1 5CV      0.042100
      6 C22        -2.0810   -1.6510   13.1240 c3        1 5CV      0.083600
      7 C26        -3.0620   -0.4770   -2.5570 cc        1 5CV     -0.427900
      8 C23        -4.1520   -2.3520   12.0440 c3        1 5CV      0.083600
      9 C18        -3.8370    1.2710   10.3480 c3        1 5CV      0.123400
     10 C16        -2.2270    0.3080    7.5730 ca        1 5CV     -0.066000
     11 C2         -1.4620    0.3320    2.5740 cd        1 5CV     -0.076200
     12 C12        -3.5980    0.1240    5.5360 ca        1 5CV     -0.022200
     13 C11        -2.3100    0.2700    6.1790 ca        1 5CV     -0.103800
     14 N21        -3.1500   -1.2620   12.1680 n4        1 5CV     -0.678400
     15 C20        -3.8040    0.0310   12.5670 c3        1 5CV      0.115800
     16 C19        -3.3240    1.2730   11.7950 c3        1 5CV     -0.074000
     17 C39        -1.8130    1.4110   11.8190 c3        1 5CV     -0.105600
     18 C40        -3.9500    2.4790   12.4960 c3        1 5CV     -0.105600
     19 O17        -3.3260    0.1050    9.6850 os        1 5CV     -0.408900
     20 C14        -4.6720    0.0330    7.6710 ca        1 5CV     -0.117000
     21 C13        -4.7790    0.0040    6.2930 ca        1 5CV     -0.123000
     22 N9         -3.4070    0.1660    4.1570 na        1 5CV     -0.179400
     23 C3         -2.1710    0.7590    1.4900 cc        1 5CV     -0.060000
     24 C1         -0.0480   -0.0780    2.4250 c         1 5CV      0.694700
     25 N6          0.4870   -0.0330    1.1060 n         1 5CV     -0.411100
     26 N24        -2.3240    1.2860   -0.9450 n4        1 5CV     -0.519600
     27 C25        -3.3850    0.2680   -1.3950 c         1 5CV      0.630700
     28 O27        -4.3930    0.2590   -0.6960 o         1 5CV     -0.467100
     29 C28        -3.9420   -1.4070   -3.1970 cd        1 5CV      0.007700
     30 C31        -1.8580   -0.5110   -3.3710 cc        1 5CV      0.340200
     31 N30        -2.0190   -1.3790   -4.3890 nd        1 5CV     -0.449800
     32 N29        -3.2560   -1.9160   -4.2760 na        1 5CV      0.140400
     33 C32        -3.8150   -2.8660   -5.2520 c3        1 5CV      0.095600
     34 C33        -4.4540   -2.1970   -6.4250 ca        1 5CV     -0.159300
     35 C34        -3.6580   -1.6500   -7.4370 ca        1 5CV     -0.102000
     36 C35        -4.2560   -1.0710   -8.5550 ca        1 5CV     -0.125000
     37 C36        -5.6460   -1.0380   -8.6670 ca        1 5CV     -0.092000
     38 C37        -6.4410   -1.5840   -7.6580 ca        1 5CV     -0.125000
     39 C38        -5.8480   -2.1610   -6.5360 ca        1 5CV     -0.102000
     40 H1          0.2870    0.3850   -0.9420 h4        1 5CV      0.174000
     41 H2         -0.2530    0.4570    5.2540 ha        1 5CV      0.189000
     42 H3         -2.5270   -1.8490   14.1340 hx        1 5CV      0.102867
     43 H4         -1.5730   -2.5820   12.7520 hx        1 5CV      0.102867
     44 H5         -1.3300   -0.8190   13.1990 hx        1 5CV      0.102867
     45 H6         -3.6280   -3.3090   11.7800 hx        1 5CV      0.102867
     46 H7         -4.8810   -2.0900   11.2310 hx        1 5CV      0.102867
     47 H8         -4.6960   -2.4790   13.0180 hx        1 5CV      0.102867
     48 H9         -4.9590    1.2270   10.3250 h1        1 5CV      0.063700
     49 H10        -3.4860    2.1980    9.8240 h1        1 5CV      0.063700
     50 H11        -1.2590    0.4270    8.0800 ha        1 5CV      0.154000
     51 H13        -3.6200    0.1890   13.6690 hx        1 5CV      0.101700
     52 H14        -4.9160   -0.0740   12.4050 hx        1 5CV      0.101700
     53 H15        -1.4270    1.3420   12.8640 hc        1 5CV      0.060033
     54 H16        -1.3250    0.6310   11.1860 hc        1 5CV      0.060033
     55 H17        -1.5210    2.4100   11.4090 hc        1 5CV      0.060033
     56 H18        -5.0610    2.3800   12.5370 hc        1 5CV      0.060033
     57 H19        -3.6960    3.4130   11.9380 hc        1 5CV      0.060033
     58 H20        -3.5540    2.5710   13.5360 hc        1 5CV      0.060033
     59 H21        -5.5720   -0.0570    8.2980 ha        1 5CV      0.144000
     60 H22        -5.7580   -0.1070    5.8040 ha        1 5CV      0.153000
     61 H23        -4.0810   -0.0970    3.4860 hn        1 5CV      0.303700
     62 H24        -3.2240    1.0770    1.5820 ha        1 5CV      0.168000
     63 H25         1.4390   -0.3270    0.9840 hn        1 5CV      0.368500
     64 H26        -2.8080    2.1460   -0.6520 hn        1 5CV      0.458300
     65 H27        -4.9620   -1.6970   -2.9250 h4        1 5CV      0.217000
     66 H28        -0.9270    0.0440   -3.2460 h4        1 5CV      0.044100
     67 H29        -4.5660   -3.4920   -4.6900 h1        1 5CV      0.095200
     68 H30        -2.9730   -3.5330   -5.6040 h1        1 5CV      0.095200
     69 H31        -2.5600   -1.6830   -7.3530 ha        1 5CV      0.138000
     70 H32        -3.6280   -0.6460   -9.3540 ha        1 5CV      0.150500
     71 H33        -6.1170   -0.5870   -9.5540 ha        1 5CV      0.153000
     72 H34        -7.5380   -1.5660   -7.7500 ha        1 5CV      0.150500
     73 H35        -6.4800   -2.6000   -5.7490 ha        1 5CV      0.138000
     74 O7          0.7150   -0.4510    3.3230 o         1 5CV     -0.550500
     75 H211       -2.7140   -1.1240   11.2390 hn        1 5CV      0.477800
     76 H242       -1.7000    1.5040   -1.7280 hn        1 5CV      0.458300
@<TRIPOS>BOND
     1    1    2 2   
     2    1   23 1   
     3    1   26 1   
     4    2   25 1   
     5    2   40 1   
     6    3    4 2   
     7    3   11 1   
     8    3   22 1   
     9    4   13 1   
    10    4   41 1   
    11    5   10 ar  
    12    5   19 1   
    13    5   20 ar  
    14    6   14 1   
    15    6   42 1   
    16    6   43 1   
    17    6   44 1   
    18    7   27 1   
    19    7   29 2   
    20    7   30 1   
    21    8   14 1   
    22    8   45 1   
    23    8   46 1   
    24    8   47 1   
    25    9   16 1   
    26    9   19 1   
    27    9   48 1   
    28    9   49 1   
    29   10   13 ar  
    30   10   50 1   
    31   11   23 2   
    32   11   24 1   
    33   12   13 ar  
    34   12   21 ar  
    35   12   22 1   
    36   14   15 1   
    37   14   75 1   
    38   15   16 1   
    39   15   51 1   
    40   15   52 1   
    41   16   17 1   
    42   16   18 1   
    43   17   53 1   
    44   17   54 1   
    45   17   55 1   
    46   18   56 1   
    47   18   57 1   
    48   18   58 1   
    49   20   21 ar  
    50   20   59 1   
    51   21   60 1   
    52   22   61 1   
    53   23   62 1   
    54   24   25 1   
    55   24   74 2   
    56   25   63 1   
    57   26   27 1   
    58   26   64 1   
    59   26   76 1   
    60   27   28 2   
    61   29   32 1   
    62   29   65 1   
    63   30   31 2   
    64   30   66 1   
    65   31   32 1   
    66   32   33 1   
    67   33   34 1   
    68   33   67 1   
    69   33   68 1   
    70   34   35 ar  
    71   34   39 ar  
    72   35   36 ar  
    73   35   69 1   
    74   36   37 ar  
    75   36   70 1   
    76   37   38 ar  
    77   37   71 1   
    78   38   39 ar  
    79   38   72 1   
    80   39   73 1   
@<TRIPOS>SUBSTRUCTURE
     1 5CV         1 TEMP              0 ****  ****    0 ROOT
