@<TRIPOS>MOLECULE
5CV
   76    77     1     0     0
SMALL
bcc


@<TRIPOS>ATOM
      1 C4         -0.6540   -0.3840    1.7980 ce        1 5CV     -0.065700
      2 C5          0.4700   -1.0150    1.1200 cg        1 5CV     -0.179300
      3 C8         -2.1270   -1.9630    4.9050 cc        1 5CV     -0.040100
      4 C10        -1.9200   -1.6260    6.2300 cd        1 5CV     -0.056000
      5 C15        -4.8510   -2.3300    8.7020 c3        1 5CV      0.129500
      6 C22        -2.3640    1.5220   10.3610 c3        1 5CV      0.145100
      7 C26        -2.7600    1.6230   -0.7210 c3        1 5CV     -0.263300
      8 C23        -1.9940   -0.2670   11.9310 c3        1 5CV      0.145100
      9 C18        -5.2720   -1.5990   10.9500 c3        1 5CV      0.158400
     10 C16        -3.5210   -1.8050    8.2540 c2        1 5CV      0.093800
     11 C2         -1.2290   -1.8550    3.7620 cf        1 5CV     -0.308300
     12 C12        -4.0820   -2.4750    5.9480 cd        1 5CV      0.149900
     13 C11        -3.1450   -1.9430    6.9600 cd        1 5CV     -0.195000
     14 N21        -2.9340    0.3640   11.0230 n3        1 5CV     -0.739600
     15 C20        -4.1780    0.6860   11.6870 cx        1 5CV      0.109500
     16 C19        -5.3570   -0.2810   11.6530 cx        1 5CV     -0.138700
     17 C39        -0.8740    4.2380    8.2400 c3        1 5CV     -0.109800
     18 C40        -5.4240    1.0190   10.9010 cx        1 5CV     -0.093400
     19 O17        -5.4950   -1.3860    9.5410 os        1 5CV     -0.380600
     20 C14        -5.7980   -2.7060    7.6040 c2        1 5CV      0.004800
     21 C13        -5.4220   -2.8310    6.3100 cf        1 5CV     -0.190200
     22 N9         -3.4590   -2.4800    4.7450 na        1 5CV     -0.140100
     23 C3         -1.4160   -0.7550    2.8620 cf        1 5CV      0.026000
     24 C1         -0.3060   -2.8200    3.6160 c1        1 5CV      0.648600
     25 N6          1.5070   -1.6000    1.6180 n8        1 5CV     -0.584600
     26 N24        -1.0790    0.7630    0.9730 ny        1 5CV     -0.543600
     27 C25        -2.4890    0.6880    0.3900 c         1 5CV      0.590100
     28 O27        -3.2410   -0.1500    0.8690 o         1 5CV     -0.466100
     29 C28        -2.6710    0.4070   -3.1900 c1        1 5CV      0.334800
     30 C31        -1.9000    2.7670   -0.7780 c1        1 5CV      0.163700
     31 N30        -1.2200    3.7080   -0.8670 n1        1 5CV     -0.291800
     32 N29        -2.7430    0.0860   -4.3110 n1        1 5CV     -0.692300
     33 C32        -2.8770   -0.2720   -5.6730 c3        1 5CV      0.325300
     34 C33        -4.2480   -0.1190   -6.2260 c2        1 5CV     -0.189500
     35 C34        -4.5030   -0.5500   -7.6480 c3        1 5CV     -0.021000
     36 C35        -5.8350   -1.2520   -7.7260 c2        1 5CV     -0.131200
     37 C36        -6.8330   -1.0700   -6.8310 ce        1 5CV     -0.156000
     38 C37        -6.6570    0.0240   -5.8630 ce        1 5CV     -0.096100
     39 C38        -5.3670    0.2220   -5.5990 c1        1 5CV     -0.068800
     40 H1          2.1870   -1.9590    0.9730 hn        1 5CV      0.431300
     41 H2         -1.0180   -1.2020    6.6750 ha        1 5CV      0.201000
     42 H3         -3.1320    1.9700    9.6780 h1        1 5CV      0.040033
     43 H4         -1.4830    1.1850    9.7540 h1        1 5CV      0.040033
     44 H5         -2.0170    2.3180   11.0750 h1        1 5CV      0.040033
     45 H6         -1.6510    0.4120   12.7590 h1        1 5CV      0.040033
     46 H7         -1.0950   -0.5920   11.3440 h1        1 5CV      0.040033
     47 H8         -2.4780   -1.1680   12.3900 h1        1 5CV      0.040033
     48 H9         -4.2690   -2.0720   11.1230 h1        1 5CV      0.054700
     49 H10        -6.0830   -2.2940   11.3010 h1        1 5CV      0.054700
     50 H11        -4.6250   -3.3000    9.2660 h1        1 5CV      0.134700
     51 H13        -5.9460   -0.3690   12.5910 hc        1 5CV      0.108700
     52 H14        -4.0370    1.2330   12.6520 h1        1 5CV      0.085700
     53 H15        -1.3250    3.4560    8.8910 hc        1 5CV      0.027450
     54 H16        -0.7840    3.8530    7.2020 hc        1 5CV      0.027450
     55 H17         0.1340    4.5060    8.6260 hc        1 5CV      0.027450
     56 H18        -1.5220    5.1420    8.2460 hc        1 5CV      0.027450
     57 H19        -6.0840    1.8200   11.2850 hc        1 5CV      0.086200
     58 H20        -5.3990    0.9960    9.7960 hc        1 5CV      0.086200
     59 H21        -6.8380   -2.9020    7.9270 ha        1 5CV      0.199000
     60 H22        -6.1270   -3.1680    5.5310 ha        1 5CV      0.189000
     61 H23        -3.8460   -2.7680    3.8750 hn        1 5CV      0.343700
     62 H24        -2.3430   -0.1820    3.0920 ha        1 5CV      0.163000
     63 H25         1.7360   -1.7090    2.5870 hn        1 5CV      0.431300
     64 H26        -0.4190    0.8290    0.1750 hn        1 5CV      0.475300
     65 H27        -2.6640    0.9930   -1.7990 hc        1 5CV      0.226700
     66 H28        -3.8450    1.9250   -0.6980 hc        1 5CV      0.226700
     67 H29        -2.1650    0.3790   -6.2690 h1        1 5CV      0.091200
     68 H30        -2.5470   -1.3510   -5.7820 h1        1 5CV      0.091200
     69 H31        -3.6860   -1.2570   -7.9560 hc        1 5CV      0.085700
     70 H32        -4.5030    0.3070   -8.3730 hc        1 5CV      0.085700
     71 H33        -5.9600   -1.9100   -8.6000 ha        1 5CV      0.153000
     72 H34        -7.7900   -1.6040   -6.8720 ha        1 5CV      0.158000
     73 H35        -7.5080    0.6310   -5.5410 ha        1 5CV      0.170000
     74 O7          0.5060   -3.6650    3.5150 o         1 5CV     -0.259500
     75 H211       -2.8870   -1.3280    9.0290 ha        1 5CV      0.218000
     76 H242       -1.0070    1.6210    1.5300 hn        1 5CV      0.475300
@<TRIPOS>BOND
     1    1    2 1   
     2    1   23 2   
     3    1   26 1   
     4    2   25 3   
     5    3    4 2   
     6    3   11 1   
     7    3   22 1   
     8    4   13 1   
     9    4   41 1   
    10    5   10 1   
    11    5   19 1   
    12    5   20 1   
    13    5   50 1   
    14    6   14 1   
    15    6   42 1   
    16    6   43 1   
    17    6   44 1   
    18    7   27 1   
    19    7   30 1   
    20    7   65 1   
    21    7   66 1   
    22    8   14 1   
    23    8   45 1   
    24    8   46 1   
    25    8   47 1   
    26    9   16 1   
    27    9   19 1   
    28    9   48 1   
    29    9   49 1   
    30   10   13 2   
    31   10   75 1   
    32   11   23 1   
    33   11   24 2   
    34   12   13 1   
    35   12   21 1   
    36   12   22 2   
    37   14   15 1   
    38   15   16 1   
    39   15   18 1   
    40   15   52 1   
    41   16   18 1   
    42   16   51 1   
    43   17   53 1   
    44   17   54 1   
    45   17   55 1   
    46   17   56 1   
    47   18   57 1   
    48   18   58 1   
    49   20   21 2   
    50   20   59 1   
    51   21   60 1   
    52   22   61 1   
    53   23   62 1   
    54   24   74 2   
    55   25   40 1   
    56   25   63 1   
    57   26   27 1   
    58   26   64 1   
    59   26   76 1   
    60   27   28 2   
    61   29   32 3   
    62   30   31 3   
    63   32   33 1   
    64   33   34 1   
    65   33   67 1   
    66   33   68 1   
    67   34   35 1   
    68   34   39 2   
    69   35   36 1   
    70   35   69 1   
    71   35   70 1   
    72   36   37 2   
    73   36   71 1   
    74   37   38 1   
    75   37   72 1   
    76   38   39 2   
    77   38   73 1   
@<TRIPOS>SUBSTRUCTURE
     1 5CV         1 TEMP              0 ****  ****    0 ROOT
