@<TRIPOS>MOLECULE
5CY
   74    76     1     0     0
SMALL
bcc


@<TRIPOS>ATOM
      1 N1          0.1880    0.1450   -0.0450 n3        1 5CY     -0.202000
      2 O1         -3.5440    2.8120   -4.8400 oh        1 5CY     -0.201000
      3 C10         1.5870    0.1160    0.0730 c2        1 5CY      0.165000
      4 C11        -0.5490    0.4200   -1.2540 c3        1 5CY     -0.027000
      5 C12        -0.6730    1.8890   -1.6210 c3        1 5CY     -0.260000
      6 C13        -2.6110    1.9820   -4.4520 c1        1 5CY     -0.083000
      7 C14        -0.3930   -0.0380    1.2170 c2        1 5CY      0.088000
      8 C15        -1.8430   -0.0510    1.5230 c3        1 5CY     -0.131000
      9 C16        -2.1020   -0.2760    2.9700 c2        1 5CY     -0.113000
     10 C17        -1.1210   -0.4550    3.8820 c2        1 5CY     -0.180000
     11 C18         0.2840   -0.4450    3.5580 c1        1 5CY     -0.046000
     12 C19         0.5760   -0.2290    2.2000 c2        1 5CY     -0.224000
     13 O2          6.7390    2.4100   -5.6120 oh        1 5CY     -0.129000
     14 C2          9.0410   -0.3900   -1.4280 c3        1 5CY      0.010000
     15 N2          9.0750   -0.6570   -3.8780 n3        1 5CY     -0.207000
     16 C20         1.9490   -0.1600    1.5550 c3        1 5CY      0.021000
     17 C21         2.7470    0.9810    2.1560 c3        1 5CY     -0.199000
     18 C22         2.6630   -1.4880    1.7180 c3        1 5CY     -0.199000
     19 C23         8.7800   -0.0990   -5.1340 c3        1 5CY      0.008000
     20 C24         8.9640    1.4860   -5.2570 c3        1 5CY     -0.346000
     21 C25         7.9010    2.0280   -6.0710 c2        1 5CY      0.265000
     22 C26        10.4020   -0.6310   -3.3770 c2        1 5CY     -0.065000
     23 C27        11.6330   -0.8180   -4.2380 c3        1 5CY     -0.082000
     24 C28        12.8200   -0.3190   -3.4500 c2        1 5CY     -0.131000
     25 C29        12.6950   -0.5500   -2.1530 c1        1 5CY     -0.131000
     26 C3          8.6890   -1.4990   -0.4530 c3        1 5CY     -0.206500
     27 C30        11.6880   -0.8290   -1.3250 c2        1 5CY     -0.052000
     28 C31        10.4250   -0.5480   -1.9950 c2        1 5CY     -0.098000
     29 C4          8.1420   -0.5480   -2.7240 c3        1 5CY      0.008000
     30 C5          7.0340    0.5020   -2.8460 c3        1 5CY     -0.154000
     31 C6          6.0540    0.3030   -1.7790 c1        1 5CY     -0.181000
     32 C7          4.6910    0.4210   -1.9800 c2        1 5CY     -0.303000
     33 C8          3.8500    0.2330   -0.8990 c2        1 5CY      0.157000
     34 C9          2.4420    0.3040   -0.9870 c2        1 5CY     -0.327000
     35 H1          7.8590    1.0910   -0.3750 hc        1 5CY      0.090833
     36 H2          9.1740    1.7880   -1.4320 hc        1 5CY      0.090833
     37 H3          9.6020    0.9940    0.1350 hc        1 5CY      0.090833
     38 H4         -3.7060    3.4660   -4.1340 ho        1 5CY      0.250000
     39 H5         -1.2910    1.9700   -2.5560 hc        1 5CY      0.102333
     40 H6         -1.5830   -0.0150   -1.1240 h1        1 5CY      0.105000
     41 H7         -0.0470   -0.1340   -2.1000 h1        1 5CY      0.105000
     42 H8         -1.1750    2.4680   -0.8090 hc        1 5CY      0.102333
     43 H9          0.3300    2.3410   -1.8100 hc        1 5CY      0.102333
     44 H10        -2.4380    1.2370   -5.2700 ha        1 5CY      0.042000
     45 H11        -2.3070    0.9280    1.2100 hc        1 5CY      0.143500
     46 H12        -2.3520   -0.8650    0.9300 hc        1 5CY      0.143500
     47 H13        -3.1690   -0.2890    3.2470 ha        1 5CY      0.140000
     48 H14        -1.3690   -0.6210    4.9450 ha        1 5CY      0.157000
     49 H15         6.6500    2.3260   -4.6290 ho        1 5CY      0.305000
     50 H16         3.7940    0.9890    1.7720 hc        1 5CY      0.094333
     51 H17         2.7710    0.8480    3.2680 hc        1 5CY      0.094333
     52 H18         2.2700    1.9630    1.9250 hc        1 5CY      0.094333
     53 H19         3.7120   -1.4320    1.3420 hc        1 5CY      0.094333
     54 H20         2.1250   -2.2970    1.1680 hc        1 5CY      0.094333
     55 H21         2.6830   -1.7480    2.8060 hc        1 5CY      0.094333
     56 H22         6.5880    0.4580   -3.8860 hc        1 5CY      0.040000
     57 H23         7.7160   -0.3510   -5.4040 h1        1 5CY      0.119000
     58 H24         9.4740   -0.5360   -5.9080 h1        1 5CY      0.119000
     59 H25         9.9710    1.6670   -5.7240 hc        1 5CY      0.170500
     60 H26         8.9750    1.9240   -4.2200 hc        1 5CY      0.170500
     61 H27         7.9610    2.1160   -7.1840 h4        1 5CY      0.226000
     62 H28        11.5660   -0.2000   -5.1710 hc        1 5CY      0.110000
     63 H29        11.7090   -1.8970   -4.5380 hc        1 5CY      0.110000
     64 H30        13.6010    0.2570   -3.9500 ha        1 5CY      0.162000
     65 H31         8.8500   -2.5020   -0.9140 hc        1 5CY      0.090833
     66 H32         9.3290   -1.4200    0.4590 hc        1 5CY      0.090833
     67 H33         7.6160   -1.3990   -0.1560 hc        1 5CY      0.090833
     68 H34        11.7230   -1.3130   -0.3450 ha        1 5CY      0.177000
     69 H36         7.6370   -1.5610   -2.6770 h1        1 5CY      0.135000
     70 H37         7.4500    1.5400   -2.7070 hc        1 5CY      0.040000
     71 H38         4.2450    0.6390   -2.9690 ha        1 5CY      0.076000
     72 H39         4.3170    0.0120    0.0830 ha        1 5CY      0.153000
     73 H40         2.0220    0.5250   -1.9850 ha        1 5CY      0.143000
     74 C1          8.9080    0.9530   -0.7400 c3        1 5CY     -0.206500
@<TRIPOS>BOND
     1    1    3 1   
     2    1    4 1   
     3    1    7 1   
     4    2    6 1   
     5    2   38 1   
     6    3   16 1   
     7    3   34 1   
     8    4    5 1   
     9    4   40 1   
    10    4   41 1   
    11    5   39 1   
    12    5   42 1   
    13    5   43 1   
    14    6   44 1   
    15    7    8 1   
    16    7   12 1   
    17    8    9 1   
    18    8   45 1   
    19    8   46 1   
    20    9   10 1   
    21    9   47 1   
    22   10   11 1   
    23   10   48 1   
    24   11   12 1   
    25   12   16 1   
    26   13   21 1   
    27   13   49 1   
    28   14   26 1   
    29   14   28 1   
    30   14   29 1   
    31   14   74 1   
    32   15   19 1   
    33   15   22 1   
    34   15   29 1   
    35   16   17 1   
    36   16   18 1   
    37   17   50 1   
    38   17   51 1   
    39   17   52 1   
    40   18   53 1   
    41   18   54 1   
    42   18   55 1   
    43   19   20 1   
    44   19   57 1   
    45   19   58 1   
    46   20   21 1   
    47   20   59 1   
    48   20   60 1   
    49   21   61 1   
    50   22   23 1   
    51   22   28 1   
    52   23   24 1   
    53   23   62 1   
    54   23   63 1   
    55   24   25 1   
    56   24   64 1   
    57   25   27 1   
    58   26   65 1   
    59   26   66 1   
    60   26   67 1   
    61   27   28 1   
    62   27   68 1   
    63   29   30 1   
    64   29   69 1   
    65   30   31 1   
    66   30   56 1   
    67   30   70 1   
    68   31   32 1   
    69   32   33 1   
    70   32   71 1   
    71   33   34 1   
    72   33   72 1   
    73   34   73 1   
    74   35   74 1   
    75   36   74 1   
    76   37   74 1   
@<TRIPOS>SUBSTRUCTURE
     1 5CY         1 TEMP              0 ****  ****    0 ROOT
