@<TRIPOS>MOLECULE
5CY
   74    69     1     0     0
SMALL
bcc


@<TRIPOS>ATOM
      1 N1         -3.5150    0.2300    1.8070 n3        1 5CY     -0.152000
      2 C1          3.4940    2.7420   -3.7880 c3        1 5CY     -0.201500
      3 O1         -7.4470    2.7480    0.5690 oh        1 5CY     -0.355000
      4 C10        -2.0880    0.3440    1.8460 c2        1 5CY      0.196000
      5 C11        -4.3850    0.6190    0.6740 c3        1 5CY     -0.034000
      6 C12        -5.3290    1.6900    1.1060 c3        1 5CY     -0.185000
      7 C13        -6.5250    1.7240    0.1520 c3        1 5CY     -0.021000
      8 C14        -3.9670   -0.3070    3.1030 c2        1 5CY      0.012000
      9 C15        -5.2530   -0.5430    3.5950 c1        1 5CY     -0.122000
     10 C16        -5.4330   -1.3420    4.7320 c1        1 5CY     -0.107625
     11 C17        -4.3190   -1.9050    5.3790 c1        1 5CY     -0.107625
     12 C18        -3.0350   -1.6710    4.8900 c1        1 5CY     -0.077000
     13 C19        -2.8530   -0.8730    3.7540 c2        1 5CY     -0.117000
     14 O2          0.6210   -4.3010   -0.7720 oh        1 5CY     -0.343000
     15 C2          3.7850    1.7120   -2.6730 c3        1 5CY      0.004000
     16 N2          3.0600   -0.4650   -2.5410 n2        1 5CY     -0.169000
     17 C20        -1.6010   -0.2830    3.1390 c3        1 5CY      0.004000
     18 C21        -0.8790    0.6840    4.0480 c3        1 5CY     -0.205000
     19 C22        -0.5250   -1.3370    2.9050 c3        1 5CY     -0.205000
     20 C23         2.0360   -1.4920   -2.8500 c2        1 5CY     -0.031000
     21 C24         2.0120   -2.5870   -1.6930 c3        1 5CY     -0.218000
     22 C25         0.8440   -3.5440   -1.9230 c3        1 5CY     -0.022000
     23 C26         4.4120   -0.6970   -2.8690 c2        1 5CY      0.013000
     24 C27         5.2260   -1.8070   -2.8090 c2        1 5CY     -0.132000
     25 C28         6.6190   -1.6570   -2.8640 c1        1 5CY     -0.099000
     26 C29         7.2030   -0.3390   -2.9840 c1        1 5CY     -0.107625
     27 C3          4.0470    2.6860   -1.5570 c3        1 5CY     -0.201500
     28 C30         6.3750    0.7990   -3.0450 c1        1 5CY     -0.107625
     29 C31         5.0160    0.6610   -2.9920 c1        1 5CY     -0.114000
     30 C4          2.7280    0.7500   -2.4250 c1        1 5CY      0.188000
     31 C5          1.2390    1.1700   -2.5730 c1        1 5CY     -0.107625
     32 C6          0.4630    1.3790   -1.4450 c1        1 5CY     -0.107625
     33 C7          1.0830    1.1910   -0.0270 c1        1 5CY     -0.107625
     34 C8          0.2660    0.9810    1.0600 c1        1 5CY     -0.107625
     35 C9         -1.2950    0.9280    0.8750 c1        1 5CY     -0.341000
     36 H1          2.5220    2.8160   -3.9250 hc        1 5CY      0.094000
     37 H2          3.8650    3.6370   -3.5220 hc        1 5CY      0.094000
     38 H3          3.9140    2.4500   -4.6100 hc        1 5CY      0.094000
     39 H4         -7.9900    2.9350   -0.0890 ho        1 5CY      0.214000
     40 H5         -3.8180    0.9610   -0.0790 h1        1 5CY      0.119500
     41 H6         -4.9020   -0.1730    0.3660 h1        1 5CY      0.119500
     42 H7         -4.8650    2.5680    1.0880 hc        1 5CY      0.111000
     43 H8         -5.6420    1.5040    2.0150 hc        1 5CY      0.111000
     44 H9         -6.9790    0.8500    0.1640 h1        1 5CY      0.081000
     45 H10        -6.2090    1.9170   -0.7650 h1        1 5CY      0.081000
     46 H11        -6.0650   -0.1330    3.1240 ha        1 5CY      0.149000
     47 H12        -6.3220   -1.5040    5.0720 ha        1 5CY      0.150500
     48 H13        -4.4470   -2.4720    6.1860 ha        1 5CY      0.150500
     49 H14        -2.2300   -2.0810    5.3590 ha        1 5CY      0.151000
     50 H15         0.1700   -5.0270   -0.9820 ho        1 5CY      0.205000
     51 H16        -0.4650    0.1710    4.8310 hc        1 5CY      0.097000
     52 H17        -0.1950    1.1230    3.5600 hc        1 5CY      0.097000
     53 H18        -1.4980    1.3320    4.3820 hc        1 5CY      0.097000
     54 H19        -0.7910   -2.1830    3.3450 hc        1 5CY      0.097000
     55 H20         0.3500   -1.0150    3.2960 hc        1 5CY      0.097000
     56 H21        -0.4170   -1.4870    1.9480 hc        1 5CY      0.097000
     57 H22         1.1360   -1.0590   -2.9170 ha        1 5CY      0.115500
     58 H23         2.2540   -1.9220   -3.7010 ha        1 5CY      0.115500
     59 H24         1.9070   -2.1480   -0.8360 hc        1 5CY      0.104000
     60 H25         2.8600   -3.0940   -1.7020 hc        1 5CY      0.104000
     61 H26         0.0410   -3.0310   -2.1340 h1        1 5CY      0.099000
     62 H27         1.0560   -4.1430   -2.6720 h1        1 5CY      0.099000
     63 H28         4.8240   -2.7160   -2.7250 ha        1 5CY      0.145000
     64 H29         7.2030   -2.4520   -2.8210 ha        1 5CY      0.150000
     65 H30         8.1770   -0.2380   -3.0220 ha        1 5CY      0.150500
     66 H31         3.2930    2.7220   -0.9860 hc        1 5CY      0.094000
     67 H32         4.8270    2.3950   -1.0480 hc        1 5CY      0.094000
     68 H33         4.2110    3.5580   -1.9240 hc        1 5CY      0.094000
     69 H34         6.7760    1.6960   -3.1260 ha        1 5CY      0.150500
     70 H36         0.8330    1.2940   -3.5020 ha        1 5CY      0.150500
     71 H37        -0.4990    1.6500   -1.5400 ha        1 5CY      0.150500
     72 H38         2.1020    1.2270    0.0960 ha        1 5CY      0.150500
     73 H39         0.6550    0.8650    1.9440 ha        1 5CY      0.150500
     74 H40        -1.7180    1.3190    0.0470 ha        1 5CY      0.171000
@<TRIPOS>BOND
     1    1    4 1   
     2    1    5 1   
     3    1    8 1   
     4    2   15 1   
     5    2   36 1   
     6    2   37 1   
     7    2   38 1   
     8    3    7 1   
     9    3   39 1   
    10    4   17 1   
    11    4   35 1   
    12    5    6 1   
    13    5   40 1   
    14    5   41 1   
    15    6    7 1   
    16    6   42 1   
    17    6   43 1   
    18    7   44 1   
    19    7   45 1   
    20    8    9 1   
    21    8   13 1   
    22    9   46 1   
    23   10   11 1   
    24   10   47 1   
    25   11   48 1   
    26   12   13 1   
    27   12   49 1   
    28   13   17 1   
    29   14   22 1   
    30   14   50 1   
    31   15   27 1   
    32   15   29 1   
    33   15   30 1   
    34   16   23 1   
    35   16   30 1   
    36   17   18 1   
    37   17   19 1   
    38   18   51 1   
    39   18   52 1   
    40   18   53 1   
    41   19   54 1   
    42   19   55 1   
    43   19   56 1   
    44   20   21 1   
    45   20   57 1   
    46   20   58 1   
    47   21   22 1   
    48   21   59 1   
    49   21   60 1   
    50   22   61 1   
    51   22   62 1   
    52   23   24 1   
    53   23   29 1   
    54   24   25 1   
    55   24   63 1   
    56   25   64 1   
    57   26   28 1   
    58   26   65 1   
    59   27   66 1   
    60   27   67 1   
    61   27   68 1   
    62   28   69 1   
    63   31   32 1   
    64   31   70 1   
    65   32   71 1   
    66   33   34 1   
    67   33   72 1   
    68   34   73 1   
    69   35   74 1   
@<TRIPOS>SUBSTRUCTURE
     1 5CY         1 TEMP              0 ****  ****    0 ROOT
