@<TRIPOS>MOLECULE
5CY
   74    77     1     0     0
SMALL
bcc


@<TRIPOS>ATOM
      1 N1         -4.8780    0.4610   -0.4340 nh        1 5CY     -0.145200
      2 O1         -4.4970    5.1020    0.9000 oh        1 5CY     -0.594800
      3 C10        -3.7070   -0.2370   -0.2470 ce        1 5CY      0.407600
      4 C11        -4.9860    1.8530   -0.7950 c3        1 5CY      0.026300
      5 C12        -4.7510    2.8280    0.3560 c3        1 5CY     -0.112400
      6 C13        -4.9390    4.2520   -0.1450 c3        1 5CY      0.135400
      7 C14        -6.0020   -0.3700   -0.1580 ca        1 5CY     -0.030200
      8 C15        -7.3610   -0.0660   -0.1980 ca        1 5CY     -0.122000
      9 C16        -8.2640   -1.0910    0.1130 ca        1 5CY     -0.096000
     10 C17        -7.8260   -2.3690    0.4510 ca        1 5CY     -0.123000
     11 C18        -6.4580   -2.6730    0.4940 ca        1 5CY     -0.077000
     12 C19        -5.5500   -1.6780    0.1920 ca        1 5CY     -0.126300
     13 O2          4.6610    4.9590    0.8380 oh        1 5CY     -0.594800
     14 C2          3.9770   -1.8240    0.1000 c3        1 5CY      0.015500
     15 N2          4.8780    0.3080   -0.5010 nh        1 5CY     -0.476800
     16 C20        -4.0350   -1.6990    0.1550 c3        1 5CY     -0.064000
     17 C21        -3.4830   -2.0240    1.5300 c3        1 5CY     -0.084100
     18 C22        -3.5510   -2.6800   -0.8960 c3        1 5CY     -0.084100
     19 C23         5.0240    1.6970   -0.8640 c3        1 5CY      0.203800
     20 C24         4.8360    2.6780    0.2910 c3        1 5CY     -0.112400
     21 C25         5.0610    4.0960   -0.2120 c3        1 5CY      0.135400
     22 C26         5.9790   -0.5570   -0.2410 ca        1 5CY      0.096600
     23 C27         7.3460   -0.2960   -0.2990 ca        1 5CY     -0.122000
     24 C28         8.2220   -1.3490   -0.0020 ca        1 5CY     -0.096000
     25 C29         7.7490   -2.6120    0.3430 ca        1 5CY     -0.123000
     26 C3          3.4470   -2.7890   -0.9450 c3        1 5CY     -0.084100
     27 C30         6.3720   -2.8740    0.4050 ca        1 5CY     -0.077000
     28 C31         5.4920   -1.8500    0.1150 ca        1 5CY     -0.126300
     29 C4          3.6880   -0.3530   -0.2980 c2        1 5CY      0.268800
     30 C5          2.4400    0.2500   -0.4440 ce        1 5CY     -0.328000
     31 C6          1.2090   -0.3830   -0.2850 ce        1 5CY      0.101000
     32 C7         -0.0010    0.2880   -0.4350 cf        1 5CY     -0.302000
     33 C8         -1.2300   -0.3450   -0.2680 cf        1 5CY      0.101000
     34 C9         -2.4420    0.3260   -0.4100 ce        1 5CY     -0.414600
     35 H1          3.7900   -1.3780    2.2240 hc        1 5CY      0.054700
     36 H2          2.3180   -2.1390    1.4850 hc        1 5CY      0.054700
     37 H3          3.7950   -3.1420    1.8000 hc        1 5CY      0.054700
     38 H4         -4.7230    6.0040    0.6400 ho        1 5CY      0.414000
     39 H5         -4.2390    2.0600   -1.6170 h1        1 5CY      0.074200
     40 H6         -6.0190    2.0190   -1.2190 h1        1 5CY      0.074200
     41 H7         -5.4660    2.6350    1.1980 hc        1 5CY      0.073700
     42 H8         -3.7140    2.7150    0.7670 hc        1 5CY      0.073700
     43 H9         -6.0190    4.4490   -0.3820 h1        1 5CY      0.027200
     44 H10        -4.3240    4.4360   -1.0680 h1        1 5CY      0.027200
     45 H11        -7.7280    0.9360   -0.4580 ha        1 5CY      0.151000
     46 H12        -9.3440   -0.8720    0.0870 ha        1 5CY      0.154000
     47 H13        -8.5610   -3.1540    0.6910 ha        1 5CY      0.153000
     48 H14        -6.1180   -3.6840    0.7640 ha        1 5CY      0.150000
     49 H15         4.9110    5.8530    0.5760 ho        1 5CY      0.414000
     50 H16        -3.8050   -1.2590    2.2770 hc        1 5CY      0.054700
     51 H17        -3.8710   -3.0210    1.8540 hc        1 5CY      0.054700
     52 H18        -2.3680   -2.0650    1.5180 hc        1 5CY      0.054700
     53 H19        -2.4370   -2.7350   -0.9140 hc        1 5CY      0.054700
     54 H20        -3.9520   -3.6970   -0.6590 hc        1 5CY      0.054700
     55 H21        -3.9130   -2.3830   -1.9090 hc        1 5CY      0.054700
     56 H22         6.0560    1.8310   -1.3010 h1        1 5CY      0.074200
     57 H23         4.2730    1.9280   -1.6750 h1        1 5CY      0.074200
     58 H24         3.8010    2.5970    0.7160 hc        1 5CY      0.073700
     59 H25         5.5560    2.4620    1.1220 hc        1 5CY      0.073700
     60 H26         4.4400    4.2990   -1.1270 h1        1 5CY      0.027200
     61 H27         6.1430    4.2590   -0.4650 h1        1 5CY      0.027200
     62 H28         7.7410    0.6950   -0.5650 ha        1 5CY      0.151000
     63 H29         9.3070   -1.1640   -0.0420 ha        1 5CY      0.154000
     64 H30         8.4620   -3.4200    0.5720 ha        1 5CY      0.153000
     65 H31         2.3320   -2.8090   -0.9480 hc        1 5CY      0.054700
     66 H32         3.8050   -2.5030   -1.9640 hc        1 5CY      0.054700
     67 H33         3.8200   -3.8180   -0.7140 hc        1 5CY      0.054700
     68 H34         6.0050   -3.8740    0.6790 ha        1 5CY      0.150000
     69 H36         2.4110    1.3270   -0.7000 ha        1 5CY      0.154000
     70 H37         1.1800   -1.4590   -0.0280 ha        1 5CY      0.126000
     71 H38         0.0140    1.3610   -0.6890 ha        1 5CY      0.151000
     72 H39        -1.2310   -1.4220   -0.0110 ha        1 5CY      0.126000
     73 H40        -2.3830    1.4020   -0.6670 ha        1 5CY      0.154000
     74 C1          3.4330   -2.1330    1.4820 c3        1 5CY     -0.084100
@<TRIPOS>BOND
     1    1    3 2   
     2    1    4 1   
     3    1    7 1   
     4    2    6 1   
     5    2   38 1   
     6    3   16 1   
     7    3   34 1   
     8    4    5 1   
     9    4   39 1   
    10    4   40 1   
    11    5    6 1   
    12    5   41 1   
    13    5   42 1   
    14    6   43 1   
    15    6   44 1   
    16    7    8 ar  
    17    7   12 ar  
    18    8    9 ar  
    19    8   45 1   
    20    9   10 ar  
    21    9   46 1   
    22   10   11 ar  
    23   10   47 1   
    24   11   12 ar  
    25   11   48 1   
    26   12   16 1   
    27   13   21 1   
    28   13   49 1   
    29   14   26 1   
    30   14   28 1   
    31   14   29 1   
    32   14   74 1   
    33   15   19 1   
    34   15   22 1   
    35   15   29 1   
    36   16   17 1   
    37   16   18 1   
    38   17   50 1   
    39   17   51 1   
    40   17   52 1   
    41   18   53 1   
    42   18   54 1   
    43   18   55 1   
    44   19   20 1   
    45   19   56 1   
    46   19   57 1   
    47   20   21 1   
    48   20   58 1   
    49   20   59 1   
    50   21   60 1   
    51   21   61 1   
    52   22   23 ar  
    53   22   28 ar  
    54   23   24 ar  
    55   23   62 1   
    56   24   25 ar  
    57   24   63 1   
    58   25   27 ar  
    59   25   64 1   
    60   26   65 1   
    61   26   66 1   
    62   26   67 1   
    63   27   28 ar  
    64   27   68 1   
    65   29   30 2   
    66   30   31 1   
    67   30   69 1   
    68   31   32 2   
    69   31   70 1   
    70   32   33 1   
    71   32   71 1   
    72   33   34 2   
    73   33   72 1   
    74   34   73 1   
    75   35   74 1   
    76   36   74 1   
    77   37   74 1   
@<TRIPOS>SUBSTRUCTURE
     1 5CY         1 TEMP              0 ****  ****    0 ROOT
