@<TRIPOS>MOLECULE
5CY
   74    73     1     0     0
SMALL
bcc


@<TRIPOS>ATOM
      1 N1          0.8310    0.3030   -0.3020 n3        1 5CY     -0.187000
      2 O1         -4.1630    3.1470   -3.6030 oh        1 5CY     -0.162500
      3 C10         2.1260    0.1340   -0.7950 c2        1 5CY      0.176000
      4 C11        -0.3410    0.6110   -1.0890 c3        1 5CY     -0.031000
      5 C12        -0.4660    2.0610   -1.5220 c3        1 5CY     -0.263000
      6 C13        -3.3780    2.1520   -3.2820 c1        1 5CY     -0.074000
      7 C14         0.8470    0.2090    1.1010 c2        1 5CY      0.080000
      8 C15        -0.3160    0.3620    2.0070 c3        1 5CY     -0.134000
      9 C16         0.0730    0.2090    3.4340 c2        1 5CY     -0.101000
     10 C17         1.3390   -0.0390    3.8410 c2        1 5CY     -0.186000
     11 C18         2.4540   -0.1740    2.9400 c1        1 5CY     -0.042000
     12 C19         2.1280   -0.0540    1.5750 c2        1 5CY     -0.215000
     13 O2          6.3300   -0.1680   -8.2590 oh        1 5CY     -0.162500
     14 C2          8.0420   -0.2860    0.0880 c3        1 5CY     -0.072000
     15 N2          8.8130    0.5640   -3.2740 n3        1 5CY     -0.098000
     16 C20         3.0760   -0.1590    0.3930 c3        1 5CY      0.015000
     17 C21         4.1890    0.8620    0.5200 c3        1 5CY     -0.201500
     18 C22         3.6190   -1.5730    0.2900 c3        1 5CY     -0.201500
     19 C23         9.8830    0.6390   -4.2710 c3        1 5CY     -0.036000
     20 C24        10.0740    2.0070   -4.9000 c3        1 5CY     -0.241000
     21 C25         5.1430   -0.2780   -7.7940 c1        1 5CY     -0.074000
     22 C26         9.1430    0.8050   -1.8930 c2        1 5CY      0.015000
     23 C27         9.4840    2.0270   -1.4450 c2        1 5CY     -0.175000
     24 C28        11.9360   -1.7140   -2.6990 c1        1 5CY     -0.170000
     25 C29        11.0120   -1.5400   -1.9550 c1        1 5CY     -0.158000
     26 C3          7.1100   -1.4790    0.0120 c3        1 5CY     -0.212500
     27 C30         9.9600   -1.3870   -1.0420 c2        1 5CY     -0.012000
     28 C31         9.0970   -0.3550   -0.9790 c2        1 5CY     -0.083000
     29 C4          7.5770    0.3900   -3.6560 c1        1 5CY      0.099000
     30 C5          6.4300    0.2140   -4.0630 c1        1 5CY     -0.252000
     31 C6          5.2190    0.0670   -4.6490 c2        1 5CY      0.168000
     32 C7          3.9700    0.0570   -4.0340 c2        1 5CY     -0.290000
     33 C8          3.7410    0.0840   -2.6670 c2        1 5CY      0.114000
     34 C9          2.4440    0.1880   -2.1390 c2        1 5CY     -0.314000
     35 H1          7.8750   -0.1040    2.2440 hc        1 5CY      0.082833
     36 H2          9.2820   -1.1010    1.6840 hc        1 5CY      0.082833
     37 H3          9.3350    0.7040    1.5300 hc        1 5CY      0.082833
     38 H4         -3.8260    3.9670   -3.1930 ho        1 5CY      0.212000
     39 H5         -1.4190    2.1710   -2.1100 hc        1 5CY      0.106333
     40 H6         -1.2440    0.3300   -0.4720 h1        1 5CY      0.109500
     41 H7         -0.3290   -0.0520   -2.0030 h1        1 5CY      0.109500
     42 H8          0.3920    2.3640   -2.1690 hc        1 5CY      0.106333
     43 H9         -0.5080    2.7460   -0.6420 hc        1 5CY      0.106333
     44 H10        -3.7760    1.2200   -3.7570 ha        1 5CY      0.042000
     45 H11        -0.7890    1.3750    1.8570 hc        1 5CY      0.148500
     46 H12        -1.1000   -0.4110    1.7580 hc        1 5CY      0.148500
     47 H13        -0.7610    0.3160    4.1490 ha        1 5CY      0.145000
     48 H14         1.5700   -0.1460    4.9150 ha        1 5CY      0.161000
     49 H15         6.4440   -0.2820   -9.2290 ho        1 5CY      0.212000
     50 H16         3.8460    1.8740    0.2040 hc        1 5CY      0.095667
     51 H17         4.5080    0.9080    1.5940 hc        1 5CY      0.095667
     52 H18         5.0770    0.5670   -0.0920 hc        1 5CY      0.095667
     53 H19         4.1570   -1.8190    1.2400 hc        1 5CY      0.095667
     54 H20         4.3290   -1.6600   -0.5680 hc        1 5CY      0.095667
     55 H21         2.7910   -2.3080    0.1500 hc        1 5CY      0.095667
     56 H22         9.6500   -0.1120   -5.0800 h1        1 5CY      0.120500
     57 H23        10.8330    0.3180   -3.7520 h1        1 5CY      0.120500
     58 H24         9.1460    2.3520   -5.4170 hc        1 5CY      0.095667
     59 H25        10.3620    2.7700   -4.1370 hc        1 5CY      0.095667
     60 H26        10.8950    1.9340   -5.6540 hc        1 5CY      0.095667
     61 H27         4.3020   -0.4930   -8.4870 ha        1 5CY      0.042000
     62 H28         9.5250    2.9240   -2.0760 ha        1 5CY      0.144500
     63 H29         9.7540    2.1720   -0.3890 ha        1 5CY      0.144500
     64 H30        12.7590   -1.8790   -3.3480 ha        1 5CY      0.234000
     65 H31         7.6670   -2.4320    0.1810 hc        1 5CY      0.082833
     66 H32         6.3160   -1.3890    0.7950 hc        1 5CY      0.082833
     67 H33         6.6180   -1.5280   -0.9890 hc        1 5CY      0.082833
     68 H34         9.8770   -2.2090   -0.3010 ha        1 5CY      0.157000
     69 H36         7.4280    0.6470   -0.0750 hc        1 5CY      0.090000
     70 H37         5.2370   -0.0350   -5.7800 ha        1 5CY      0.228000
     71 H38         3.0960    0.0270   -4.7110 ha        1 5CY      0.155000
     72 H39         4.6050    0.0280   -1.9770 ha        1 5CY      0.140000
     73 H40         1.6270    0.3390   -2.8700 ha        1 5CY      0.153000
     74 C1          8.6720   -0.1920    1.4660 c3        1 5CY     -0.212500
@<TRIPOS>BOND
     1    1    3 1   
     2    1    4 1   
     3    1    7 1   
     4    2    6 1   
     5    2   38 1   
     6    3   16 1   
     7    3   34 1   
     8    4    5 1   
     9    4   40 1   
    10    4   41 1   
    11    5   39 1   
    12    5   42 1   
    13    5   43 1   
    14    6   44 1   
    15    7    8 1   
    16    7   12 1   
    17    8    9 1   
    18    8   45 1   
    19    8   46 1   
    20    9   10 1   
    21    9   47 1   
    22   10   11 1   
    23   10   48 1   
    24   11   12 1   
    25   12   16 1   
    26   13   21 1   
    27   13   49 1   
    28   14   26 1   
    29   14   28 1   
    30   14   69 1   
    31   14   74 1   
    32   15   19 1   
    33   15   22 1   
    34   15   29 1   
    35   16   17 1   
    36   16   18 1   
    37   17   50 1   
    38   17   51 1   
    39   17   52 1   
    40   18   53 1   
    41   18   54 1   
    42   18   55 1   
    43   19   20 1   
    44   19   56 1   
    45   19   57 1   
    46   20   58 1   
    47   20   59 1   
    48   20   60 1   
    49   21   61 1   
    50   22   23 1   
    51   22   28 1   
    52   23   62 1   
    53   23   63 1   
    54   24   25 1   
    55   24   64 1   
    56   25   27 1   
    57   26   65 1   
    58   26   66 1   
    59   26   67 1   
    60   27   28 1   
    61   27   68 1   
    62   29   30 1   
    63   30   31 1   
    64   31   32 1   
    65   31   70 1   
    66   32   33 1   
    67   32   71 1   
    68   33   34 1   
    69   33   72 1   
    70   34   73 1   
    71   35   74 1   
    72   36   74 1   
    73   37   74 1   
@<TRIPOS>SUBSTRUCTURE
     1 5CY         1 TEMP              0 ****  ****    0 ROOT
