@<TRIPOS>MOLECULE
5D7
   42    42     1     0     0
SMALL
bcc


@<TRIPOS>ATOM
      1 O9          5.0210    2.3460   -0.6820 o         1 5D7     -0.761000
      2 C6          4.2630    1.3650   -0.4780 c         1 5D7      0.640600
      3 O7          3.4140    1.3410    0.5410 os        1 5D7     -0.362900
      4 C8          3.3660    2.4900    1.4570 c3        1 5D7      0.197600
      5 C2          4.2620    0.1530   -1.3190 cc        1 5D7      0.272800
      6 N3          4.8270    0.1940   -2.5720 nc        1 5D7     -0.662000
      7 C4          4.8220   -1.0450   -3.1120 cd        1 5D7      0.182700
      8 S5          4.0970   -2.2210   -2.1060 ss        1 5D7      0.259700
      9 C1          3.7820   -1.1170   -0.9420 cd        1 5D7     -0.162400
     10 CA          5.5090   -1.3060   -4.4200 c3        1 5D7      0.132200
     11 N           4.5050   -1.7280   -5.4680 nz        1 5D7     -0.848600
     12 CB          6.3160   -0.0870   -4.9170 c3        1 5D7     -0.097400
     13 CG          7.4660    0.2530   -3.9840 c3        1 5D7     -0.097400
     14 CD          7.7140    1.7510   -3.8220 c3        1 5D7      0.111800
     15 NE          6.7800    2.4370   -2.8600 ny        1 5D7     -0.774000
     16 CZ          7.1980    3.8610   -2.5720 c2        1 5D7      0.618100
     17 NH2         8.0020    4.6100   -3.2150 n2        1 5D7     -0.601100
     18 NH1         6.5450    4.4510   -1.3530 nz        1 5D7     -0.804600
     19 C3          2.1060    2.3300    2.2190 c2        1 5D7     -0.250200
     20 C5          2.0760    2.1750    3.5430 c2        1 5D7     -0.101000
     21 H1          3.3660    3.4240    0.8380 h1        1 5D7      0.060700
     22 H2          4.2890    2.4320    2.0910 h1        1 5D7      0.060700
     23 H3          3.2720   -1.3080    0.0160 h4        1 5D7      0.258000
     24 H4          6.2200   -2.1840   -4.2920 hx        1 5D7      0.139700
     25 H5          3.8200   -0.9820   -5.6350 hn        1 5D7      0.477133
     26 H6          4.9900   -1.9370   -6.3520 hn        1 5D7      0.477133
     27 H8          6.7440   -0.3210   -5.9340 hc        1 5D7      0.082700
     28 H9          5.6300    0.7920   -5.0450 hc        1 5D7      0.082700
     29 H10         8.4240   -0.1580   -4.4260 hc        1 5D7      0.113700
     30 H11         7.3570   -0.2450   -2.9840 hc        1 5D7      0.113700
     31 H12         8.7670    1.8870   -3.4290 hx        1 5D7      0.123200
     32 H13         7.6140    2.2600   -4.8250 hx        1 5D7      0.123200
     33 H14         6.7250    1.8970   -1.9720 hn        1 5D7      0.495800
     34 H15         8.5070    4.3460   -4.0390 hn        1 5D7      0.531400
     35 H16         6.8270    3.9240   -0.5090 hn        1 5D7      0.515800
     36 H17         5.5130    4.3900   -1.4310 hn        1 5D7      0.515800
     37 H18         1.1840    2.3740    1.6170 ha        1 5D7      0.156000
     38 H19         2.9800    2.1170    4.1680 ha        1 5D7      0.146000
     39 H20         1.1250    2.1130    4.0960 ha        1 5D7      0.146000
     40 HN3         4.0030   -2.5720   -5.1630 hn        1 5D7      0.477133
     41 HE3         5.8220    2.4490   -3.2500 hn        1 5D7      0.495800
     42 HH13        6.8250    5.4470   -1.2460 hn        1 5D7      0.515800
@<TRIPOS>BOND
     1    1    2 2   
     2    2    3 1   
     3    2    5 1   
     4    3    4 1   
     5    4   19 1   
     6    4   21 1   
     7    4   22 1   
     8    5    6 1   
     9    5    9 2   
    10    6    7 2   
    11    7    8 1   
    12    7   10 1   
    13    8    9 1   
    14    9   23 1   
    15   10   11 1   
    16   10   12 1   
    17   10   24 1   
    18   11   25 1   
    19   11   26 1   
    20   11   40 1   
    21   12   13 1   
    22   12   27 1   
    23   12   28 1   
    24   13   14 1   
    25   13   29 1   
    26   13   30 1   
    27   14   15 1   
    28   14   31 1   
    29   14   32 1   
    30   15   16 1   
    31   15   33 1   
    32   15   41 1   
    33   16   17 2   
    34   16   18 1   
    35   17   34 1   
    36   18   35 1   
    37   18   36 1   
    38   18   42 1   
    39   19   20 2   
    40   19   37 1   
    41   20   38 1   
    42   20   39 1   
@<TRIPOS>SUBSTRUCTURE
     1 5D7         1 TEMP              0 ****  ****    0 ROOT
