@<TRIPOS>MOLECULE
5D7
   42    42     1     0     0
SMALL
bcc


@<TRIPOS>ATOM
      1 O9          5.2660    2.2140   -0.5570 o         1 5D7     -0.761000
      2 C6          4.4290    1.2950   -0.3740 c         1 5D7      0.640600
      3 O7          3.6830    1.2400    0.7220 os        1 5D7     -0.362900
      4 C8          3.8450    2.2790    1.7480 c3        1 5D7      0.197600
      5 C2          4.2190    0.1890   -1.3280 cc        1 5D7      0.272800
      6 N3          4.6650    0.3130   -2.6230 nc        1 5D7     -0.662000
      7 C4          4.4760   -0.8530   -3.2810 cd        1 5D7      0.182700
      8 S5          3.7280   -2.0570   -2.3280 ss        1 5D7      0.259700
      9 C1          3.6450   -1.0630   -1.0310 cd        1 5D7     -0.162400
     10 CA          5.0050   -1.0320   -4.6730 c3        1 5D7      0.132200
     11 N           3.8660   -1.2370   -5.6470 n4        1 5D7     -0.848600
     12 CB          5.8870    0.1510   -5.1280 c3        1 5D7     -0.097400
     13 CG          7.1500    0.2740   -4.2920 c3        1 5D7     -0.097400
     14 CD          7.5700    1.7140   -4.0070 c3        1 5D7      0.111800
     15 NE          6.8110    2.3760   -2.8890 n4        1 5D7     -0.774000
     16 CZ          7.4030    3.7130   -2.5050 c2        1 5D7      0.618100
     17 NH2         8.2180    4.4470   -3.1500 n2        1 5D7     -0.601100
     18 NH1         6.9350    4.2250   -1.1710 n4        1 5D7     -0.804600
     19 C3          2.6530    2.1590    2.6190 c2        1 5D7     -0.250200
     20 C5          2.7330    1.8610    3.9160 c2        1 5D7     -0.101000
     21 H1          3.8860    3.2720    1.2290 h1        1 5D7      0.060700
     22 H2          4.8120    2.0630    2.2710 h1        1 5D7      0.060700
     23 H3          3.2090   -1.3090   -0.0490 h4        1 5D7      0.258000
     24 H4          5.6270   -1.9830   -4.7100 hx        1 5D7      0.139700
     25 H5          3.2530   -0.4140   -5.6650 hn        1 5D7      0.477133
     26 H6          3.3090   -2.0570   -5.3770 hn        1 5D7      0.477133
     27 H8          5.2900    1.1010   -5.0950 hc        1 5D7      0.082700
     28 H9          6.1890   -0.0090   -6.2020 hc        1 5D7      0.082700
     29 H10         7.0830   -0.3190   -3.3410 hc        1 5D7      0.113700
     30 H11         8.0120   -0.1760   -4.8710 hc        1 5D7      0.113700
     31 H12         7.4310    2.3380   -4.9380 hx        1 5D7      0.123200
     32 H13         8.6640    1.7030   -3.7160 hx        1 5D7      0.123200
     33 H14         6.7820    1.7500   -2.0580 hn        1 5D7      0.495800
     34 H15         8.6120    4.2280   -4.0460 hn        1 5D7      0.531400
     35 H16         5.9000    4.2710   -1.1450 hn        1 5D7      0.515800
     36 H17         7.3300    5.1710   -0.9940 hn        1 5D7      0.515800
     37 H18         1.6880    2.3570    2.1240 ha        1 5D7      0.156000
     38 H19         3.6800    1.6490    4.4330 ha        1 5D7      0.146000
     39 H20         1.8370    1.8300    4.5570 ha        1 5D7      0.146000
     40 HN3         4.2410   -1.3920   -6.5930 hn        1 5D7      0.477133
     41 HE3         5.8270    2.5230   -3.1720 hn        1 5D7      0.495800
     42 HH13        7.2380    3.5820   -0.4180 hn        1 5D7      0.515800
@<TRIPOS>BOND
     1    1    2 2   
     2    2    3 1   
     3    2    5 1   
     4    3    4 1   
     5    4   19 1   
     6    4   21 1   
     7    4   22 1   
     8    5    6 1   
     9    5    9 2   
    10    6    7 2   
    11    7    8 1   
    12    7   10 1   
    13    8    9 1   
    14    9   23 1   
    15   10   11 1   
    16   10   12 1   
    17   10   24 1   
    18   11   25 1   
    19   11   26 1   
    20   11   40 1   
    21   12   13 1   
    22   12   27 1   
    23   12   28 1   
    24   13   14 1   
    25   13   29 1   
    26   13   30 1   
    27   14   15 1   
    28   14   31 1   
    29   14   32 1   
    30   15   16 1   
    31   15   33 1   
    32   15   41 1   
    33   16   17 2   
    34   16   18 1   
    35   17   34 1   
    36   18   35 1   
    37   18   36 1   
    38   18   42 1   
    39   19   20 2   
    40   19   37 1   
    41   20   38 1   
    42   20   39 1   
@<TRIPOS>SUBSTRUCTURE
     1 5D7         1 TEMP              0 ****  ****    0 ROOT
