@<TRIPOS>MOLECULE
5D9
   59    61     1     0     0
SMALL
bcc


@<TRIPOS>ATOM
      1 O14         0.0000    0.0000    0.0000 o         1 5D9     -0.560000
      2 C13         1.2160    0.0000    0.0000 c         1 5D9      0.620600
      3 O15         1.8890    0.0000    1.1680 os        1 5D9     -0.397900
      4 C9          1.0970   -0.0010    2.3850 c3        1 5D9      0.223400
      5 C10         2.0290   -0.0010    3.5990 c3        1 5D9     -0.000100
      6 C12         1.9510   -0.0050   -1.2740 cc        1 5D9      0.281800
      7 C11         1.3270   -0.0050   -2.4720 cd        1 5D9     -0.012400
      8 S1          2.5000   -0.0120   -3.7160 ss        1 5D9     -0.244300
      9 C8          3.7920   -0.0150   -2.5210 cd        1 5D9      0.373400
     10 N2          3.2780   -0.0050   -1.3300 nc        1 5D9     -0.469000
     11 C3          5.2400   -0.0200   -2.8290 cd        1 5D9      0.196000
     12 C5          5.7980   -0.0190   -4.0660 cc        1 5D9      0.212700
     13 C7          5.0620   -0.0120   -5.3810 c3        1 5D9     -0.013400
     14 O9          7.1350   -0.0260   -3.8980 os        1 5D9     -0.279800
     15 C6          7.3870   -0.0310   -2.5770 cc        1 5D9      0.341400
     16 N1          6.2470   -0.0230   -1.9280 nd        1 5D9     -0.524000
     17 C2          8.7270   -0.0390   -1.9590 cc        1 5D9      0.314300
     18 N3          9.8510   -0.0360   -2.6660 nc        1 5D9     -0.427000
     19 C4         10.9570   -0.0430   -2.0100 cd        1 5D9      0.213700
     20 S5         10.6590   -0.0550   -0.3270 ss        1 5D9     -0.270300
     21 C1          8.9210   -0.0440   -0.6210 cd        1 5D9      0.061600
     22 CA         12.3270   -0.0420   -2.6390 c3        1 5D9     -0.026800
     23 N          13.1850    0.9250   -1.9410 ny        1 5D9      0.007000
     24 CB         12.9410   -1.4390   -2.5290 c3        1 5D9     -0.035400
     25 CG         14.2760   -1.4700   -3.2750 c3        1 5D9     -0.038400
     26 CD         14.8890   -2.8680   -3.1640 c3        1 5D9     -0.032200
     27 NE         16.1670   -2.8980   -3.8790 ny        1 5D9      0.102000
     28 CZ         16.9060   -4.0570   -3.9170 c2        1 5D9     -0.072900
     29 NH2        16.4690   -5.1290   -3.3200 n2        1 5D9     -0.256100
     30 NH1        18.1070   -4.0850   -4.5880 nz        1 5D9      0.207400
     31 C14        13.0260    2.2720   -2.5050 c3        1 5D9      0.007100
     32 H1          0.4720    0.8830    2.4100 h1        1 5D9      0.016200
     33 H2          0.4730   -0.8860    2.4090 h1        1 5D9      0.016200
     34 H3          2.6540    0.8830    3.5740 hc        1 5D9      0.012033
     35 H4          2.6540   -0.8860    3.5740 hc        1 5D9      0.012033
     36 H5          1.4390   -0.0010    4.5070 hc        1 5D9      0.012033
     37 H6          0.2540   -0.0010   -2.6210 h4        1 5D9      0.193000
     38 H7          4.4370   -0.8940   -5.4500 hc        1 5D9      0.040033
     39 H8          5.7770   -0.0120   -6.1950 hc        1 5D9      0.040033
     40 H9          4.4430    0.8750   -5.4430 hc        1 5D9      0.040033
     41 H10         8.1470   -0.0460    0.1360 h4        1 5D9      0.213000
     42 H11        12.2450    0.2350   -3.6830 hx        1 5D9      0.104700
     43 H12        12.9380    0.9440   -0.9720 hn        1 5D9      0.244800
     44 H14        13.1040   -1.6810   -1.4860 hc        1 5D9      0.071200
     45 H15        12.2660   -2.1660   -2.9660 hc        1 5D9      0.071200
     46 H16        14.1130   -1.2290   -4.3180 hc        1 5D9      0.038700
     47 H17        14.9510   -0.7440   -2.8380 hc        1 5D9      0.038700
     48 H18        15.0530   -3.1090   -2.1210 hx        1 5D9      0.100700
     49 H19        14.2140   -3.5940   -3.6000 hx        1 5D9      0.100700
     50 H20        15.9760   -2.6430   -4.8280 hn        1 5D9      0.247800
     51 H21        15.5950   -5.1090   -2.8320 hn        1 5D9      0.385400
     52 H22        18.7350   -3.4230   -4.1770 hn        1 5D9      0.249133
     53 H23        17.9570   -3.8500   -5.5500 hn        1 5D9      0.249133
     54 H24        13.9310    2.8430   -2.3360 hx        1 5D9      0.085367
     55 H25        12.1910    2.7680   -2.0260 hx        1 5D9      0.085367
     56 H26        12.8390    2.1980   -3.5700 hx        1 5D9      0.085367
     57 HN3        14.1410    0.6420   -2.0330 hn        1 5D9      0.244800
     58 HE3        16.7480   -2.1950   -3.4660 hn        1 5D9      0.247800
     59 HH13       18.5030   -5.0020   -4.5250 hn        1 5D9      0.249133
@<TRIPOS>BOND
     1    1    2 2   
     2    2    3 1   
     3    2    6 1   
     4    3    4 1   
     5    4    5 1   
     6    4   32 1   
     7    4   33 1   
     8    5   34 1   
     9    5   35 1   
    10    5   36 1   
    11    6    7 2   
    12    6   10 1   
    13    7    8 1   
    14    7   37 1   
    15    8    9 1   
    16    9   10 2   
    17    9   11 1   
    18   11   12 2   
    19   11   16 1   
    20   12   13 1   
    21   12   14 1   
    22   13   38 1   
    23   13   39 1   
    24   13   40 1   
    25   14   15 1   
    26   15   16 2   
    27   15   17 1   
    28   17   18 1   
    29   17   21 2   
    30   18   19 2   
    31   19   20 1   
    32   19   22 1   
    33   20   21 1   
    34   21   41 1   
    35   22   23 1   
    36   22   24 1   
    37   22   42 1   
    38   23   31 1   
    39   23   43 1   
    40   23   57 1   
    41   24   25 1   
    42   24   44 1   
    43   24   45 1   
    44   25   26 1   
    45   25   46 1   
    46   25   47 1   
    47   26   27 1   
    48   26   48 1   
    49   26   49 1   
    50   27   28 1   
    51   27   50 1   
    52   27   58 1   
    53   28   29 2   
    54   28   30 1   
    55   29   51 1   
    56   30   52 1   
    57   30   53 1   
    58   30   59 1   
    59   31   54 1   
    60   31   55 1   
    61   31   56 1   
@<TRIPOS>SUBSTRUCTURE
     1 5D9         1 TEMP              0 ****  ****    0 ROOT
