@<TRIPOS>MOLECULE
5DA
   68    72     1     0     0
SMALL
bcc


@<TRIPOS>ATOM
      1 NH1         0.0000    0.0000    0.0000 n2        1 5DA     -0.400100
      2 CZ          1.3030    0.0000    0.0000 c2        1 5DA     -0.153900
      3 NH2         1.9910    0.0000    1.1900 nz        1 5DA      0.187400
      4 NE          1.9910   -0.0010   -1.1900 ny        1 5DA      0.169000
      5 CD          3.4560   -0.0000   -1.1900 c3        1 5DA     -0.050200
      6 CG          3.9660   -0.0020   -2.6330 c3        1 5DA     -0.036400
      7 CB          5.4960   -0.0010   -2.6330 c3        1 5DA     -0.037400
      8 CA          6.0070   -0.0020   -4.0750 c3        1 5DA     -0.028800
      9 N           5.6180   -1.2570   -4.7310 ny        1 5DA      0.006000
     10 C4          7.5080    0.1220   -4.0770 cc        1 5DA      0.224700
     11 N3          8.1550    1.1900   -4.3850 nd        1 5DA     -0.429000
     12 C2          9.4790    1.1330   -4.3360 cd        1 5DA      0.315300
     13 S5          8.5890   -1.1360   -3.6630 ss        1 5DA     -0.273300
     14 C1          9.9620   -0.0730   -3.9580 cc        1 5DA      0.049600
     15 C6         10.3490    2.2810   -4.6630 cd        1 5DA      0.342400
     16 O9          9.9240    3.5000   -5.0380 os        1 5DA     -0.274800
     17 C5         11.0090    4.2730   -5.2420 cd        1 5DA      0.206700
     18 C7         11.0110    5.7170   -5.6720 c3        1 5DA     -0.012400
     19 C3         12.1010    3.5060   -4.9860 cc        1 5DA      0.177000
     20 N1         11.6600    2.2780   -4.6300 nc        1 5DA     -0.527000
     21 C8         13.5130    3.9350   -5.0800 cc        1 5DA      0.404400
     22 S1         14.0580    5.5420   -5.5460 ss        1 5DA     -0.267300
     23 C11        15.7330    5.0320   -5.3530 cc        1 5DA     -0.049400
     24 C12        15.7380    3.7370   -4.9670 cd        1 5DA      0.293300
     25 N2         14.5430    3.1850   -4.8250 nd        1 5DA     -0.476000
     26 C13        16.9880    2.9920   -4.7140 cd        1 5DA      0.445400
     27 O14        18.2310    3.4910   -4.8270 os        1 5DA     -0.289800
     28 C15        19.1040    2.5150   -4.5110 cd        1 5DA      0.288700
     29 C17        20.6060    2.6270   -4.5010 c3        1 5DA     -0.009400
     30 C14        18.3740    1.4100   -4.2020 cc        1 5DA      0.170000
     31 N16        17.0640    1.7380   -4.3390 nc        1 5DA     -0.575000
     32 C9          5.4830   -1.0730   -6.1830 c3        1 5DA      0.008100
     33 C10        18.9100    0.0940   -3.7950 cc        1 5DA      0.471400
     34 O11        18.1770   -0.9920   -3.4930 os        1 5DA     -0.280800
     35 N12        20.1810   -0.2130   -3.6740 nd        1 5DA     -0.605000
     36 C16        20.2770   -1.4950   -3.2860 cd        1 5DA      0.265900
     37 C18        19.0310   -1.9860   -3.1720 cc        1 5DA      0.195700
     38 C19        18.6560   -3.3870   -2.7620 c3        1 5DA      0.005600
     39 H1         -0.5010    0.0000    0.8660 hn        1 5DA      0.386400
     40 H2          2.5680    0.8170    1.2430 hn        1 5DA      0.226133
     41 H3          1.3410    0.0010    1.9510 hn        1 5DA      0.226133
     42 H4          1.7000   -0.8150   -1.6940 hn        1 5DA      0.249300
     43 H5          3.8160    0.8850   -0.6800 hx        1 5DA      0.081700
     44 H6          3.8170   -0.8840   -0.6790 hx        1 5DA      0.081700
     45 H7          3.6050    0.8820   -3.1440 hc        1 5DA      0.041700
     46 H8          3.6050   -0.8860   -3.1430 hc        1 5DA      0.041700
     47 H9          5.8570   -0.8850   -2.1210 hc        1 5DA      0.066200
     48 H10         5.8570    0.8840   -2.1230 hc        1 5DA      0.066200
     49 H11         5.5750    0.8340   -4.6120 hx        1 5DA      0.107700
     50 H12         4.7430   -1.5670   -4.3560 hn        1 5DA      0.247300
     51 H14        11.0050   -0.3200   -3.8000 h4        1 5DA      0.210000
     52 H15        11.5000    6.3190   -4.9160 hc        1 5DA      0.038700
     53 H16         9.9900    6.0570   -5.7990 hc        1 5DA      0.038700
     54 H17        11.5430    5.8130   -6.6110 hc        1 5DA      0.038700
     55 H18        16.6080    5.6490   -5.5170 h4        1 5DA      0.179000
     56 H19        20.8950    3.6300   -4.7910 hc        1 5DA      0.043700
     57 H20        20.9770    2.4180   -3.5050 hc        1 5DA      0.043700
     58 H21        21.0270    1.9140   -5.2000 hc        1 5DA      0.043700
     59 H22         5.1540   -0.0620   -6.3890 hx        1 5DA      0.084700
     60 H23         4.7540   -1.7750   -6.5690 hx        1 5DA      0.084700
     61 H24         6.4400   -1.2470   -6.6600 hx        1 5DA      0.084700
     62 H25        21.1930   -2.0190   -3.0410 h4        1 5DA      0.029100
     63 H26        17.5810   -3.5050   -2.8180 hc        1 5DA      0.029033
     64 H27        18.9870   -3.5660   -1.7460 hc        1 5DA      0.029033
     65 H28        19.1320   -4.0980   -3.4270 hc        1 5DA      0.029033
     66 HH23        2.5660   -0.8180    1.2440 hn        1 5DA      0.226133
     67 HE3         1.6980    0.8120   -1.6950 hn        1 5DA      0.249300
     68 HN3         6.3170   -1.9510   -4.5530 hn        1 5DA      0.247300
@<TRIPOS>BOND
     1    1    2 2   
     2    1   39 1   
     3    2    3 1   
     4    2    4 1   
     5    3   40 1   
     6    3   41 1   
     7    3   66 1   
     8    4    5 1   
     9    4   42 1   
    10    4   67 1   
    11    5    6 1   
    12    5   43 1   
    13    5   44 1   
    14    6    7 1   
    15    6   45 1   
    16    6   46 1   
    17    7    8 1   
    18    7   47 1   
    19    7   48 1   
    20    8    9 1   
    21    8   10 1   
    22    8   49 1   
    23    9   32 1   
    24    9   50 1   
    25    9   68 1   
    26   10   11 2   
    27   10   13 1   
    28   11   12 1   
    29   12   14 2   
    30   12   15 1   
    31   13   14 1   
    32   14   51 1   
    33   15   16 1   
    34   15   20 2   
    35   16   17 1   
    36   17   18 1   
    37   17   19 2   
    38   18   52 1   
    39   18   53 1   
    40   18   54 1   
    41   19   20 1   
    42   19   21 1   
    43   21   22 1   
    44   21   25 2   
    45   22   23 1   
    46   23   24 2   
    47   23   55 1   
    48   24   25 1   
    49   24   26 1   
    50   26   27 1   
    51   26   31 2   
    52   27   28 1   
    53   28   29 1   
    54   28   30 2   
    55   29   56 1   
    56   29   57 1   
    57   29   58 1   
    58   30   31 1   
    59   30   33 1   
    60   32   59 1   
    61   32   60 1   
    62   32   61 1   
    63   33   34 1   
    64   33   35 2   
    65   34   37 1   
    66   35   36 1   
    67   36   37 2   
    68   36   62 1   
    69   37   38 1   
    70   38   63 1   
    71   38   64 1   
    72   38   65 1   
@<TRIPOS>SUBSTRUCTURE
     1 5DA         1 TEMP              0 ****  ****    0 ROOT
