@<TRIPOS>MOLECULE
5DE
   36    37     1     0     0
SMALL
bcc


@<TRIPOS>ATOM
      1 O19         1.0880   -1.4300    0.8630 o         1 5DE     -0.571000
      2 C15         1.5310   -0.4160    0.3070 c         1 5DE      0.689700
      3 O16         1.3550    0.7890    0.9440 os        1 5DE     -0.438900
      4 C17         0.6780    0.7740    2.2080 c3        1 5DE      0.140400
      5 C18         1.6210    0.3910    3.3230 c3        1 5DE     -0.126100
      6 C7          2.2160   -0.3230   -0.9570 cc        1 5DE     -0.334900
      7 C8          2.7200    0.8600   -1.6360 cc        1 5DE      0.381600
      8 N10         3.2880    0.4990   -2.8170 nd        1 5DE     -0.515800
      9 C9          2.6280    2.2390   -1.1210 c3        1 5DE     -0.127400
     10 C5          2.5260   -1.4070   -1.8150 cd        1 5DE      0.005400
     11 C6          2.2340   -2.8350   -1.6110 c3        1 5DE     -0.057800
     12 N4          3.1800   -0.8450   -2.9190 na        1 5DE      0.170300
     13 C3          3.6430   -1.5640   -4.0610 ca        1 5DE     -0.040200
     14 C2          4.3410   -2.7780   -3.9050 ca        1 5DE     -0.079500
     15 C1          4.7890   -3.4780   -5.0140 ca        1 5DE     -0.189500
     16 C11         3.4260   -1.0600   -5.3590 ca        1 5DE     -0.079500
     17 C12         3.8820   -1.7580   -6.4670 ca        1 5DE     -0.189500
     18 C13         4.5640   -2.9890   -6.3230 ca        1 5DE      0.154600
     19 N14         4.9340   -3.7370   -7.4390 nv        1 5DE     -0.823200
     20 H171       -0.1990    0.0770    2.1650 h1        1 5DE      0.060700
     21 H172        0.3270    1.8360    2.3120 h1        1 5DE      0.060700
     22 H181        1.0960    0.4810    4.3040 hc        1 5DE      0.047700
     23 H182        1.9620   -0.6650    3.1890 hc        1 5DE      0.047700
     24 H183        2.5160    1.0560    3.3280 hc        1 5DE      0.047700
     25 H91         3.1480    2.2950   -0.1310 hc        1 5DE      0.059367
     26 H92         3.0850    2.9820   -1.8180 hc        1 5DE      0.059367
     27 H93         1.5520    2.4990   -0.9590 hc        1 5DE      0.059367
     28 H61         2.0300   -3.3580   -2.5780 hc        1 5DE      0.071700
     29 H62         1.3410   -2.9310   -0.9390 hc        1 5DE      0.071700
     30 H63         3.1010   -3.3350   -1.1080 hc        1 5DE      0.071700
     31 H2          4.5410   -3.1810   -2.8990 ha        1 5DE      0.150000
     32 H1          5.3240   -4.4280   -4.8640 ha        1 5DE      0.139500
     33 H11         2.9000   -0.1020   -5.5050 ha        1 5DE      0.150000
     34 H12         3.6970   -1.3430   -7.4700 ha        1 5DE      0.139500
     35 H141        5.0320   -3.2170   -8.2820 hn        1 5DE      0.398300
     36 H142        5.6620   -4.3970   -7.2830 hn        1 5DE      0.398300
@<TRIPOS>BOND
     1    1    2 2   
     2    2    3 1   
     3    2    6 1   
     4    3    4 1   
     5    4    5 1   
     6    4   20 1   
     7    4   21 1   
     8    5   22 1   
     9    5   23 1   
    10    5   24 1   
    11    6    7 1   
    12    6   10 2   
    13    7    8 2   
    14    7    9 1   
    15    8   12 1   
    16    9   25 1   
    17    9   26 1   
    18    9   27 1   
    19   10   11 1   
    20   10   12 1   
    21   11   28 1   
    22   11   29 1   
    23   11   30 1   
    24   12   13 1   
    25   13   14 ar  
    26   13   16 ar  
    27   14   15 ar  
    28   14   31 1   
    29   15   18 ar  
    30   15   32 1   
    31   16   17 ar  
    32   16   33 1   
    33   17   18 ar  
    34   17   34 1   
    35   18   19 1   
    36   19   35 1   
    37   19   36 1   
@<TRIPOS>SUBSTRUCTURE
     1 5DE         1 TEMP              0 ****  ****    0 ROOT
