@<TRIPOS>MOLECULE
5DE
   36    31     1     0     0
SMALL
bcc


@<TRIPOS>ATOM
      1 O19        -2.9270    0.1870    1.9600 o         1 5DE     -0.382000
      2 C15        -1.9300    0.8320    1.7060 c1        1 5DE      0.390000
      3 O16        -1.5190    1.8590    2.5710 o         1 5DE     -0.277000
      4 C17        -2.5130    2.2710    3.4800 c3        1 5DE     -0.010000
      5 C18        -1.9930    3.4260    4.3070 c3        1 5DE     -0.244000
      6 C7         -1.1610    0.5640    0.4310 c2        1 5DE     -0.249000
      7 C8         -1.2990    1.2410   -0.7460 c1        1 5DE     -0.041000
      8 N10        -0.4550    0.6920   -1.6440 n2        1 5DE     -0.083000
      9 C9         -2.2730    2.3670   -1.0150 c2        1 5DE     -0.167000
     10 C5         -0.2220   -0.4090    0.2490 c1        1 5DE      0.037000
     11 C6          0.2040   -1.4370    1.2760 c2        1 5DE     -0.167000
     12 N4          0.2150   -0.3340   -1.0250 n3        1 5DE     -0.069000
     13 C3          1.1560   -1.1080   -1.5820 c1        1 5DE      0.005000
     14 C2          2.4930   -0.7600   -1.4690 c1        1 5DE     -0.128500
     15 C1          3.4610   -1.5110   -2.1170 c1        1 5DE     -0.128500
     16 C11         0.7880   -2.2070   -2.3420 c1        1 5DE     -0.092000
     17 C12         1.7560   -2.9570   -2.9900 c1        1 5DE     -0.189000
     18 C13         3.0920   -2.6090   -2.8770 c1        1 5DE      0.073000
     19 N14         4.0830   -3.3760   -3.5420 n3        1 5DE     -0.332000
     20 H171       -3.3090    2.5560    2.9860 h1        1 5DE      0.099500
     21 H172       -2.7450    1.5250    4.0710 h1        1 5DE      0.099500
     22 H181       -1.6460    4.1240    3.7130 hc        1 5DE      0.087333
     23 H182       -1.2740    3.1100    4.8940 hc        1 5DE      0.087333
     24 H183       -2.7210    3.7930    4.8510 hc        1 5DE      0.087333
     25 H91        -3.1870    2.0560   -0.8450 ha        1 5DE      0.104667
     26 H92        -2.0700    3.1230   -0.4260 ha        1 5DE      0.104667
     27 H93        -2.1940    2.6510   -1.9500 ha        1 5DE      0.104667
     28 H61        -0.5810   -1.7440    1.7760 ha        1 5DE      0.104667
     29 H62         0.6200   -2.2000    0.8220 ha        1 5DE      0.104667
     30 H63         0.8480   -1.0340    1.8950 ha        1 5DE      0.104667
     31 H2          2.7530    0.0140   -0.9340 ha        1 5DE      0.148000
     32 H1          4.4030   -1.2660   -2.0380 ha        1 5DE      0.148000
     33 H11        -0.1540   -2.4520   -2.4210 ha        1 5DE      0.144000
     34 H12         1.4960   -3.7310   -3.5250 ha        1 5DE      0.139000
     35 H141        4.9630   -3.1380   -3.4790 hn        1 5DE      0.193000
     36 H142        3.8420   -4.1160   -4.0210 hn        1 5DE      0.193000
@<TRIPOS>BOND
     1    1    2 1   
     2    2    6 1   
     3    3    4 1   
     4    4    5 1   
     5    4   20 1   
     6    4   21 1   
     7    5   22 1   
     8    5   23 1   
     9    5   24 1   
    10    6    7 1   
    11    6   10 1   
    12    7    8 1   
    13    8   12 1   
    14    9   25 1   
    15    9   26 1   
    16    9   27 1   
    17   10   12 1   
    18   11   28 1   
    19   11   29 1   
    20   11   30 1   
    21   12   13 1   
    22   13   16 1   
    23   14   15 1   
    24   14   31 1   
    25   15   32 1   
    26   16   33 1   
    27   17   18 1   
    28   17   34 1   
    29   18   19 1   
    30   19   35 1   
    31   19   36 1   
@<TRIPOS>SUBSTRUCTURE
     1 5DE         1 TEMP              0 ****  ****    0 ROOT
