@<TRIPOS>MOLECULE
5DE
   36    37     1     0     0
SMALL
bcc


@<TRIPOS>ATOM
      1 O19         0.9870    0.0610    4.0180 o         1 5DE     -0.560000
      2 C15         0.2480    0.1210    3.0280 c         1 5DE      0.691700
      3 O16        -1.0870    0.3680    3.2530 os        1 5DE     -0.451900
      4 C17        -1.5110    0.5270    4.6140 c3        1 5DE      0.141400
      5 C18        -1.7110   -0.8120    5.2790 c3        1 5DE     -0.125100
      6 C7          0.5950   -0.0260    1.6370 cc        1 5DE     -0.331900
      7 C8          1.9180   -0.3430    1.1170 cc        1 5DE      0.381600
      8 N10         1.8720   -0.3960   -0.2410 nd        1 5DE     -0.516800
      9 C9          3.1310   -0.5890    1.9230 c3        1 5DE     -0.140400
     10 C5         -0.2320    0.1050    0.4960 cd        1 5DE      0.004400
     11 C6         -1.6650    0.4350    0.4360 c3        1 5DE     -0.050800
     12 N4          0.5970   -0.1380   -0.6080 na        1 5DE      0.170300
     13 C3          0.1880   -0.0990   -1.9740 ca        1 5DE     -0.041200
     14 C2         -1.0010   -0.7330   -2.3810 ca        1 5DE     -0.079000
     15 C1         -1.4000   -0.6940   -3.7080 ca        1 5DE     -0.190000
     16 C11         0.9810    0.5560   -2.9370 ca        1 5DE     -0.079000
     17 C12         0.5850    0.5880   -4.2660 ca        1 5DE     -0.190000
     18 C13        -0.6200   -0.0260   -4.6810 ca        1 5DE      0.155600
     19 N14        -1.0660    0.0910   -5.9970 nh        1 5DE     -0.823200
     20 H171       -2.4810    1.0840    4.5070 h1        1 5DE      0.059200
     21 H172       -0.7660    1.1490    5.1760 h1        1 5DE      0.059200
     22 H181       -2.1290   -0.6620    6.3030 hc        1 5DE      0.048367
     23 H182       -2.4150   -1.4450    4.6890 hc        1 5DE      0.048367
     24 H183       -0.7340   -1.3480    5.3610 hc        1 5DE      0.048367
     25 H91         3.3030   -1.6910    2.0180 hc        1 5DE      0.064367
     26 H92         4.0330   -0.1300    1.4480 hc        1 5DE      0.064367
     27 H93         2.9960   -0.1580    2.9470 hc        1 5DE      0.064367
     28 H61        -2.2720   -0.4930    0.5930 hc        1 5DE      0.068367
     29 H62        -1.9120    1.1540    1.2600 hc        1 5DE      0.068367
     30 H63        -1.9500    0.8920   -0.5450 hc        1 5DE      0.068367
     31 H2         -1.6250   -1.2700   -1.6470 ha        1 5DE      0.150000
     32 H1         -2.3380   -1.1910   -3.9980 ha        1 5DE      0.139000
     33 H11         1.9280    1.0410   -2.6460 ha        1 5DE      0.150000
     34 H12         1.2210    1.1080   -4.9990 ha        1 5DE      0.139000
     35 H141       -1.7170   -0.6040   -6.2850 hn        1 5DE      0.398300
     36 H142       -0.3560    0.2850   -6.6670 hn        1 5DE      0.398300
@<TRIPOS>BOND
     1    1    2 2   
     2    2    3 1   
     3    2    6 1   
     4    3    4 1   
     5    4    5 1   
     6    4   20 1   
     7    4   21 1   
     8    5   22 1   
     9    5   23 1   
    10    5   24 1   
    11    6    7 1   
    12    6   10 2   
    13    7    8 2   
    14    7    9 1   
    15    8   12 1   
    16    9   25 1   
    17    9   26 1   
    18    9   27 1   
    19   10   11 1   
    20   10   12 1   
    21   11   28 1   
    22   11   29 1   
    23   11   30 1   
    24   12   13 1   
    25   13   14 ar  
    26   13   16 ar  
    27   14   15 ar  
    28   14   31 1   
    29   15   18 ar  
    30   15   32 1   
    31   16   17 ar  
    32   16   33 1   
    33   17   18 ar  
    34   17   34 1   
    35   18   19 1   
    36   19   35 1   
    37   19   36 1   
@<TRIPOS>SUBSTRUCTURE
     1 5DE         1 TEMP              0 ****  ****    0 ROOT
