@<TRIPOS>MOLECULE
5DE
   37    38     1     0     0
SMALL
bcc


@<TRIPOS>ATOM
      1 O19         0.9780    1.6760    0.5120 o         1 5DE     -0.527000
      2 C15         1.5650    0.6600    0.1290 c         1 5DE      0.678700
      3 O16         1.7870   -0.3370    1.0420 os        1 5DE     -0.452900
      4 C17         1.3020   -0.0920    2.3800 c3        1 5DE      0.140400
      5 C18         1.6630   -1.3150    3.1850 c3        1 5DE     -0.103100
      6 C7          2.0650    0.3770   -1.2020 cc        1 5DE     -0.291900
      7 C8          2.0450    1.3280   -2.3200 cc        1 5DE      0.424600
      8 N10         2.5650    0.7430   -3.4200 nd        1 5DE     -0.520800
      9 C9          1.5480    2.7150   -2.2460 c3        1 5DE     -0.152400
     10 C5          2.6340   -0.8000   -1.7090 cd        1 5DE      0.024400
     11 C6          2.8450   -2.0830   -1.0200 c3        1 5DE     -0.063800
     12 N4          2.9350   -0.5250   -3.0700 na        1 5DE      0.110300
     13 C3          3.5160   -1.3970   -4.0090 ca        1 5DE      0.125800
     14 C2          4.4590   -2.3770   -3.6160 ca        1 5DE     -0.129000
     15 C1          5.0330   -3.2260   -4.5520 ca        1 5DE     -0.075500
     16 C11         3.1850   -1.2850   -5.3860 ca        1 5DE     -0.129000
     17 C12         3.7620   -2.1270   -6.3220 ca        1 5DE     -0.075500
     18 C13         4.6860   -3.1040   -5.9080 ca        1 5DE     -0.115400
     19 N14         5.3000   -3.9820   -6.9010 n4        1 5DE     -0.692000
     20 H171        1.7950    0.8350    2.7730 h1        1 5DE      0.061200
     21 H172        0.1940    0.0710    2.3320 h1        1 5DE      0.061200
     22 H181        2.7700   -1.4580    3.2110 hc        1 5DE      0.050700
     23 H182        1.1990   -2.2290    2.7440 hc        1 5DE      0.050700
     24 H183        1.2880   -1.1830    4.2290 hc        1 5DE      0.050700
     25 H91         1.2220    3.0950   -3.2460 hc        1 5DE      0.079367
     26 H92         0.6850    2.7650   -1.5310 hc        1 5DE      0.079367
     27 H93         2.3620    3.3790   -1.8580 hc        1 5DE      0.079367
     28 H61         2.0940   -2.1800   -0.1910 hc        1 5DE      0.077367
     29 H62         2.7300   -2.9550   -1.7100 hc        1 5DE      0.077367
     30 H63         3.8650   -2.1080   -0.5570 hc        1 5DE      0.077367
     31 H2          4.7730   -2.4670   -2.5610 ha        1 5DE      0.188000
     32 H1          5.7650   -3.9770   -4.2100 ha        1 5DE      0.159000
     33 H11         2.4650   -0.5190   -5.7290 ha        1 5DE      0.188000
     34 H12         3.4810   -2.0170   -7.3830 ha        1 5DE      0.159000
     35 H141        6.0590   -3.4820   -7.3790 hn        1 5DE      0.462133
     36 H142        5.6830   -4.8170   -6.4450 hn        1 5DE      0.462133
     37 H143        4.5980   -4.2670   -7.5930 hn        1 5DE      0.462133
@<TRIPOS>BOND
     1    1    2 2   
     2    2    3 1   
     3    2    6 1   
     4    3    4 1   
     5    4    5 1   
     6    4   20 1   
     7    4   21 1   
     8    5   22 1   
     9    5   23 1   
    10    5   24 1   
    11    6    7 1   
    12    6   10 2   
    13    7    8 2   
    14    7    9 1   
    15    8   12 1   
    16    9   25 1   
    17    9   26 1   
    18    9   27 1   
    19   10   11 1   
    20   10   12 1   
    21   11   28 1   
    22   11   29 1   
    23   11   30 1   
    24   12   13 1   
    25   13   14 ar  
    26   13   16 ar  
    27   14   15 ar  
    28   14   31 1   
    29   15   18 ar  
    30   15   32 1   
    31   16   17 ar  
    32   16   33 1   
    33   17   18 ar  
    34   17   34 1   
    35   18   19 1   
    36   19   35 1   
    37   19   36 1   
    38   19   37 1   
@<TRIPOS>SUBSTRUCTURE
     1 5DE         1 TEMP              0 ****  ****    0 ROOT
