@<TRIPOS>MOLECULE
5DE
   36    37     1     0     0
SMALL
bcc


@<TRIPOS>ATOM
      1 O19         1.0530    1.3950    0.7070 o         1 5DE     -0.560000
      2 C15         1.5030    0.3710    0.1800 c         1 5DE      0.691700
      3 O16         1.4500   -0.7910    0.9140 os        1 5DE     -0.451900
      4 C17         0.8850   -0.7180    2.2300 c3        1 5DE      0.141400
      5 C18         1.8970   -0.2080    3.2270 c3        1 5DE     -0.125100
      6 C7          2.0830    0.2150   -1.1310 cc        1 5DE     -0.331900
      7 C8          2.3120    1.2830   -2.0950 cc        1 5DE      0.381600
      8 N10         2.8690    0.7660   -3.2220 nd        1 5DE     -0.516800
      9 C9          2.0070    2.7130   -1.8930 c3        1 5DE     -0.140400
     10 C5          2.5420   -0.9640   -1.7650 cd        1 5DE      0.004400
     11 C6          2.5370   -2.3430   -1.2500 c3        1 5DE     -0.050800
     12 N4          3.0110   -0.5630   -3.0230 na        1 5DE      0.170300
     13 C3          3.5570   -1.4300   -4.0170 ca        1 5DE     -0.041200
     14 C2          4.5110   -2.4050   -3.6660 ca        1 5DE     -0.079000
     15 C1          5.0410   -3.2480   -4.6310 ca        1 5DE     -0.190000
     16 C11         3.1650   -1.3060   -5.3650 ca        1 5DE     -0.079000
     17 C12         3.7010   -2.1460   -6.3300 ca        1 5DE     -0.190000
     18 C13         4.6430   -3.1440   -5.9850 ca        1 5DE      0.155600
     19 N14         5.1070   -4.0500   -6.9380 nh        1 5DE     -0.823200
     20 H171        0.6030   -1.7850    2.4380 h1        1 5DE      0.059200
     21 H172       -0.0290   -0.0690    2.2180 h1        1 5DE      0.059200
     22 H181        2.1690    0.8490    2.9890 hc        1 5DE      0.048367
     23 H182        1.4640   -0.2490    4.2540 hc        1 5DE      0.048367
     24 H183        2.8250   -0.8280    3.1990 hc        1 5DE      0.048367
     25 H91         1.5890    3.1740   -2.8230 hc        1 5DE      0.064367
     26 H92         2.9420    3.2630   -1.6160 hc        1 5DE      0.064367
     27 H93         1.2660    2.8280   -1.0620 hc        1 5DE      0.064367
     28 H61         2.5380   -3.0990   -2.0750 hc        1 5DE      0.068367
     29 H62         1.6260   -2.4940   -0.6150 hc        1 5DE      0.068367
     30 H63         3.4390   -2.5080   -0.6080 hc        1 5DE      0.068367
     31 H2          4.8490   -2.5040   -2.6220 ha        1 5DE      0.150000
     32 H1          5.7790   -4.0070   -4.3290 ha        1 5DE      0.139000
     33 H11         2.4360   -0.5360   -5.6660 ha        1 5DE      0.150000
     34 H12         3.3770   -2.0300   -7.3750 ha        1 5DE      0.139000
     35 H141        5.9700   -4.4920   -6.7150 hn        1 5DE      0.398300
     36 H142        5.0420   -3.7400   -7.8810 hn        1 5DE      0.398300
@<TRIPOS>BOND
     1    1    2 2   
     2    2    3 1   
     3    2    6 1   
     4    3    4 1   
     5    4    5 1   
     6    4   20 1   
     7    4   21 1   
     8    5   22 1   
     9    5   23 1   
    10    5   24 1   
    11    6    7 1   
    12    6   10 2   
    13    7    8 2   
    14    7    9 1   
    15    8   12 1   
    16    9   25 1   
    17    9   26 1   
    18    9   27 1   
    19   10   11 1   
    20   10   12 1   
    21   11   28 1   
    22   11   29 1   
    23   11   30 1   
    24   12   13 1   
    25   13   14 ar  
    26   13   16 ar  
    27   14   15 ar  
    28   14   31 1   
    29   15   18 ar  
    30   15   32 1   
    31   16   17 ar  
    32   16   33 1   
    33   17   18 ar  
    34   17   34 1   
    35   18   19 1   
    36   19   35 1   
    37   19   36 1   
@<TRIPOS>SUBSTRUCTURE
     1 5DE         1 TEMP              0 ****  ****    0 ROOT
