@<TRIPOS>MOLECULE
5DI
   21    21     1     0     0
SMALL
bcc


@<TRIPOS>ATOM
      1 C1         -0.8480   -0.8940   -1.7430 c3        1 5DI      0.033400
      2 C2          0.7020   -0.8940   -1.7430 c         1 5DI      0.515100
      3 O2          1.3090   -1.3800   -2.6760 o         1 5DI     -0.498100
      4 C3          1.3130   -0.8940   -0.3620 c3        1 5DI     -0.002900
      5 O3          2.7820   -0.8330   -0.4280 oh        1 5DI     -0.587800
      6 C4          0.7270    0.2270    0.4330 c3        1 5DI      0.090100
      7 O4          1.1840    0.1090    1.8050 oh        1 5DI     -0.587800
      8 C5         -0.7740    0.2450    0.4290 c3        1 5DI      0.327100
      9 O5         -1.3430    0.2110   -0.8980 os        1 5DI     -0.407600
     10 C6         -1.2470    1.5120    1.1290 c3        1 5DI      0.131400
     11 O6         -2.6570    1.5470    1.1350 oh        1 5DI     -0.576800
     12 F1         -1.2180   -0.8170    1.1140 f         1 5DI     -0.236300
     13 H11C       -1.2190   -1.7660   -1.5080 h1        1 5DI      0.093700
     14 H12C       -1.1890   -0.7890   -2.6520 h1        1 5DI      0.093700
     15 H3C         1.1780   -1.7480    0.0910 h1        1 5DI      0.114700
     16 H3O         3.1170   -1.6510   -0.3490 ho        1 5DI      0.427000
     17 H4C         1.0510    1.0720    0.0670 h1        1 5DI      0.065700
     18 H4O         1.8860    0.6380    1.9300 ho        1 5DI      0.433000
     19 H61C       -0.9040    2.2930    0.6560 h1        1 5DI      0.079200
     20 H62C       -0.9180    1.5180    2.0480 h1        1 5DI      0.079200
     21 H6O        -2.9330    2.2950    1.5240 ho        1 5DI      0.413000
@<TRIPOS>BOND
     1    1    2 1   
     2    1    9 1   
     3    1   13 1   
     4    1   14 1   
     5    2    3 2   
     6    2    4 1   
     7    4    5 1   
     8    4    6 1   
     9    4   15 1   
    10    5   16 1   
    11    6    7 1   
    12    6    8 1   
    13    6   17 1   
    14    7   18 1   
    15    8    9 1   
    16    8   10 1   
    17    8   12 1   
    18   10   11 1   
    19   10   19 1   
    20   10   20 1   
    21   11   21 1   
@<TRIPOS>SUBSTRUCTURE
     1 5DI         1 TEMP              0 ****  ****    0 ROOT
