@<TRIPOS>MOLECULE
5DI
   21    21     1     0     0
SMALL
bcc


@<TRIPOS>ATOM
      1 C1         -1.0600    1.3580    1.0020 c3        1 5DI      0.031400
      2 C2         -1.8920    0.6000    0.0070 c         1 5DI      0.511100
      3 O2         -3.0290    0.9590   -0.3110 o         1 5DI     -0.514100
      4 C3         -1.2790   -0.6520   -0.5850 c3        1 5DI      0.054100
      5 O3         -1.8280   -0.9330   -1.8610 oh        1 5DI     -0.578800
      6 C4          0.2410   -0.5340   -0.8020 c3        1 5DI      0.126100
      7 O4          0.7140   -1.8630   -0.8590 oh        1 5DI     -0.578800
      8 C5          0.9560    0.2490    0.3470 c3        1 5DI      0.285100
      9 O5          0.0910    0.6330    1.4050 os        1 5DI     -0.415600
     10 C6          2.0780   -0.5900    1.0260 c3        1 5DI      0.123400
     11 O6          3.1290   -0.8030    0.1130 oh        1 5DI     -0.595800
     12 F1          1.4720    1.4420   -0.1310 f         1 5DI     -0.251300
     13 H11C       -0.7610    2.3480    0.5620 h1        1 5DI      0.097700
     14 H12C       -1.6260    1.5220    1.9610 h1        1 5DI      0.097700
     15 H3C        -1.4870   -1.5140    0.1160 h1        1 5DI      0.090700
     16 H3O        -2.7870   -0.8140   -1.7920 ho        1 5DI      0.425000
     17 H4C         0.4370   -0.0020   -1.7760 h1        1 5DI      0.080700
     18 H4O         1.6200   -1.8310   -1.2020 ho        1 5DI      0.430000
     19 H61C        2.4300   -0.0520    1.9440 h1        1 5DI      0.084200
     20 H62C        1.6840   -1.6070    1.2860 h1        1 5DI      0.084200
     21 H6O         3.5430    0.0530   -0.0580 ho        1 5DI      0.414000
@<TRIPOS>BOND
     1    1    2 1   
     2    1    9 1   
     3    1   13 1   
     4    1   14 1   
     5    2    3 2   
     6    2    4 1   
     7    4    5 1   
     8    4    6 1   
     9    4   15 1   
    10    5   16 1   
    11    6    7 1   
    12    6    8 1   
    13    6   17 1   
    14    7   18 1   
    15    8    9 1   
    16    8   10 1   
    17    8   12 1   
    18   10   11 1   
    19   10   19 1   
    20   10   20 1   
    21   11   21 1   
@<TRIPOS>SUBSTRUCTURE
     1 5DI         1 TEMP              0 ****  ****    0 ROOT
