@<TRIPOS>MOLECULE
5DK
   48    61     1     0     0
SMALL
bcc


@<TRIPOS>ATOM
      1 C2          0.0000    0.0000    0.0000 DU        1 5DK     -0.280000
      2 C3          1.3880    0.0000    0.0000 c2        1 5DK     -0.179000
      3 C4          2.0650    0.0000    1.2300 c3        1 5DK     -0.167000
      4 C5          1.3020    0.0000    2.4020 c2        1 5DK      0.410000
      5 C6         -0.0750    0.0010    2.3060 c2        1 5DK     -0.179000
      6 CB          6.2290    1.2470   -0.4590 c3        1 5DK     -0.125000
      7 O3          2.0790   -0.0010   -1.1690 oh        1 5DK     -0.213000
      8 O4P         0.9770    0.0000    4.7780 os        1 5DK     -0.685000
      9 N           4.2270   -0.0020    0.1890 n2        1 5DK      0.419000
     10 P           1.3380    0.0010    6.3480 p5        1 5DK      1.135500
     11 C2A        -0.7440   -0.0000   -1.3110 c3        1 5DK     -0.409000
     12 C4A         3.5400   -0.0000    1.2840 c2        1 5DK     -0.401000
     13 C5A         1.9720   -0.0000    3.7520 c3        1 5DK      0.635000
     14 N1         -0.6750   -0.0050    1.1300 n2        1 5DK      0.030000
     15 CA          5.6920   -0.0020    0.2430 DU        1 5DK     -0.427000
     16 C           6.2200   -1.2330   -0.4480 c2        1 5DK      0.510000
     17 OXT         5.4510   -2.0280   -0.9350 o         1 5DK     -0.503500
     18 CD          6.3320    3.7420   -0.3870 DU        1 5DK      0.227000
     19 NE          5.9170    4.9350    0.3540 ny        1 5DK     -0.105000
     20 CZ          6.2850    6.1840   -0.0910 DU        1 5DK      0.672000
     21 NH1         5.9150    7.2460    0.5690 nz        1 5DK     -0.276000
     22 NH2         7.0410    6.3120   -1.2310 n2        1 5DK     -0.525000
     23 O           7.5430   -1.4460   -0.5210 o         1 5DK     -0.503500
     24 H1          0.1290    0.2850    3.3310 h4        1 5DK      0.207000
     25 H2          5.7630    1.0590    0.5010 DU        1 5DK      0.057000
     26 H3          5.6030    0.9750    0.3820 DU        1 5DK      0.057000
     27 H4          2.8400    0.4630   -0.8620 ho        1 5DK      0.212000
     28 H9         -0.7280   -0.0010   -0.2280 DU        1 5DK      0.293500
     29 H10         0.3260    0.1440   -1.2340 DU        1 5DK      0.293500
     30 H11         0.3130    0.2370   -1.3190 hc        1 5DK      0.205000
     31 H12         3.0090   -0.2310    0.3680 DU        1 5DK      0.324000
     32 H14         1.5270   -0.1850    2.7810 DU        1 5DK     -0.330000
     33 H15         1.5780    0.1650    2.7560 DU        1 5DK     -0.330000
     34 H16         4.6260    0.0200    0.0490 ha        1 5DK      0.036000
     35 H18         4.8760    1.9740    0.5590 DU        1 5DK      0.151000
     36 H19         5.1050    2.1480    1.0770 DU        1 5DK      0.151000
     37 H20         5.7770    3.0550    0.2410 DU        1 5DK     -0.492000
     38 H21         6.2490    2.7550    0.0530 DU        1 5DK     -0.001000
     39 H22         6.2700    4.0510    0.6620 DU        1 5DK      0.185000
     40 H23         5.7560    6.2610    0.6500 DU        1 5DK      0.084000
     41 H24         6.2910    6.3730    0.2550 DU        1 5DK     -0.794000
     42 H25         6.6000    5.4140   -1.2520 hn        1 5DK      0.085000
     43 O1P         2.0820   -1.3760    6.7270 o         1 5DK     -0.296833
     44 O2P        -0.0160    0.1330    7.2090 o         1 5DK     -0.296833
     45 O3P         2.2280    1.1430    6.6500 o         1 5DK     -0.296833
     46 HE3         6.9110    4.8180    0.3340 hn        1 5DK      0.199000
     47 HH13        6.3480    7.0410   -0.3100 DU        1 5DK      0.301000
     48 CG          5.7950    2.4930    0.3160 DU        1 5DK     -0.067000
@<TRIPOS>BOND
     1    1    2 1   
     2    1   11 1   
     3    1   14 1   
     4    1   28 1   
     5    1   29 1   
     6    2    3 1   
     7    2    7 1   
     8    3    4 1   
     9    3   12 1   
    10    3   31 1   
    11    4    5 1   
    12    4   13 1   
    13    5   14 1   
    14    5   24 1   
    15    6   15 1   
    16    6   25 1   
    17    6   26 1   
    18    6   48 1   
    19    7   27 1   
    20    8   10 1   
    21    8   13 1   
    22    9   12 1   
    23    9   15 1   
    24   10   43 1   
    25   10   44 1   
    26   10   45 1   
    27   11   28 1   
    28   11   29 1   
    29   11   30 1   
    30   12   31 1   
    31   13   32 1   
    32   13   33 1   
    33   15   16 1   
    34   15   25 1   
    35   15   26 1   
    36   15   34 1   
    37   16   17 1   
    38   16   23 1   
    39   18   19 1   
    40   18   37 1   
    41   18   38 1   
    42   18   39 1   
    43   18   48 1   
    44   19   20 1   
    45   19   39 1   
    46   19   46 1   
    47   20   21 1   
    48   20   22 1   
    49   20   40 1   
    50   20   47 1   
    51   21   40 1   
    52   21   41 1   
    53   21   47 1   
    54   22   42 1   
    55   32   33 1   
    56   35   36 1   
    57   35   48 1   
    58   36   48 1   
    59   37   38 1   
    60   38   48 1   
    61   40   41 1   
@<TRIPOS>SUBSTRUCTURE
     1 5DK         1 TEMP              0 ****  ****    0 ROOT
