@<TRIPOS>MOLECULE
5DM
   40    40     1     0     0
SMALL
bcc


@<TRIPOS>ATOM
      1 O           1.2990   -2.9610    0.9910 o         1 5DM     -0.832300
      2 C1          2.0230   -2.2840    0.2070 c         1 5DM      0.926600
      3 N1          0.8970   -0.0400    0.0530 n3        1 5DM     -0.807200
      4 SD          5.3220    1.6110   -0.1910 ss        1 5DM     -0.311200
      5 CE          5.4060    3.3280    0.1380 c3        1 5DM     -0.045000
      6 CA1         2.1040   -0.7380    0.4830 c3        1 5DM      0.048500
      7 CB1         3.3630   -0.1890   -0.1960 c3        1 5DM     -0.063400
      8 CG1         3.6120    1.2610    0.1350 c3        1 5DM      0.000700
      9 C          -0.2870   -0.3950    0.8030 c3        1 5DM      0.107800
     10 N          -1.6220   -0.7350   -1.3190 n3        1 5DM     -0.900800
     11 CA         -1.5880   -0.1180   -0.0050 c3        1 5DM      0.171500
     12 CB         -2.7640   -0.5740    0.8800 c3        1 5DM     -0.039100
     13 CG         -4.0700   -0.0290    0.4200 ca        1 5DM     -0.051300
     14 CZ         -6.5470    0.9810   -0.4200 ca        1 5DM     -0.148000
     15 CD1        -4.7470   -0.6160   -0.6570 ca        1 5DM     -0.121000
     16 CD2        -4.6470    1.0690    1.0690 ca        1 5DM     -0.121000
     17 CE1        -5.9780   -0.1110   -1.0740 ca        1 5DM     -0.139500
     18 CE2        -5.8780    1.5710    0.6510 ca        1 5DM     -0.139500
     19 HN1         1.0440    0.9520    0.1090 hn        1 5DM      0.318800
     20 HE          4.7320    3.9120   -0.5280 h1        1 5DM      0.050033
     21 HEA         5.1410    3.5620    1.1930 h1        1 5DM      0.050033
     22 HEB         6.4590    3.6400   -0.0490 h1        1 5DM      0.050033
     23 HA1         2.2410   -0.6270    1.6040 h1        1 5DM      0.001700
     24 HB1         4.2230   -0.8210    0.1520 hc        1 5DM      0.074200
     25 HB1A        3.2790   -0.3350   -1.3040 hc        1 5DM      0.074200
     26 HG1         3.3890    1.4680    1.2090 h1        1 5DM      0.045200
     27 HG1A        2.9710    1.9320   -0.4860 h1        1 5DM      0.045200
     28 H          -0.2440   -1.4970    1.0560 h1        1 5DM      0.054200
     29 HA         -0.3620    0.1750    1.7760 h1        1 5DM      0.054200
     30 HN         -0.8970   -0.3380   -1.8880 hn        1 5DM      0.355800
     31 HNA        -1.4340   -1.7170   -1.2310 hn        1 5DM      0.355800
     32 HAA        -1.6840    0.9970   -0.1620 h1        1 5DM      0.037700
     33 HB         -2.8070   -1.6960    0.9000 hc        1 5DM      0.051200
     34 HBA        -2.5630   -0.2290    1.9300 hc        1 5DM      0.051200
     35 HZ         -7.5180    1.3770   -0.7500 ha        1 5DM      0.116000
     36 HD1        -4.2900   -1.4680   -1.1840 ha        1 5DM      0.137000
     37 HD2        -4.1220    1.5400    1.9130 ha        1 5DM      0.137000
     38 HE1        -6.4980   -0.5750   -1.9240 ha        1 5DM      0.118500
     39 HE2        -6.3210    2.4340    1.1680 ha        1 5DM      0.118500
     40 OXT         2.7000   -2.7590   -0.7410 o         1 5DM     -0.832300
@<TRIPOS>BOND
     1    1    2 1   
     2    2    6 1   
     3    2   40 1   
     4    3    6 1   
     5    3    9 1   
     6    3   19 1   
     7    4    5 1   
     8    4    8 1   
     9    5   20 1   
    10    5   21 1   
    11    5   22 1   
    12    6    7 1   
    13    6   23 1   
    14    7    8 1   
    15    7   24 1   
    16    7   25 1   
    17    8   26 1   
    18    8   27 1   
    19    9   11 1   
    20    9   28 1   
    21    9   29 1   
    22   10   11 1   
    23   10   30 1   
    24   10   31 1   
    25   11   12 1   
    26   11   32 1   
    27   12   13 1   
    28   12   33 1   
    29   12   34 1   
    30   13   15 ar  
    31   13   16 ar  
    32   14   17 ar  
    33   14   18 ar  
    34   14   35 1   
    35   15   17 ar  
    36   15   36 1   
    37   16   18 ar  
    38   16   37 1   
    39   17   38 1   
    40   18   39 1   
@<TRIPOS>SUBSTRUCTURE
     1 5DM         1 TEMP              0 ****  ****    0 ROOT
