@<TRIPOS>MOLECULE
5DM
   40    37     1     0     0
SMALL
bcc


@<TRIPOS>ATOM
      1 O          -3.2720   -1.4670   -0.8040 o         1 5DM     -0.578000
      2 C1         -2.2160   -1.3100   -1.4700 c1        1 5DM      0.304000
      3 N1          0.0340   -0.7840   -0.8360 n3        1 5DM     -0.287000
      4 SD         -0.3090   -5.5490   -1.4760 ss        1 5DM     -0.017000
      5 CE         -1.3870   -6.9400   -1.2530 c3        1 5DM     -0.321000
      6 CA1        -0.9040   -1.8470   -0.9460 c2        1 5DM     -0.114000
      7 CB1        -0.3720   -2.8940   -1.8990 c3        1 5DM     -0.133000
      8 CG1        -1.2720   -4.1120   -1.8670 c3        1 5DM     -0.259000
      9 C          -0.2270   -0.0420    0.3510 c3        1 5DM     -0.105000
     10 N           0.1630    1.8750   -1.0330 n3        1 5DM     -0.343000
     11 CA          0.4260    1.3170    0.2490 c3        1 5DM     -0.044000
     12 CB         -0.1350    2.2260    1.3180 c3        1 5DM     -0.122000
     13 CG          0.9020    3.2570    1.6960 c2        1 5DM     -0.046000
     14 CZ          2.6690    5.2590    2.4360 c1        1 5DM     -0.142500
     15 CD1         1.3640    3.3260    3.0000 c2        1 5DM     -0.138000
     16 CD2         1.3240    4.1890    0.7610 c1        1 5DM     -0.101000
     17 CE1         2.2480    4.3270    3.3700 c1        1 5DM     -0.141000
     18 CE2         2.2070    5.1900    1.1310 c1        1 5DM     -0.142500
     19 HN1        -0.0430   -0.2340   -1.5630 hn        1 5DM      0.153000
     20 HE         -1.8520   -7.1310   -2.0940 h1        1 5DM      0.098333
     21 HEA        -0.8600   -7.7220   -0.9870 h1        1 5DM      0.098333
     22 HEB        -2.0440   -6.7360   -0.5550 h1        1 5DM      0.098333
     23 HA1        -1.0460   -2.2500   -0.0660 h4        1 5DM      0.085000
     24 HB1        -0.3500   -2.5280   -2.8060 hc        1 5DM      0.079000
     25 HB1A        0.5330   -3.1500   -1.6300 hc        1 5DM      0.079000
     26 HG1        -1.6930   -4.2290   -2.7420 h1        1 5DM      0.129500
     27 HG1A       -1.9640   -3.9880   -1.1870 h1        1 5DM      0.129500
     28 H           0.1380   -0.5220    1.1230 h1        1 5DM      0.069500
     29 HA         -1.1940    0.0670    0.4620 h1        1 5DM      0.069500
     30 HN         -0.0450    2.7620   -0.9440 hn        1 5DM      0.166000
     31 HNA         0.9050    1.7860   -1.5630 hn        1 5DM      0.166000
     32 HAA         1.3910    1.2260    0.3730 h1        1 5DM      0.087000
     33 HB         -0.3700    1.6960    2.1050 hc        1 5DM      0.084000
     34 HBA        -0.9330    2.6770    0.9770 hc        1 5DM      0.084000
     35 HZ          3.2680    5.9800    2.7030 ha        1 5DM      0.118500
     36 HD1         1.0830    2.6570    3.6540 ha        1 5DM      0.124000
     37 HD2         1.0130    4.1300   -0.1610 ha        1 5DM      0.154000
     38 HE1         2.5730    4.3750    4.2890 ha        1 5DM      0.116000
     39 HE2         2.5040    5.8460    0.4730 ha        1 5DM      0.118500
     40 OXT        -2.2580   -0.7320   -2.5880 o         1 5DM     -0.578000
@<TRIPOS>BOND
     1    1    2 1   
     2    2   40 1   
     3    3    6 1   
     4    3    9 1   
     5    3   19 1   
     6    4    5 1   
     7    4    8 1   
     8    5   20 1   
     9    5   21 1   
    10    5   22 1   
    11    6    7 1   
    12    6   23 1   
    13    7    8 1   
    14    7   24 1   
    15    7   25 1   
    16    8   26 1   
    17    8   27 1   
    18    9   11 1   
    19    9   28 1   
    20    9   29 1   
    21   10   11 1   
    22   10   30 1   
    23   10   31 1   
    24   11   12 1   
    25   11   32 1   
    26   12   13 1   
    27   12   33 1   
    28   12   34 1   
    29   13   15 1   
    30   13   16 1   
    31   14   18 1   
    32   14   35 1   
    33   15   17 1   
    34   15   36 1   
    35   16   37 1   
    36   17   38 1   
    37   18   39 1   
@<TRIPOS>SUBSTRUCTURE
     1 5DM         1 TEMP              0 ****  ****    0 ROOT
