@<TRIPOS>MOLECULE
5DQ
   46    45     1     0     0
SMALL
bcc


@<TRIPOS>ATOM
      1 C1          5.5310   -0.8890   -1.0320 c1        1 5DQ     -0.096000
      2 C5         -1.1530   -0.8370    0.5480 c2        1 5DQ     -0.154000
      3 C2          4.5590   -0.6040   -0.3950 c1        1 5DQ     -0.163000
      4 C4          2.2020   -0.6480   -0.0050 c1        1 5DQ      0.296000
      5 C13        -7.4860    0.2460    2.3500 c2        1 5DQ      0.061000
      6 C14        -7.1130    1.5240    2.4000 c1        1 5DQ     -0.003000
      7 C6         -1.8710    0.2840    0.4600 c2        1 5DQ     -0.142000
      8 C3          3.4260   -0.2640    0.3600 c2        1 5DQ     -0.325000
      9 C10        -5.0980   -0.0140    2.1390 c2        1 5DQ     -0.101000
     10 C12        -6.2960   -0.5710    2.8240 c3        1 5DQ     -0.648000
     11 C9         -4.9570    1.4140    1.9050 c2        1 5DQ     -0.112000
     12 C7         -3.1660    0.4910    1.0960 c2        1 5DQ      0.049000
     13 C22        -7.2860    6.2370    3.9360 c1        1 5DQ     -0.224500
     14 C23        -7.6170    5.8090    5.0030 c1        1 5DQ     -0.224500
     15 C21        -5.7130    3.0450    3.6310 c3        1 5DQ     -0.095000
     16 C24        -5.3440    3.0710    6.0790 c3        1 5DQ     -0.236000
     17 C20        -5.8960    2.2050    4.9490 c3        1 5DQ      0.028000
     18 C25         3.6750    0.5700    1.6250 c3        1 5DQ      0.502000
     19 N15        -6.0150    2.2230    2.4540 nh        1 5DQ      0.094000
     20 N11        -3.9530   -0.5690    1.6260 na        1 5DQ     -0.129000
     21 N8         -3.7740    1.7110    1.2520 n2        1 5DQ     -0.048000
     22 N19        -5.2940    0.8930    4.8760 n3        1 5DQ     -0.900000
     23 O17        -7.3110   -0.5390    5.1820 o         1 5DQ     -0.872500
     24 O18        -5.1280   -1.5690    4.8870 o         1 5DQ     -0.872500
     25 F26         4.2480    1.7900    1.3870 f         1 5DQ     -0.151667
     26 F27         2.5220    0.8640    2.3190 f         1 5DQ     -0.151667
     27 F28         4.4820   -0.0380    2.5480 f         1 5DQ     -0.151667
     28 H1         -1.5090    1.1600   -0.1120 ha        1 5DQ      0.181000
     29 H2          6.3970   -1.1400   -1.5960 ha        1 5DQ      0.244000
     30 H5         -0.1700   -0.9240    0.0490 ha        1 5DQ      0.142500
     31 H4         -1.4580   -1.7300    1.1100 ha        1 5DQ      0.142500
     32 H13        -6.4860   -1.6430    2.5500 h1        1 5DQ      0.215000
     33 H14        -8.4510   -0.1910    2.0690 ha        1 5DQ      0.233000
     34 H11        -3.7100   -1.5310    1.6280 hn        1 5DQ      0.293000
     35 H231       -4.2520    3.2650    5.9480 hc        1 5DQ      0.112000
     36 H232       -7.9310    5.4610    5.9560 ha        1 5DQ      0.227500
     37 H211       -2.8120    4.0840    4.4650 ha        1 5DQ      0.001500
     38 H212       -4.6530    3.4160    3.5310 h1        1 5DQ      0.168500
     39 H241       -2.3730    4.5050    4.1660 ha        1 5DQ      0.001500
     40 H242       -5.8870    4.0500    6.0820 hc        1 5DQ      0.112000
     41 H20        -5.5050    2.5730    7.0660 hc        1 5DQ      0.112000
     42 H19        -7.0090    2.0610    5.1170 h1        1 5DQ      0.131000
     43 H221       -6.4180    3.9280    3.6660 h1        1 5DQ      0.168500
     44 H192       -4.3050    0.9260    5.0170 hn        1 5DQ      0.269000
     45 S16        -6.0190   -0.5220    4.6680 s6        1 5DQ      2.790000
     46 H222       -7.0010    6.6450    2.9970 ha        1 5DQ      0.227500
@<TRIPOS>BOND
     1    1    3 1   
     2    1   29 1   
     3    2    7 1   
     4    2   30 1   
     5    2   31 1   
     6    3    8 1   
     7    4    8 1   
     8    5    6 1   
     9    5   10 1   
    10    5   33 1   
    11    6   19 1   
    12    7   12 1   
    13    7   28 1   
    14    8   18 1   
    15    9   10 1   
    16    9   11 1   
    17    9   20 1   
    18   10   32 1   
    19   10   45 1   
    20   11   19 1   
    21   11   21 1   
    22   12   20 1   
    23   12   21 1   
    24   13   14 1   
    25   13   46 1   
    26   14   36 1   
    27   15   17 1   
    28   15   19 1   
    29   15   38 1   
    30   15   43 1   
    31   16   17 1   
    32   16   35 1   
    33   16   40 1   
    34   16   41 1   
    35   17   22 1   
    36   17   42 1   
    37   18   25 1   
    38   18   26 1   
    39   18   27 1   
    40   20   34 1   
    41   22   44 1   
    42   22   45 1   
    43   23   45 1   
    44   24   45 1   
    45   37   39 1   
@<TRIPOS>SUBSTRUCTURE
     1 5DQ         1 TEMP              0 ****  ****    0 ROOT
