@<TRIPOS>MOLECULE
5DQ
   46    43     1     0     0
SMALL
bcc


@<TRIPOS>ATOM
      1 C1          2.7780   -2.1290    4.7850 c1        1 5DQ     -0.093000
      2 C5         -0.8460   -0.1990   -0.4650 c2        1 5DQ     -0.188000
      3 C2          1.9750   -1.6180    4.0580 c1        1 5DQ     -0.169000
      4 C4          1.1730   -1.1380    1.8680 c1        1 5DQ      0.381000
      5 C13        -6.6150    0.3760    2.5540 c2        1 5DQ      0.018000
      6 C14        -7.8880    0.9630   -1.0100 c1        1 5DQ      0.190000
      7 C6         -1.9620    0.0020   -1.1640 c2        1 5DQ     -0.103000
      8 C3          1.0390   -1.0230    3.1980 c2        1 5DQ     -0.355000
      9 C10        -4.8650    0.7890    0.9320 c2        1 5DQ     -0.125000
     10 C12        -5.5220    1.0700    2.1910 c2        1 5DQ     -0.789000
     11 C9         -5.4370    0.6580   -0.3740 c2        1 5DQ      0.091000
     12 C7         -3.2710    0.2930   -0.5880 c2        1 5DQ      0.031000
     13 C22        -4.2590    2.8520    7.2480 c2        1 5DQ      0.169500
     14 C23        -3.0050    2.2900    7.1860 c2        1 5DQ     -0.305000
     15 C21        -6.7010    5.4300    1.7210 c2        1 5DQ     -0.219000
     16 C24        -2.6170    1.4750    6.1350 c2        1 5DQ      0.169500
     17 C20        -6.2750    4.4550    2.5340 c2        1 5DQ     -0.069000
     18 C25        -0.1000   -0.2570    3.8540 c3        1 5DQ      0.503000
     19 N15        -6.7570    0.8250   -0.6860 n2        1 5DQ     -0.284000
     20 N11        -3.4980    0.5440    0.7740 na        1 5DQ     -0.183000
     21 N8         -4.4300    0.3560   -1.3070 n2        1 5DQ     -0.112000
     22 N19        -5.1480    3.6490    2.3050 n7        1 5DQ     -0.826000
     23 O17        -5.4390    2.3100    4.4170 o         1 5DQ     -0.985500
     24 O18        -3.4510    2.0740    3.2430 o         1 5DQ     -0.985500
     25 F26         0.2780    0.8410    4.5880 f         1 5DQ     -0.170333
     26 F27        -1.0290    0.2490    2.9720 f         1 5DQ     -0.170333
     27 F28        -0.8630   -0.9790    4.7400 f         1 5DQ     -0.170333
     28 H1         -1.9640   -0.0530   -2.2700 ha        1 5DQ      0.174000
     29 H2          3.4920   -2.5830    5.4290 ha        1 5DQ      0.246000
     30 H5          0.1100   -0.4210   -0.9630 ha        1 5DQ      0.119500
     31 H4         -0.7880   -0.1670    0.6320 ha        1 5DQ      0.119500
     32 H13        -7.0170   -0.4550    1.9540 ha        1 5DQ      0.150000
     33 H14        -7.1680    0.6100    3.4800 ha        1 5DQ      0.150000
     34 H11        -2.8200    0.5870    1.4960 hn        1 5DQ      0.280000
     35 H231       -1.4300    2.5410    4.2170 ha        1 5DQ      0.012500
     36 H232       -2.2810    2.4880    8.0030 ha        1 5DQ      0.187000
     37 H211       -5.0270    2.6940    6.4600 ha        1 5DQ      0.186000
     38 H212       -7.5830    6.0290    1.9840 ha        1 5DQ      0.142000
     39 H241       -1.5310    2.9020    4.7870 ha        1 5DQ      0.012500
     40 H242       -1.6230    0.9830    6.1170 ha        1 5DQ      0.186000
     41 H20        -3.2940    1.2530    5.2840 ha        1 5DQ      0.186000
     42 H19        -6.7950    4.2230    3.4870 h4        1 5DQ      0.154000
     43 H221       -6.2160    5.6970    0.7720 ha        1 5DQ      0.142000
     44 H192       -4.5980    3.9250    1.5200 hn        1 5DQ      0.270000
     45 S16        -4.8540    2.3010    3.1120 s6        1 5DQ      2.845000
     46 H222       -4.5530    3.4870    8.1030 ha        1 5DQ      0.186000
@<TRIPOS>BOND
     1    1    3 1   
     2    1   29 1   
     3    2    7 1   
     4    2   30 1   
     5    2   31 1   
     6    3    8 1   
     7    4    8 1   
     8    5   10 1   
     9    5   32 1   
    10    5   33 1   
    11    6   19 1   
    12    7   12 1   
    13    7   28 1   
    14    8   18 1   
    15    9   10 1   
    16    9   11 1   
    17    9   20 1   
    18   10   45 1   
    19   11   19 1   
    20   11   21 1   
    21   12   20 1   
    22   12   21 1   
    23   13   14 1   
    24   13   37 1   
    25   13   46 1   
    26   14   16 1   
    27   14   36 1   
    28   15   17 1   
    29   15   38 1   
    30   15   43 1   
    31   16   40 1   
    32   16   41 1   
    33   17   22 1   
    34   17   42 1   
    35   18   25 1   
    36   18   26 1   
    37   18   27 1   
    38   20   34 1   
    39   22   44 1   
    40   22   45 1   
    41   23   45 1   
    42   24   45 1   
    43   35   39 1   
@<TRIPOS>SUBSTRUCTURE
     1 5DQ         1 TEMP              0 ****  ****    0 ROOT
