@<TRIPOS>MOLECULE
5DR
   51    52     1     0     0
SMALL
bcc


@<TRIPOS>ATOM
      1 N1          1.4040   -1.2290    0.5670 nc        1 5DR     -0.745000
      2 C2          2.1090   -0.1050    0.2800 cd        1 5DR      0.722200
      3 N3          2.0980    1.1040    0.9140 nd        1 5DR     -0.704000
      4 C4          1.2620    1.2010    1.9850 cc        1 5DR      0.591600
      5 C5          0.4640    0.1080    2.4070 cc        1 5DR     -0.381300
      6 C6          0.5530   -1.1360    1.6590 cc        1 5DR      0.607600
      7 CAA         0.6660    3.6230    1.8520 c3        1 5DR     -0.099100
      8 CAB        -4.5050   -4.2990    5.3250 c3        1 5DR      0.109700
      9 NAC         3.0300   -0.2060   -0.8980 n4        1 5DR     -0.782600
     10 NAD        -0.1820   -2.2240    2.0030 nh        1 5DR     -0.469100
     11 CAE        -1.1200    0.3080    4.4600 c1        1 5DR     -0.085900
     12 CAF        -0.3910    0.2060    3.5090 c1        1 5DR      0.042100
     13 CAG        -6.7760   -1.3210   10.9360 ca        1 5DR     -0.058000
     14 CAH        -5.6840   -2.1100   10.5680 ca        1 5DR     -0.122500
     15 CAI        -6.9670   -0.0730   10.3380 ca        1 5DR     -0.122500
     16 CAJ        -4.7890   -1.6610    9.6020 ca        1 5DR     -0.084000
     17 CAK        -6.0670    0.3910    9.3830 ca        1 5DR     -0.084000
     18 CAL        -3.6660    1.4390    8.0500 cc        1 5DR     -0.078000
     19 CAM        -2.8040    2.1500    7.2370 cc        1 5DR     -0.034000
     20 CAN        -3.5390   -0.8520    7.0630 cd        1 5DR     -0.072000
     21 CAO         1.2210    2.5160    2.7150 c3        1 5DR     -0.126700
     22 CAP        -1.9700    0.4570    5.5800 cc        1 5DR      0.057900
     23 OAS        -3.3450   -3.6980    5.8730 oh        1 5DR     -0.658800
     24 CAV        -4.9680   -0.4010    9.0020 ca        1 5DR     -0.158800
     25 CAW        -4.0220    0.0810    8.0000 cd        1 5DR      0.136800
     26 CAX        -2.6550   -0.6950    6.0180 cc        1 5DR     -0.038000
     27 CAZ        -2.0500    1.7300    6.1440 cd        1 5DR     -0.060000
     28 HAA         1.3220    3.8130    0.9680 hc        1 5DR      0.059033
     29 HAAA       -0.3600    3.3740    1.4880 hc        1 5DR      0.059033
     30 HAAB        0.6100    4.5650    2.4520 hc        1 5DR      0.059033
     31 HAB        -4.2270   -5.0520    4.5470 h1        1 5DR      0.045033
     32 HABA       -5.1130   -4.7860    6.1280 h1        1 5DR      0.045033
     33 HABB       -5.0810   -3.4590    4.8620 h1        1 5DR      0.045033
     34 HNAC        2.9920   -1.1520   -1.3020 hn        1 5DR      0.487467
     35 HNAA        2.7430    0.4840   -1.6050 hn        1 5DR      0.487467
     36 HNAD       -1.4290    2.5190    5.6620 ha        1 5DR      0.173000
     37 HNAB       -0.1230   -3.0760    1.4900 hn        1 5DR      0.316700
     38 HAG        -7.4870   -1.6810   11.6990 ha        1 5DR      0.168000
     39 HAH        -5.5290   -3.0910   11.0460 ha        1 5DR      0.164500
     40 HAI        -7.8320    0.5480   10.6230 ha        1 5DR      0.164500
     41 HAJ        -3.9230   -2.2860    9.3330 ha        1 5DR      0.140000
     42 HAK        -6.2380    1.3700    8.9090 ha        1 5DR      0.140000
     43 HAL        -4.1350    2.0270    8.8750 ha        1 5DR      0.187000
     44 HAM        -2.6880    3.2290    7.4970 ha        1 5DR      0.181000
     45 HAN        -3.9430   -1.8920    7.1640 ha        1 5DR      0.202000
     46 HAO         0.5960    2.4030    3.6400 hc        1 5DR      0.079700
     47 HAOA        2.2640    2.7820    3.0450 hc        1 5DR      0.079700
     48 HAP        -2.8300   -4.4020    6.2870 ho        1 5DR      0.417000
     49 HAPA       -2.4630   -1.6270    5.4340 ha        1 5DR      0.189000
     50 HAC3        3.9900    0.0010   -0.5910 hn        1 5DR      0.487467
     51 HAD3       -0.7990   -2.1700    2.7790 hn        1 5DR      0.316700
@<TRIPOS>BOND
     1    1    2 2   
     2    1    6 1   
     3    2    3 1   
     4    2    9 1   
     5    3    4 2   
     6    4    5 1   
     7    4   21 1   
     8    5    6 1   
     9    5   12 2   
    10    6   10 2   
    11    7   21 1   
    12    7   28 1   
    13    7   29 1   
    14    7   30 1   
    15    8   23 1   
    16    8   31 1   
    17    8   32 1   
    18    8   33 1   
    19    9   34 1   
    20    9   35 1   
    21    9   50 1   
    22   10   37 1   
    23   10   51 1   
    24   11   12 2   
    25   11   22 2   
    26   13   14 ar  
    27   13   15 ar  
    28   13   38 1   
    29   14   16 ar  
    30   14   39 1   
    31   15   17 ar  
    32   15   40 1   
    33   16   24 ar  
    34   16   41 1   
    35   17   24 ar  
    36   17   42 1   
    37   18   19 1   
    38   18   25 2   
    39   18   43 1   
    40   19   27 2   
    41   19   44 1   
    42   20   25 1   
    43   20   26 2   
    44   20   45 1   
    45   21   46 1   
    46   21   47 1   
    47   22   26 1   
    48   22   27 1   
    49   23   48 1   
    50   24   25 1   
    51   26   49 1   
    52   27   36 1   
@<TRIPOS>SUBSTRUCTURE
     1 5DR         1 TEMP              0 ****  ****    0 ROOT
