@<TRIPOS>MOLECULE
5DR
   49    50     1     0     0
SMALL
bcc


@<TRIPOS>ATOM
      1 N1         -0.2760   -0.2460   -0.1270 n2        1 5DR     -0.316000
      2 C2          0.9580   -0.6450    0.3530 c2        1 5DR      0.213000
      3 N3          1.3620   -0.6230    1.6850 n2        1 5DR     -0.280000
      4 C4          0.4760   -0.1020    2.5660 c2        1 5DR      0.044000
      5 C5         -0.8230    0.3510    2.1880 c2        1 5DR     -0.221000
      6 C6         -1.1650    0.2400    0.7940 c2        1 5DR      0.237000
      7 CAA         3.2490   -0.7310    4.4610 c3        1 5DR     -0.286000
      8 CAB        -6.4610    3.5280    7.1160 c3        1 5DR     -0.076000
      9 NAC         1.8970   -1.0650   -0.5870 nv        1 5DR     -0.335000
     10 NAD        -2.4370    0.5780    0.3730 nv        1 5DR     -0.347000
     11 CAE        -2.4760    1.3240    3.9360 c1        1 5DR     -0.165000
     12 CAF        -1.7070    0.8730    3.1310 c1        1 5DR     -0.116000
     13 CAG        -5.7930   -5.2500    4.3300 ca        1 5DR     -0.129000
     14 CAH        -5.3400   -4.3090    3.4060 ca        1 5DR     -0.130000
     15 CAI        -6.1970   -4.8370    5.5990 ca        1 5DR     -0.130000
     16 CAJ        -5.2910   -2.9590    3.7480 ca        1 5DR     -0.121000
     17 CAK        -6.1520   -3.4880    5.9440 ca        1 5DR     -0.121000
     18 CAL        -6.6760   -0.5430    6.1370 ca        1 5DR     -0.087000
     19 CAM        -6.6330    0.8060    6.4820 ca        1 5DR     -0.202000
     20 CAN        -4.5690   -0.3220    4.9730 ca        1 5DR     -0.082000
     21 CAO         0.8510    0.1450    3.9300 c1        1 5DR      0.069000
     22 CAP        -3.3610    1.9000    4.9020 c3        1 5DR     -0.004000
     23 OAS        -5.4100    2.9340    6.3620 os        1 5DR     -0.214000
     24 CAV        -5.6970   -2.5350    5.0210 cp        1 5DR     -0.032000
     25 CAW        -5.6490   -1.1200    5.3820 cq        1 5DR     -0.068000
     26 CAX        -4.5010    1.0280    5.3050 ca        1 5DR     -0.095000
     27 CAZ        -5.5500    1.5900    6.0710 ca        1 5DR      0.077000
     28 HAA         2.7090   -1.5920    4.0100 hc        1 5DR      0.079250
     29 HAAA        2.9900   -0.6430    5.5380 hc        1 5DR      0.079250
     30 HAAB        4.3440   -0.8970    4.3550 hc        1 5DR      0.079250
     31 HAB        -7.4290    3.4620    6.5630 h1        1 5DR      0.084667
     32 HABA       -6.5480    3.0450    8.1190 h1        1 5DR      0.084667
     33 HABB       -6.1360    4.5940    7.2180 h1        1 5DR      0.084667
     34 HNAC        2.7000   -1.5420   -0.2530 hn        1 5DR      0.229500
     35 HNAA        1.5690   -1.2970   -1.4940 hn        1 5DR      0.229500
     36 HNAD       -2.9850    1.1220    0.9960 hn        1 5DR      0.230000
     37 HNAB       -2.6190    0.6590   -0.5980 hn        1 5DR      0.230000
     38 HAG        -5.8300   -6.3150    4.0590 ha        1 5DR      0.131000
     39 HAH        -5.0200   -4.6310    2.4040 ha        1 5DR      0.131500
     40 HAI        -6.5530   -5.5770    6.3310 ha        1 5DR      0.131500
     41 HAJ        -4.9370   -2.2190    3.0130 ha        1 5DR      0.135000
     42 HAK        -6.4650   -3.1680    6.9490 ha        1 5DR      0.135000
     43 HAL        -7.5310   -1.1570    6.4580 ha        1 5DR      0.137000
     44 HAM        -7.4510    1.2390    7.0740 ha        1 5DR      0.138000
     45 HAN        -3.7550   -0.7730    4.3810 ha        1 5DR      0.149000
     46 HAO         2.9890    0.2180    3.9290 hc        1 5DR      0.079250
     47 HAOA        0.6190   -0.5970    4.7020 ha        1 5DR      0.099000
     48 HAP        -2.7730    2.1680    5.8290 hc        1 5DR      0.118000
     49 HAPA       -3.7750    2.8690    4.4940 hc        1 5DR      0.118000
@<TRIPOS>BOND
     1    1    2 1   
     2    1    6 1   
     3    2    3 1   
     4    2    9 1   
     5    3    4 1   
     6    4    5 1   
     7    4   21 1   
     8    5    6 1   
     9    5   12 1   
    10    6   10 1   
    11    7   28 1   
    12    7   29 1   
    13    7   30 1   
    14    7   46 1   
    15    8   23 1   
    16    8   31 1   
    17    8   32 1   
    18    8   33 1   
    19    9   34 1   
    20    9   35 1   
    21   10   36 1   
    22   10   37 1   
    23   11   12 1   
    24   11   22 1   
    25   13   14 1   
    26   13   15 1   
    27   13   38 1   
    28   14   16 1   
    29   14   39 1   
    30   15   17 1   
    31   15   40 1   
    32   16   24 1   
    33   16   41 1   
    34   17   24 1   
    35   17   42 1   
    36   18   19 1   
    37   18   25 1   
    38   18   43 1   
    39   19   27 1   
    40   19   44 1   
    41   20   25 1   
    42   20   26 1   
    43   20   45 1   
    44   21   47 1   
    45   22   26 1   
    46   22   48 1   
    47   22   49 1   
    48   23   27 1   
    49   24   25 1   
    50   26   27 1   
@<TRIPOS>SUBSTRUCTURE
     1 5DR         1 TEMP              0 ****  ****    0 ROOT
