@<TRIPOS>MOLECULE
5DR
   49    51     1     0     0
SMALL
bcc


@<TRIPOS>ATOM
      1 N1          3.8990    2.1860   -1.7810 nb        1 5DR     -0.830000
      2 C2          4.6300    2.6070   -0.6870 ca        1 5DR      0.913900
      3 N3          4.6000    2.0280    0.5780 nb        1 5DR     -0.792000
      4 C4          3.7440    1.0030    0.7570 ca        1 5DR      0.537600
      5 C5          2.9220    0.5020   -0.2840 ca        1 5DR     -0.334600
      6 C6          3.0520    1.1290   -1.5790 ca        1 5DR      0.743200
      7 CAA         3.1280    1.3170    3.1560 c3        1 5DR     -0.087100
      8 CAB        -2.4220   -5.6270    0.1090 c3        1 5DR      0.113700
      9 NAC         5.4250    3.7440   -0.8510 nh        1 5DR     -0.930500
     10 NAD         2.3490    0.6330   -2.6590 nh        1 5DR     -0.953500
     11 CAE         1.2490   -1.4550    0.0570 c1        1 5DR     -0.150100
     12 CAF         2.0260   -0.5520   -0.0940 cg        1 5DR     -0.094000
     13 CAG        -4.2770    3.4150   -0.1720 ca        1 5DR     -0.129000
     14 CAH        -4.8830    2.4410   -0.9660 ca        1 5DR     -0.130000
     15 CAI        -3.2280    3.0620    0.6770 ca        1 5DR     -0.130000
     16 CAJ        -4.4430    1.1200   -0.9130 ca        1 5DR     -0.121500
     17 CAK        -2.7840    1.7430    0.7330 ca        1 5DR     -0.121500
     18 CAL        -3.8410   -1.6850   -0.0420 ca        1 5DR     -0.087000
     19 CAM        -3.4020   -3.0060    0.0130 ca        1 5DR     -0.201000
     20 CAN        -1.5540   -0.9110    0.0860 ca        1 5DR     -0.084000
     21 CAO         3.6850    0.3690    2.1230 c3        1 5DR     -0.138700
     22 CAP         0.3590   -2.5600    0.2410 c3        1 5DR      0.057000
     23 OAS        -1.4950   -4.5480    0.1640 os        1 5DR     -0.330900
     24 CAV        -3.3890    0.7580   -0.0620 cp        1 5DR     -0.032000
     25 CAW        -2.9260   -0.6270   -0.0060 cp        1 5DR     -0.068000
     26 CAX        -1.0900   -2.2220    0.1370 ca        1 5DR     -0.101300
     27 CAZ        -2.0330   -3.2760    0.1020 ca        1 5DR      0.122100
     28 HAA         3.0600    0.7990    4.1430 hc        1 5DR      0.040367
     29 HAAA        3.7840    2.2140    3.2700 hc        1 5DR      0.040367
     30 HAAB        2.1060    1.6620    2.8670 hc        1 5DR      0.040367
     31 HAB        -2.9930   -5.6090   -0.8510 h1        1 5DR      0.045367
     32 HABA       -1.7670   -6.5330    0.1630 h1        1 5DR      0.045367
     33 HABB       -3.1190   -5.5920    0.9810 h1        1 5DR      0.045367
     34 HNAC        5.6450    4.0100   -1.7820 hn        1 5DR      0.428800
     35 HNAA        6.1230    3.9050   -0.1640 hn        1 5DR      0.428800
     36 HNAD        2.3190    1.1510   -3.5030 hn        1 5DR      0.436800
     37 HNAB        1.6080    0.0040   -2.4680 hn        1 5DR      0.436800
     38 HAG        -4.6260    4.4570   -0.2150 ha        1 5DR      0.131000
     39 HAH        -5.7090    2.7160   -1.6390 ha        1 5DR      0.132000
     40 HAI        -2.7490    3.8270    1.3050 ha        1 5DR      0.132000
     41 HAJ        -4.9200    0.3570   -1.5460 ha        1 5DR      0.134500
     42 HAK        -1.9600    1.4690    1.4080 ha        1 5DR      0.134500
     43 HAL        -4.9190   -1.4740   -0.1060 ha        1 5DR      0.137000
     44 HAM        -4.1380   -3.8210   -0.0120 ha        1 5DR      0.138000
     45 HAN        -0.8290   -0.0810    0.1130 ha        1 5DR      0.149000
     46 HAO         3.0490   -0.5550    2.0740 hc        1 5DR      0.062700
     47 HAOA        4.7200    0.0490    2.4230 hc        1 5DR      0.062700
     48 HAP         0.5970   -3.3600   -0.5220 hc        1 5DR      0.077200
     49 HAPA        0.5440   -3.0210    1.2560 hc        1 5DR      0.077200
@<TRIPOS>BOND
     1    1    2 ar  
     2    1    6 ar  
     3    2    3 ar  
     4    2    9 1   
     5    3    4 ar  
     6    4    5 ar  
     7    4   21 1   
     8    5    6 ar  
     9    5   12 1   
    10    6   10 1   
    11    7   21 1   
    12    7   28 1   
    13    7   29 1   
    14    7   30 1   
    15    8   23 1   
    16    8   31 1   
    17    8   32 1   
    18    8   33 1   
    19    9   34 1   
    20    9   35 1   
    21   10   36 1   
    22   10   37 1   
    23   11   12 3   
    24   11   22 1   
    25   13   14 ar  
    26   13   15 ar  
    27   13   38 1   
    28   14   16 ar  
    29   14   39 1   
    30   15   17 ar  
    31   15   40 1   
    32   16   24 ar  
    33   16   41 1   
    34   17   24 ar  
    35   17   42 1   
    36   18   19 ar  
    37   18   25 ar  
    38   18   43 1   
    39   19   27 ar  
    40   19   44 1   
    41   20   25 ar  
    42   20   26 ar  
    43   20   45 1   
    44   21   46 1   
    45   21   47 1   
    46   22   26 1   
    47   22   48 1   
    48   22   49 1   
    49   23   27 1   
    50   24   25 1   
    51   26   27 ar  
@<TRIPOS>SUBSTRUCTURE
     1 5DR         1 TEMP              0 ****  ****    0 ROOT
