@<TRIPOS>MOLECULE
5DR
   49    42     1     0     0
SMALL
bcc


@<TRIPOS>ATOM
      1 N1          2.3260    3.4110   -3.4440 n1        1 5DR     -0.281500
      2 C2          3.4910    2.8900   -3.9860 c1        1 5DR      0.207000
      3 N3          4.1500    1.8970   -3.3470 n1        1 5DR     -0.281500
      4 C4          3.6800    1.4160   -2.1910 c1        1 5DR      0.115000
      5 C5          2.5300    1.9290   -1.6550 c1        1 5DR     -0.208000
      6 C6          1.8600    2.9400   -2.3060 c1        1 5DR      0.207000
      7 CAA         5.9930    0.6190   -1.5870 c3        1 5DR     -0.201000
      8 CAB         0.6360   -3.8540    2.1410 c3        1 5DR     -0.076000
      9 NAC         3.9630    3.3620   -5.2390 n3        1 5DR     -0.338500
     10 NAD         0.8500    3.9690   -2.1530 n3        1 5DR     -0.338500
     11 CAE         1.4120    0.7500    0.5330 c1        1 5DR     -0.176000
     12 CAF         1.8990    1.2640   -0.4210 c1        1 5DR     -0.097000
     13 CAG        -6.9170   -0.4450    2.4810 c1        1 5DR     -0.128000
     14 CAH        -6.0810   -1.1460    3.3530 c1        1 5DR     -0.128000
     15 CAI        -6.4210    0.0240    1.2660 c1        1 5DR     -0.128000
     16 CAJ        -4.7510   -1.3770    3.0100 c1        1 5DR     -0.128000
     17 CAK        -5.0800   -0.2080    0.9180 c1        1 5DR     -0.103000
     18 CAL        -2.6030   -2.5390    0.7760 c1        1 5DR     -0.103000
     19 CAM        -1.2900   -2.9380    0.4750 c1        1 5DR     -0.200000
     20 CAN        -1.7620   -0.4180    1.6280 c1        1 5DR     -0.087000
     21 CAO         4.4800    0.3500   -1.4170 c3        1 5DR     -0.122000
     22 CAP         0.7750    0.0780    1.7790 c2        1 5DR     -0.002000
     23 OAS         0.7860   -3.0900    0.9180 os        1 5DR     -0.213000
     24 CAV        -4.2480   -0.9050    1.7870 c1        1 5DR     -0.051000
     25 CAW        -2.8410   -1.2830    1.3510 c1        1 5DR     -0.051000
     26 CAX        -0.4440   -0.8170    1.3260 c2        1 5DR     -0.090000
     27 CAZ        -0.2090   -2.0760    0.7500 c2        1 5DR      0.078000
     28 HAA         6.3020    0.2090   -2.4140 hc        1 5DR      0.079000
     29 HAAA        6.4790    0.2380   -0.8340 hc        1 5DR      0.079000
     30 HAAB        6.1500    1.5820   -1.6220 hc        1 5DR      0.079000
     31 HAB         1.5030   -3.9070    2.6060 h1        1 5DR      0.085000
     32 HABA       -0.0190   -3.4120    2.7200 h1        1 5DR      0.085000
     33 HABB        0.3250   -4.7570    1.9260 h1        1 5DR      0.085000
     34 HNAC        3.7210    4.2000   -5.5360 hn        1 5DR      0.227000
     35 HNAA        4.4850    2.8380   -5.7490 hn        1 5DR      0.227000
     36 HNAD        0.4810    4.1410   -1.3110 hn        1 5DR      0.227000
     37 HNAB        0.5410    4.4280   -2.8950 hn        1 5DR      0.227000
     38 HAG        -7.8500   -0.2840    2.7220 ha        1 5DR      0.132250
     39 HAH        -6.4340   -1.4790    4.2140 ha        1 5DR      0.132250
     40 HAI        -7.0050    0.5130    0.6590 ha        1 5DR      0.132250
     41 HAJ        -4.1650   -1.8710    3.6260 ha        1 5DR      0.132250
     42 HAK        -4.7260    0.1270    0.0520 ha        1 5DR      0.137500
     43 HAL        -3.3510   -3.1380    0.5850 ha        1 5DR      0.137500
     44 HAM        -1.1280   -3.8020    0.0800 ha        1 5DR      0.139000
     45 HAN        -1.9260    0.4460    2.0230 ha        1 5DR      0.145000
     46 HAO         4.2440    0.3900   -0.4620 hc        1 5DR      0.103000
     47 HAOA        4.2670   -0.5350   -1.7670 hc        1 5DR      0.103000
     48 HAP         0.4620    0.7690    2.3980 ha        1 5DR      0.116000
     49 HAPA        1.4580   -0.4950    2.2360 ha        1 5DR      0.116000
@<TRIPOS>BOND
     1    1    6 1   
     2    2    3 1   
     3    2    9 1   
     4    4    5 1   
     5    4   21 1   
     6    5   12 1   
     7    6   10 1   
     8    7   21 1   
     9    7   28 1   
    10    7   29 1   
    11    7   30 1   
    12    8   23 1   
    13    8   31 1   
    14    8   32 1   
    15    8   33 1   
    16    9   34 1   
    17    9   35 1   
    18   10   36 1   
    19   10   37 1   
    20   11   12 1   
    21   13   15 1   
    22   13   38 1   
    23   14   16 1   
    24   14   39 1   
    25   15   40 1   
    26   16   41 1   
    27   17   24 1   
    28   17   42 1   
    29   18   25 1   
    30   18   43 1   
    31   19   27 1   
    32   19   44 1   
    33   20   26 1   
    34   20   45 1   
    35   21   46 1   
    36   21   47 1   
    37   22   26 1   
    38   22   48 1   
    39   22   49 1   
    40   23   27 1   
    41   24   25 1   
    42   26   27 1   
@<TRIPOS>SUBSTRUCTURE
     1 5DR         1 TEMP              0 ****  ****    0 ROOT
