@<TRIPOS>MOLECULE
5DS
   27    27     1     0     0
SMALL
bcc


@<TRIPOS>ATOM
      1 C1          0.3600    0.4900    0.0070 c3        1 5DS      0.155100
      2 N1          1.6390   -0.1500   -0.2440 nh        1 5DS     -0.613300
      3 C2          2.0630   -1.1890    0.6720 c3        1 5DS      0.155100
      4 C3          2.4030    0.2000   -1.2810 cc        1 5DS      0.654300
      5 S1          3.9490   -0.4760   -1.6960 ss        1 5DS     -0.052800
      6 N2          2.0260    1.2230   -2.2480 nd        1 5DS     -0.290000
      7 N3          2.8730    1.3800   -3.1390 nd        1 5DS     -0.254000
      8 C4          4.0030    0.5510   -3.0570 cc        1 5DS     -0.081300
      9 C5          5.0700    0.7030   -4.0440 c3        1 5DS      0.040000
     10 N4          5.6910    2.0680   -3.9540 n4        1 5DS     -0.819600
     11 S2          4.1190    0.3930   -5.5510 s6        1 5DS      1.302900
     12 O2          4.0320    1.5970   -6.2120 o         1 5DS     -0.491800
     13 O3          3.1770   -0.5930   -5.4430 o         1 5DS     -0.491800
     14 N5          5.4140   -0.5040   -6.5740 n4        1 5DS     -0.816500
     15 H11        -0.3520    0.2580   -0.8320 h1        1 5DS      0.097033
     16 H12        -0.0610    0.1040    0.9750 h1        1 5DS      0.097033
     17 H13         0.4930    1.6050    0.0790 h1        1 5DS      0.097033
     18 H21         2.3570   -0.7200    1.6530 h1        1 5DS      0.097033
     19 H22         2.9340   -1.7640    0.2550 h1        1 5DS      0.097033
     20 H23         1.2050   -1.8970    0.8450 h1        1 5DS      0.097033
     21 H5          5.8850   -0.0500   -3.8330 hx        1 5DS      0.151700
     22 HN41        5.7950    2.3120   -2.9570 hn        1 5DS      0.478467
     23 HN42        5.0740    2.7750   -4.3880 hn        1 5DS      0.478467
     24 HN51        5.0370   -1.4070   -6.8930 hn        1 5DS      0.477800
     25 HN52        6.2920   -0.7110   -6.1040 hn        1 5DS      0.477800
     26 H43         6.6110    2.1000   -4.4010 hn        1 5DS      0.478467
     27 H53         5.6430    0.0280   -7.4210 hn        1 5DS      0.477800
@<TRIPOS>BOND
     1    1    2 1   
     2    1   15 1   
     3    1   16 1   
     4    1   17 1   
     5    2    3 1   
     6    2    4 1   
     7    3   18 1   
     8    3   19 1   
     9    3   20 1   
    10    4    5 1   
    11    4    6 2   
    12    5    8 1   
    13    6    7 1   
    14    7    8 2   
    15    8    9 1   
    16    9   10 1   
    17    9   11 1   
    18    9   21 1   
    19   10   22 1   
    20   10   23 1   
    21   10   26 1   
    22   11   12 2   
    23   11   13 2   
    24   11   14 1   
    25   14   24 1   
    26   14   25 1   
    27   14   27 1   
@<TRIPOS>SUBSTRUCTURE
     1 5DS         1 TEMP              0 ****  ****    0 ROOT
