@<TRIPOS>MOLECULE
5DS
   27    27     1     0     0
SMALL
bcc


@<TRIPOS>ATOM
      1 C1          0.3190    0.4600   -0.0370 c3        1 5DS      0.155600
      2 N1          1.6020   -0.1770   -0.2750 nh        1 5DS     -0.613300
      3 C2          2.0100   -1.2280    0.6360 c3        1 5DS      0.155600
      4 C3          2.3770    0.1740   -1.3020 cc        1 5DS      0.654300
      5 S1          3.9130   -0.5220   -1.7200 ss        1 5DS     -0.052800
      6 N2          2.0270    1.2230   -2.2510 nd        1 5DS     -0.290000
      7 N3          2.8880    1.3890   -3.1270 nd        1 5DS     -0.254000
      8 C4          4.0050    0.5420   -3.0500 cc        1 5DS     -0.081300
      9 C5          5.0890    0.7050   -4.0150 c3        1 5DS      0.040000
     10 N4          5.7260    2.0590   -3.8820 nz        1 5DS     -0.819600
     11 S2          4.1570    0.4460   -5.5430 s6        1 5DS      1.304900
     12 O2          4.0970    1.6660   -6.1750 o         1 5DS     -0.492300
     13 O3          3.2010   -0.5300   -5.4750 o         1 5DS     -0.492300
     14 N5          5.4560   -0.4440   -6.5680 nz        1 5DS     -0.816500
     15 H11         0.4740    1.5460    0.2110 h1        1 5DS      0.097033
     16 H12        -0.3270    0.3820   -0.9550 h1        1 5DS      0.097033
     17 H13        -0.1930   -0.0510    0.8220 h1        1 5DS      0.097033
     18 H21         1.3810   -2.1430    0.4520 h1        1 5DS      0.097033
     19 H22         1.8490   -0.8770    1.6940 h1        1 5DS      0.097033
     20 H23         3.0950   -1.4840    0.4970 h1        1 5DS      0.097033
     21 H5          5.8910   -0.0630   -3.8120 hx        1 5DS      0.152700
     22 HN41        5.8180    2.2770   -2.8770 hn        1 5DS      0.478467
     23 HN42        6.6530    2.0900   -4.3140 hn        1 5DS      0.478467
     24 HN51        5.0720   -1.3330   -6.9160 hn        1 5DS      0.477800
     25 HN52        6.3240   -0.6740   -6.0900 hn        1 5DS      0.477800
     26 H43         5.1250    2.7850   -4.3080 hn        1 5DS      0.478467
     27 H53         5.7060    0.1050   -7.3980 hn        1 5DS      0.477800
@<TRIPOS>BOND
     1    1    2 1   
     2    1   15 1   
     3    1   16 1   
     4    1   17 1   
     5    2    3 1   
     6    2    4 1   
     7    3   18 1   
     8    3   19 1   
     9    3   20 1   
    10    4    5 1   
    11    4    6 2   
    12    5    8 1   
    13    6    7 1   
    14    7    8 2   
    15    8    9 1   
    16    9   10 1   
    17    9   11 1   
    18    9   21 1   
    19   10   22 1   
    20   10   23 1   
    21   10   26 1   
    22   11   12 2   
    23   11   13 2   
    24   11   14 1   
    25   14   24 1   
    26   14   25 1   
    27   14   27 1   
@<TRIPOS>SUBSTRUCTURE
     1 5DS         1 TEMP              0 ****  ****    0 ROOT
