@<TRIPOS>MOLECULE
5DS
   28    28     1     0     0
SMALL
bcc


@<TRIPOS>ATOM
      1 C1          0.1680    0.0460   -0.5160 c3        1 5DS      0.073600
      2 N1          1.5650    0.3370   -0.0460 n4        1 5DS     -0.640100
      3 C2          2.0460   -0.7290    0.8820 c3        1 5DS      0.073600
      4 C3          2.4740    0.5250   -1.1730 cc        1 5DS      0.342300
      5 S1          3.7740   -0.4560   -1.6290 ss        1 5DS      0.363200
      6 N2          2.3130    1.6260   -2.0330 nd        1 5DS     -0.188000
      7 N3          3.1750    1.6410   -2.9560 nd        1 5DS     -0.284000
      8 C4          4.0750    0.5700   -2.9110 cc        1 5DS      0.068700
      9 C5          5.1200    0.5370   -3.9780 c3        1 5DS     -0.016000
     10 N4          6.0780    1.6690   -3.8010 n4        1 5DS     -0.810600
     11 S2          4.1180    0.6230   -5.5470 s6        1 5DS      1.341900
     12 O2          4.3550    1.8830   -6.0220 o         1 5DS     -0.464800
     13 O3          2.9810   -0.1040   -5.3550 o         1 5DS     -0.464800
     14 N5          5.0820   -0.4400   -6.6870 n4        1 5DS     -0.840500
     15 H11        -0.2050    0.8970   -1.1500 hx        1 5DS      0.131033
     16 H12         0.1520   -0.9110   -1.1000 hx        1 5DS      0.131033
     17 H13        -0.4890   -0.0550    0.3960 hx        1 5DS      0.131033
     18 H21         2.0370   -1.7260    0.3640 hx        1 5DS      0.131033
     19 H22         1.3380   -0.7760    1.7630 hx        1 5DS      0.131033
     20 H23         3.0730   -0.4780    1.2610 hx        1 5DS      0.131033
     21 H5          5.7100   -0.4240   -3.8870 hx        1 5DS      0.158700
     22 HN41        6.3310    1.7670   -2.8050 hn        1 5DS      0.495133
     23 HN42        5.6480    2.5640   -4.1070 hn        1 5DS      0.495133
     24 HN51        4.4820   -1.1830   -7.0900 hn        1 5DS      0.503800
     25 HN52        5.8950   -0.9260   -6.3010 hn        1 5DS      0.503800
     26 H111        1.5320    1.2360    0.4830 hn        1 5DS      0.503800
     27 H43         6.9430    1.5150   -4.3360 hn        1 5DS      0.495133
     28 H53         5.4300    0.0970   -7.5020 hn        1 5DS      0.503800
@<TRIPOS>BOND
     1    1    2 1   
     2    1   15 1   
     3    1   16 1   
     4    1   17 1   
     5    2    3 1   
     6    2    4 1   
     7    2   26 1   
     8    3   18 1   
     9    3   19 1   
    10    3   20 1   
    11    4    5 1   
    12    4    6 2   
    13    5    8 1   
    14    6    7 1   
    15    7    8 2   
    16    8    9 1   
    17    9   10 1   
    18    9   11 1   
    19    9   21 1   
    20   10   22 1   
    21   10   23 1   
    22   10   27 1   
    23   11   12 2   
    24   11   13 2   
    25   11   14 1   
    26   14   24 1   
    27   14   25 1   
    28   14   28 1   
@<TRIPOS>SUBSTRUCTURE
     1 5DS         1 TEMP              0 ****  ****    0 ROOT
