@<TRIPOS>MOLECULE
5DS
   25    23     1     0     0
SMALL
bcc


@<TRIPOS>ATOM
      1 C1         -1.5760   -1.6520    3.4330 c3        1 5DS     -0.102500
      2 N1         -0.8990   -0.5310    2.8570 n3        1 5DS     -0.205000
      3 C2         -0.8090    0.7390    3.5980 c3        1 5DS     -0.102500
      4 C3         -0.2990   -0.6480    1.6120 c2        1 5DS     -0.174000
      5 S1         -0.6900    0.1460    0.3320 ss        1 5DS      0.468000
      6 N2          0.8010   -1.4590    1.2970 n2        1 5DS     -0.116000
      7 N3          1.1770   -1.2180   -0.2380 n2        1 5DS     -0.012000
      8 C4          0.2730   -0.2610   -0.7760 c1        1 5DS     -0.414000
      9 C5          0.1880    0.1670   -2.2230 c2        1 5DS     -0.561000
     10 N4          0.0890   -0.9510   -3.0320 n3        1 5DS     -0.314000
     11 S2          1.6780    1.1080   -2.6700 s4        1 5DS      2.021800
     12 O2          2.1390    1.9160   -1.5600 o         1 5DS     -0.528900
     13 O3          2.8250    0.2240   -2.8780 o         1 5DS     -0.528900
     14 N5          1.3890    2.0360   -4.0170 n2        1 5DS     -0.949000
     15 H11        -2.5560   -1.6250    3.1750 h1        1 5DS      0.091000
     16 H12        -1.1650   -2.4980    3.0960 h1        1 5DS      0.091000
     17 H13        -1.4950   -1.6150    4.4030 h1        1 5DS      0.091000
     18 H21        -0.4810    1.4470    2.9980 h1        1 5DS      0.091000
     19 H22        -1.6750    0.9780    3.9290 h1        1 5DS      0.091000
     20 H23        -0.1760    0.6330    4.3660 h1        1 5DS      0.091000
     21 H5         -0.5860    0.7190   -2.3460 h5        1 5DS      0.138000
     22 HN41       -0.5360   -1.5320   -2.6810 hn        1 5DS      0.165500
     23 HN42       -0.1760   -0.6890   -3.8950 hn        1 5DS      0.165500
     24 HN51        1.2580    2.9350   -3.9310 hn        1 5DS      0.251500
     25 HN52        1.3050    1.6310   -4.8490 hn        1 5DS      0.251500
@<TRIPOS>BOND
     1    1    2 1   
     2    1   15 1   
     3    1   16 1   
     4    1   17 1   
     5    2    3 1   
     6    2    4 1   
     7    3   18 1   
     8    3   19 1   
     9    3   20 1   
    10    4    5 1   
    11    4    6 1   
    12    5    8 1   
    13    6    7 1   
    14    7    8 1   
    15    9   10 1   
    16    9   11 1   
    17    9   21 1   
    18   10   22 1   
    19   10   23 1   
    20   11   12 1   
    21   11   13 1   
    22   14   24 1   
    23   14   25 1   
@<TRIPOS>SUBSTRUCTURE
     1 5DS         1 TEMP              0 ****  ****    0 ROOT
