@<TRIPOS>MOLECULE
5DS
   25    25     1     0     0
SMALL
bcc


@<TRIPOS>ATOM
      1 C1          4.4020    1.4330   -0.0130 c3        1 5DS      0.171100
      2 N1          3.7020    0.1730    0.1200 nh        1 5DS     -0.711300
      3 C2          4.2830   -0.9230   -0.6240 c3        1 5DS      0.171100
      4 C3          2.3080    0.2180    0.1370 cc        1 5DS      0.564300
      5 S1          1.3390   -1.2170    0.3280 ss        1 5DS     -0.105800
      6 N2          1.5330    1.3600    0.1280 nd        1 5DS     -0.362000
      7 N3          0.2720    1.1170    0.2760 nd        1 5DS     -0.301000
      8 C4         -0.0300   -0.2000    0.3940 cc        1 5DS      0.297700
      9 C5         -1.4180   -0.7080    0.5890 c3        1 5DS      0.010000
     10 N4         -1.5320   -2.0590    0.0770 n3        1 5DS     -0.890800
     11 S2         -2.5910    0.5110   -0.0590 s6        1 5DS      1.405900
     12 O2         -2.2920    0.7340   -1.4130 o         1 5DS     -0.622300
     13 O3         -2.6770    1.5640    0.8610 o         1 5DS     -0.622300
     14 N5         -3.9500   -0.3450    0.0190 n3        1 5DS     -1.038700
     15 H11         5.4970    1.2430    0.1380 h1        1 5DS      0.049533
     16 H12         4.2460    1.9060   -1.0200 h1        1 5DS      0.049533
     17 H13         4.0420    2.1410    0.7790 h1        1 5DS      0.049533
     18 H21         5.3510   -1.0360   -0.2980 h1        1 5DS      0.049533
     19 H22         3.7320   -1.8730   -0.3930 h1        1 5DS      0.049533
     20 H23         4.2600   -0.7490   -1.7350 h1        1 5DS      0.049533
     21 H5         -1.5810   -0.7600    1.7110 h2        1 5DS      0.114700
     22 HN41       -2.3260   -2.5230    0.4710 hn        1 5DS      0.364300
     23 HN42       -1.5920   -2.0580   -0.9220 hn        1 5DS      0.364300
     24 HN51       -4.5540   -0.3380    0.8020 hn        1 5DS      0.447800
     25 HN52       -4.3380   -0.8230   -0.7550 hn        1 5DS      0.447800
@<TRIPOS>BOND
     1    1    2 1   
     2    1   15 1   
     3    1   16 1   
     4    1   17 1   
     5    2    3 1   
     6    2    4 1   
     7    3   18 1   
     8    3   19 1   
     9    3   20 1   
    10    4    5 1   
    11    4    6 2   
    12    5    8 1   
    13    6    7 1   
    14    7    8 2   
    15    8    9 1   
    16    9   10 1   
    17    9   11 1   
    18    9   21 1   
    19   10   22 1   
    20   10   23 1   
    21   11   12 2   
    22   11   13 2   
    23   11   14 1   
    24   14   24 1   
    25   14   25 1   
@<TRIPOS>SUBSTRUCTURE
     1 5DS         1 TEMP              0 ****  ****    0 ROOT
