@<TRIPOS>MOLECULE
5E4
   26    27     1     0     0
SMALL
bcc


@<TRIPOS>ATOM
      1 OAD        -0.0490    1.2540   -0.2660 o         1 5E4     -0.826300
      2 CAP         1.1850    1.0500   -0.1070 c         1 5E4      0.911200
      3 OAQ         1.8040    1.3220    0.9650 o         1 5E4     -0.826300
      4 CAI         1.9560    0.4690   -1.2860 ca        1 5E4     -0.151600
      5 CAH         1.4240    0.6790   -2.5610 ca        1 5E4     -0.091000
      6 CAA         2.0590    0.2010   -3.7050 ca        1 5E4     -0.174000
      7 CAB         3.2550   -0.5020   -3.5820 ca        1 5E4     -0.140000
      8 CAC         3.8090   -0.7300   -2.3280 ca        1 5E4     -0.178000
      9 CAJ         3.1680   -0.2560   -1.1600 ca        1 5E4      0.140600
     10 NAK         3.7850   -0.4190    0.1010 nh        1 5E4     -0.620000
     11 CAL         4.1540   -1.6630    0.5990 ca        1 5E4      0.201600
     12 CAM         4.7030   -1.7320    1.9110 ca        1 5E4     -0.175000
     13 CAN         5.1810   -2.9370    2.4100 ca        1 5E4      0.021100
     14 BR          5.9220   -2.9950    4.1410 br        1 5E4     -0.136100
     15 CAG         5.1230   -4.1090    1.6530 ca        1 5E4     -0.184000
     16 CAF         4.5590   -4.0570    0.3800 ca        1 5E4     -0.097000
     17 CAE         4.0740   -2.8670   -0.1450 ca        1 5E4     -0.199000
     18 HAH         0.4680    1.2260   -2.6320 ha        1 5E4      0.155000
     19 HAA         1.6200    0.3770   -4.6960 ha        1 5E4      0.109000
     20 HAB         3.7690   -0.8770   -4.4780 ha        1 5E4      0.106000
     21 HAC         4.7630   -1.2720   -2.2500 ha        1 5E4      0.122000
     22 HAK         3.4450    0.2390    0.7960 hn        1 5E4      0.484800
     23 HAM         4.7390   -0.8210    2.5300 ha        1 5E4      0.153000
     24 HAG         5.5040   -5.0590    2.0510 ha        1 5E4      0.129000
     25 HAF         4.4880   -4.9790   -0.2170 ha        1 5E4      0.119000
     26 HAE         3.6060   -2.8670   -1.1410 ha        1 5E4      0.147000
@<TRIPOS>BOND
     1    1    2 1   
     2    2    3 1   
     3    2    4 1   
     4    4    5 ar  
     5    4    9 ar  
     6    5    6 ar  
     7    5   18 1   
     8    6    7 ar  
     9    6   19 1   
    10    7    8 ar  
    11    7   20 1   
    12    8    9 ar  
    13    8   21 1   
    14    9   10 1   
    15   10   11 1   
    16   10   22 1   
    17   11   12 ar  
    18   11   17 ar  
    19   12   13 ar  
    20   12   23 1   
    21   13   14 1   
    22   13   15 ar  
    23   15   16 ar  
    24   15   24 1   
    25   16   17 ar  
    26   16   25 1   
    27   17   26 1   
@<TRIPOS>SUBSTRUCTURE
     1 5E4         1 TEMP              0 ****  ****    0 ROOT
