@<TRIPOS>MOLECULE
5E4
   26    27     1     0     0
SMALL
bcc


@<TRIPOS>ATOM
      1 OAD        -0.0500    1.2520   -0.2450 o         1 5E4     -0.826300
      2 CAP         1.1850    1.0470   -0.0920 c         1 5E4      0.911200
      3 OAQ         1.8070    1.3160    0.9800 o         1 5E4     -0.826300
      4 CAI         1.9520    0.4710   -1.2750 ca        1 5E4     -0.151600
      5 CAH         1.4150    0.6860   -2.5480 ca        1 5E4     -0.091000
      6 CAA         2.0460    0.2120   -3.6950 ca        1 5E4     -0.174000
      7 CAB         3.2440   -0.4900   -3.5790 ca        1 5E4     -0.140000
      8 CAC         3.8020   -0.7220   -2.3280 ca        1 5E4     -0.178000
      9 CAJ         3.1650   -0.2530   -1.1550 ca        1 5E4      0.140600
     10 NAK         3.7870   -0.4200    0.1020 nu        1 5E4     -0.620000
     11 CAL         4.1590   -1.6660    0.5940 ca        1 5E4      0.201600
     12 CAM         4.7130   -1.7390    1.9040 ca        1 5E4     -0.175000
     13 CAN         5.1940   -2.9450    2.3970 ca        1 5E4      0.021100
     14 Br          5.9410   -3.0080    4.1250 br        1 5E4     -0.136100
     15 CAG         5.1340   -4.1140    1.6360 ca        1 5E4     -0.184000
     16 CAF         4.5650   -4.0590    0.3660 ca        1 5E4     -0.097000
     17 CAE         4.0770   -2.8670   -0.1530 ca        1 5E4     -0.199000
     18 HAH         0.4590    1.2330   -2.6130 ha        1 5E4      0.155000
     19 HAA         1.6040    0.3910   -4.6840 ha        1 5E4      0.109000
     20 HAB         3.7550   -0.8620   -4.4780 ha        1 5E4      0.106000
     21 HAC         4.7570   -1.2640   -2.2550 ha        1 5E4      0.122000
     22 HAK         3.4490    0.2350    0.8010 hn        1 5E4      0.484800
     23 HAM         4.7500   -0.8300    2.5260 ha        1 5E4      0.153000
     24 HAG         5.5170   -5.0650    2.0290 ha        1 5E4      0.129000
     25 HAF         4.4920   -4.9780   -0.2350 ha        1 5E4      0.119000
     26 HAE         3.6050   -2.8640   -1.1480 ha        1 5E4      0.147000
@<TRIPOS>BOND
     1    1    2 1   
     2    2    3 1   
     3    2    4 1   
     4    4    5 ar  
     5    4    9 ar  
     6    5    6 ar  
     7    5   18 1   
     8    6    7 ar  
     9    6   19 1   
    10    7    8 ar  
    11    7   20 1   
    12    8    9 ar  
    13    8   21 1   
    14    9   10 1   
    15   10   11 1   
    16   10   22 1   
    17   11   12 ar  
    18   11   17 ar  
    19   12   13 ar  
    20   12   23 1   
    21   13   14 1   
    22   13   15 ar  
    23   15   16 ar  
    24   15   24 1   
    25   16   17 ar  
    26   16   25 1   
    27   17   26 1   
@<TRIPOS>SUBSTRUCTURE
     1 5E4         1 TEMP              0 ****  ****    0 ROOT
