@<TRIPOS>MOLECULE
5E5
   26    28     1     0     0
SMALL
bcc


@<TRIPOS>ATOM
      1 C7         -0.0430    0.0340   -0.0070 ca        1 5E5     -0.169300
      2 C2          2.3820    0.0610   -1.0120 cc        1 5E5     -0.100300
      3 C10         1.3020   -0.3870    2.4240 ca        1 5E5      0.464200
      4 N3          3.5830   -0.1030   -0.3140 na        1 5E5      0.052800
      5 C6          1.3650   -0.0330   -0.0310 ca        1 5E5     -0.117000
      6 C1          2.2790    0.2800   -2.4610 c3        1 5E5     -0.037900
      7 N4          3.4370   -0.2880    0.9920 nc        1 5E5     -0.246400
      8 C5          2.0860   -0.2540    1.2260 ca        1 5E5     -0.203300
      9 C8         -0.6840   -0.1170    1.2150 cp        1 5E5      0.426800
     10 N9         -0.0080   -0.3200    2.4180 nb        1 5E5     -0.657000
     11 C11        -2.1510   -0.0610    1.2710 cp        1 5E5     -0.246800
     12 C12        -2.8300    0.5340    2.3440 ca        1 5E5     -0.061000
     13 C13        -4.2250    0.5680    2.3240 ca        1 5E5     -0.251300
     14 C14        -4.8990   -0.0010    1.2300 ca        1 5E5      0.394200
     15 N15        -4.2670   -0.5870    0.1930 nb        1 5E5     -0.668000
     16 C16        -2.9230   -0.6150    0.2240 ca        1 5E5      0.400200
     17 H1         -0.6050    0.2090   -0.9350 ha        1 5E5      0.145000
     18 H2          1.8000   -0.5520    3.3970 h4        1 5E5      0.035100
     19 H3          4.4950   -0.0900   -0.7120 hn        1 5E5      0.324700
     20 H4          1.2000    0.3910   -2.7390 hc        1 5E5      0.058700
     21 H5          2.7060   -0.5850   -3.0300 hc        1 5E5      0.058700
     22 H6          2.8220    1.2090   -2.7680 hc        1 5E5      0.058700
     23 H7         -2.2730    0.9670    3.1890 ha        1 5E5      0.155000
     24 H8         -4.7890    1.0270    3.1470 ha        1 5E5      0.144000
     25 H9         -6.0030    0.0060    1.1760 h4        1 5E5      0.021100
     26 H10        -2.4350   -1.1160   -0.6320 h4        1 5E5      0.021100
@<TRIPOS>BOND
     1    1    5 ar  
     2    1    9 ar  
     3    1   17 1   
     4    2    4 1   
     5    2    5 2   
     6    2    6 1   
     7    3    8 ar  
     8    3   10 ar  
     9    3   18 1   
    10    4    7 1   
    11    4   19 1   
    12    5    8 ar  
    13    6   20 1   
    14    6   21 1   
    15    6   22 1   
    16    7    8 2   
    17    9   10 ar  
    18    9   11 1   
    19   11   12 ar  
    20   11   16 ar  
    21   12   13 ar  
    22   12   23 1   
    23   13   14 ar  
    24   13   24 1   
    25   14   15 ar  
    26   14   25 1   
    27   15   16 ar  
    28   16   26 1   
@<TRIPOS>SUBSTRUCTURE
     1 5E5         1 TEMP              0 ****  ****    0 ROOT
