@<TRIPOS>MOLECULE
5E6
   53    57     1     0     0
SMALL
bcc


@<TRIPOS>ATOM
      1 C9          0.3440    0.9010   -0.3020 c3        1 5E6     -0.109400
      2 C2         -2.2570    3.6270   -3.4580 ca        1 5E6     -0.213300
      3 C10         1.5630    1.7620   -0.5410 c3        1 5E6     -0.085400
      4 C6         -2.5950    2.0820   -1.6320 ca        1 5E6     -0.217300
      5 C1         -2.8760    2.4920   -2.9330 ca        1 5E6     -0.083000
      6 C3         -1.3450    4.3340   -2.6430 ca        1 5E6      0.436000
      7 N4         -1.0610    3.9550   -1.3740 nb        1 5E6     -0.737000
      8 C5         -1.6800    2.8530   -0.8640 ca        1 5E6      0.577200
      9 N7         -1.4680    2.5220    0.5150 nh        1 5E6     -0.808900
     10 C8         -0.5730    1.4090    0.8170 c3        1 5E6      0.194500
     11 C11         2.3530    1.9960    0.7310 c3        1 5E6     -0.100400
     12 C12         1.4250    2.6210    1.7780 c3        1 5E6      0.115500
     13 C13         0.2760    1.6570    2.0840 c3        1 5E6     -0.119400
     14 N14         2.1870    3.0150    3.0090 n4        1 5E6     -0.868600
     15 C15        -0.6300    5.5060   -3.1560 cc        1 5E6      0.270900
     16 C16         0.4080    6.2460   -2.4460 ca        1 5E6     -0.157900
     17 C17         1.0270    6.1930   -1.2010 ca        1 5E6     -0.148300
     18 C18         2.0680    7.1030   -0.9430 cp        1 5E6      0.395800
     19 N19         2.4710    8.0670   -1.8340 nb        1 5E6     -0.629000
     20 C20         1.8720    8.1510   -3.0180 ca        1 5E6      0.425200
     21 C21         0.8320    7.2580   -3.3860 ca        1 5E6     -0.173500
     22 N22         0.0490    7.0710   -4.5290 na        1 5E6      0.019900
     23 N24        -0.8000    6.0540   -4.3930 nd        1 5E6     -0.468100
     24 C25         2.7430    7.0000    0.3570 cp        1 5E6     -0.204800
     25 C26         3.2720    8.1030    1.0460 ca        1 5E6     -0.040000
     26 C27         3.8160    7.9040    2.3160 ca        1 5E6     -0.221300
     27 C28         3.8000    6.6130    2.8760 ca        1 5E6      0.406200
     28 N29         3.3150    5.5400    2.2200 nb        1 5E6     -0.782000
     29 C30         2.8290    5.7350    0.9800 ca        1 5E6      0.373200
     30 H1         -0.2400    0.8150   -1.2580 hc        1 5E6      0.071200
     31 H2          0.6730   -0.1360   -0.0210 hc        1 5E6      0.071200
     32 H4          1.2650    2.7500   -0.9810 hc        1 5E6      0.075200
     33 H5          2.2310    1.2550   -1.2890 hc        1 5E6      0.075200
     34 H7         -3.5920    1.9220   -3.5460 ha        1 5E6      0.157000
     35 H8         -1.2120    3.3420    1.0380 hn        1 5E6      0.374800
     36 H9         -1.2770    0.5540    1.0730 h1        1 5E6      0.087700
     37 H10         2.7610    1.0220    1.1100 hc        1 5E6      0.066700
     38 H11         3.2190    2.6750    0.5130 hc        1 5E6      0.066700
     39 H12         1.0000    3.5880    1.3630 hx        1 5E6      0.108700
     40 H13         0.6840    0.6670    2.4170 hc        1 5E6      0.072200
     41 H14        -0.3740    2.0580    2.9060 hc        1 5E6      0.072200
     42 H15         1.5360    3.2620    3.7560 hn        1 5E6      0.464800
     43 H16         2.7740    2.2410    3.3220 hn        1 5E6      0.464800
     44 H18         0.6980    5.4760   -0.4380 ha        1 5E6      0.151000
     45 H19         2.2250    8.9460   -3.6990 h4        1 5E6      0.043100
     46 H23         0.0550    7.6130   -5.3640 hn        1 5E6      0.345700
     47 H20         3.2560    9.1070    0.5900 ha        1 5E6      0.179000
     48 H21         4.2460    8.7440    2.8820 ha        1 5E6      0.168000
     49 H22         4.2020    6.4320    3.8890 h4        1 5E6      0.028100
     50 H24         2.5040    4.8260    0.4400 h4        1 5E6      0.012100
     51 H3         -2.4770    3.9640   -4.4810 ha        1 5E6      0.172000
     52 H143        2.7950    3.8490    2.7930 hn        1 5E6      0.464800
     53 H6         -3.0810    1.1960   -1.1990 ha        1 5E6      0.161000
@<TRIPOS>BOND
     1    1    3 1   
     2    1   10 1   
     3    1   30 1   
     4    1   31 1   
     5    2    5 ar  
     6    2    6 ar  
     7    2   51 1   
     8    3   11 1   
     9    3   32 1   
    10    3   33 1   
    11    4    5 ar  
    12    4    8 ar  
    13    4   53 1   
    14    5   34 1   
    15    6    7 ar  
    16    6   15 1   
    17    7    8 ar  
    18    8    9 1   
    19    9   10 1   
    20    9   35 1   
    21   10   13 1   
    22   10   36 1   
    23   11   12 1   
    24   11   37 1   
    25   11   38 1   
    26   12   13 1   
    27   12   14 1   
    28   12   39 1   
    29   13   40 1   
    30   13   41 1   
    31   14   42 1   
    32   14   43 1   
    33   14   52 1   
    34   15   16 1   
    35   15   23 2   
    36   16   17 ar  
    37   16   21 ar  
    38   17   18 ar  
    39   17   44 1   
    40   18   19 ar  
    41   18   24 1   
    42   19   20 ar  
    43   20   21 ar  
    44   20   45 1   
    45   21   22 1   
    46   22   23 1   
    47   22   46 1   
    48   24   25 ar  
    49   24   29 ar  
    50   25   26 ar  
    51   25   47 1   
    52   26   27 ar  
    53   26   48 1   
    54   27   28 ar  
    55   27   49 1   
    56   28   29 ar  
    57   29   50 1   
@<TRIPOS>SUBSTRUCTURE
     1 5E6         1 TEMP              0 ****  ****    0 ROOT
