@<TRIPOS>MOLECULE
5E6
   53    57     1     0     0
SMALL
bcc


@<TRIPOS>ATOM
      1 C9          0.3120    0.9070   -0.3070 c3        1 5E6     -0.109400
      2 C2         -2.3310    3.6760   -3.3920 ca        1 5E6     -0.213300
      3 C10         1.5330    1.7590   -0.5680 c3        1 5E6     -0.085400
      4 C6         -2.6430    2.1220   -1.5690 ca        1 5E6     -0.217300
      5 C1         -2.9470    2.5420   -2.8620 ca        1 5E6     -0.082000
      6 C3         -1.3950    4.3700   -2.5920 ca        1 5E6      0.436000
      7 N4         -1.0890    3.9810   -1.3310 nb        1 5E6     -0.737000
      8 C5         -1.7060    2.8810   -0.8160 ca        1 5E6      0.577200
      9 N7         -1.4680    2.5410    0.5570 nu        1 5E6     -0.808900
     10 C8         -0.5770    1.4180    0.8340 c3        1 5E6      0.194500
     11 C11         2.3520    1.9790    0.6880 c3        1 5E6     -0.100400
     12 C12         1.4520    2.6060    1.7580 c3        1 5E6      0.115500
     13 C13         0.3010    1.6510    2.0830 c3        1 5E6     -0.119400
     14 N14         2.2440    2.9860    2.9750 nz        1 5E6     -0.868600
     15 C15        -0.6830    5.5400   -3.1130 cc        1 5E6      0.270900
     16 C16         0.3770    6.2670   -2.4210 ca        1 5E6     -0.157900
     17 C17         1.0220    6.2000   -1.1900 ca        1 5E6     -0.148300
     18 C18         2.0760    7.0990   -0.9490 cp        1 5E6      0.395800
     19 N19         2.4690    8.0660   -1.8430 nb        1 5E6     -0.629000
     20 C20         1.8440    8.1630   -3.0130 ca        1 5E6      0.425200
     21 C21         0.7890    7.2810   -3.3640 ca        1 5E6     -0.173500
     22 N22        -0.0200    7.1080   -4.4910 na        1 5E6      0.019900
     23 N24        -0.8750    6.0980   -4.3430 nd        1 5E6     -0.468100
     24 C25         2.7790    6.9820    0.3360 cp        1 5E6     -0.204800
     25 C26         3.3330    8.0760    1.0190 ca        1 5E6     -0.040000
     26 C27         3.9020    7.8650    2.2760 ca        1 5E6     -0.221300
     27 C28         3.8870    6.5700    2.8280 ca        1 5E6      0.406200
     28 N29         3.3780    5.5060    2.1770 nb        1 5E6     -0.782000
     29 C30         2.8670    5.7130    0.9480 ca        1 5E6      0.373200
     30 H1         -0.2940    0.8320   -1.2510 hc        1 5E6      0.071200
     31 H2          0.6370   -0.1340   -0.0390 hc        1 5E6      0.071200
     32 H4          1.2340    2.7520   -0.9960 hc        1 5E6      0.075200
     33 H5          2.1800    1.2500   -1.3330 hc        1 5E6      0.075200
     34 H7         -3.6800    1.9820   -3.4630 ha        1 5E6      0.157000
     35 H8         -1.1940    3.3550    1.0790 hn        1 5E6      0.374800
     36 H9         -1.2830    0.5680    1.1000 h1        1 5E6      0.087700
     37 H10         2.7600    1.0000    1.0530 hc        1 5E6      0.066700
     38 H11         3.2190    2.6520    0.4560 hc        1 5E6      0.066700
     39 H12         1.0270    3.5800    1.3580 hx        1 5E6      0.108700
     40 H13        -0.3280    2.0530    2.9210 hc        1 5E6      0.072200
     41 H14         0.7070    0.6550    2.4020 hc        1 5E6      0.072200
     42 H15         2.8300    2.2060    3.2710 hn        1 5E6      0.464800
     43 H16         2.8550    3.8160    2.7510 hn        1 5E6      0.464800
     44 H18         0.7040    5.4800   -0.4240 ha        1 5E6      0.151000
     45 H19         2.1900    8.9600   -3.6960 h4        1 5E6      0.043100
     46 H23        -0.0270    7.6560   -5.3220 hn        1 5E6      0.345700
     47 H20         3.3160    9.0830    0.5700 ha        1 5E6      0.179000
     48 H21         4.3520    8.6970    2.8370 ha        1 5E6      0.168000
     49 H22         4.3090    6.3790    3.8310 h4        1 5E6      0.028100
     50 H24         2.5220    4.8100    0.4100 h4        1 5E6      0.012100
     51 H3         -2.5690    4.0210   -4.4090 ha        1 5E6      0.172000
     52 H143        1.6110    3.2350    3.7360 hn        1 5E6      0.464800
     53 H6         -3.1270    1.2370   -1.1320 ha        1 5E6      0.161000
@<TRIPOS>BOND
     1    1    3 1   
     2    1   10 1   
     3    1   30 1   
     4    1   31 1   
     5    2    5 ar  
     6    2    6 ar  
     7    2   51 1   
     8    3   11 1   
     9    3   32 1   
    10    3   33 1   
    11    4    5 ar  
    12    4    8 ar  
    13    4   53 1   
    14    5   34 1   
    15    6    7 ar  
    16    6   15 1   
    17    7    8 ar  
    18    8    9 1   
    19    9   10 1   
    20    9   35 1   
    21   10   13 1   
    22   10   36 1   
    23   11   12 1   
    24   11   37 1   
    25   11   38 1   
    26   12   13 1   
    27   12   14 1   
    28   12   39 1   
    29   13   40 1   
    30   13   41 1   
    31   14   42 1   
    32   14   43 1   
    33   14   52 1   
    34   15   16 1   
    35   15   23 2   
    36   16   17 ar  
    37   16   21 ar  
    38   17   18 ar  
    39   17   44 1   
    40   18   19 ar  
    41   18   24 1   
    42   19   20 ar  
    43   20   21 ar  
    44   20   45 1   
    45   21   22 1   
    46   22   23 1   
    47   22   46 1   
    48   24   25 ar  
    49   24   29 ar  
    50   25   26 ar  
    51   25   47 1   
    52   26   27 ar  
    53   26   48 1   
    54   27   28 ar  
    55   27   49 1   
    56   28   29 ar  
    57   29   50 1   
@<TRIPOS>SUBSTRUCTURE
     1 5E6         1 TEMP              0 ****  ****    0 ROOT
