@<TRIPOS>MOLECULE
5EA
   50    47     1     0     0
SMALL
bcc


@<TRIPOS>ATOM
      1 I1         -3.5100    6.1320    6.1480 i         1 5EA      0.155000
      2 C23        -2.3070    4.9730    4.8220 c2        1 5EA     -0.279000
      3 C21        -1.3290    5.5800    4.0690 c2        1 5EA     -0.070000
      4 C16        -0.4860    4.8130    3.2870 c1        1 5EA     -0.159000
      5 C19        -2.4430    3.6030    4.7930 c1        1 5EA     -0.096000
      6 C15        -1.5870    2.8300    3.9980 c1        1 5EA      0.030000
      7 F20        -1.7800    1.4590    3.9010 f         1 5EA     -0.107000
      8 C10        -0.6310    3.4240    3.2620 c1        1 5EA      0.063000
      9 N5          0.2610    2.6430    2.5060 n3        1 5EA     -0.247000
     10 C2          1.2390    3.3150    1.5770 c2        1 5EA      0.067000
     11 C6          1.9370    4.4230    2.0040 c2        1 5EA      0.046000
     12 F1          1.9250    4.7400    3.2530 f         1 5EA     -0.074000
     13 C11         2.8410    5.0380    1.1560 c1        1 5EA      0.087000
     14 F17         3.5980    6.0230    1.6050 f         1 5EA     -0.082000
     15 C9          3.0500    4.5260   -0.1550 c2        1 5EA     -0.159000
     16 C4          2.3530    3.4170   -0.5840 c1        1 5EA     -0.067000
     17 C1          1.4500    2.8020    0.2610 c1        1 5EA     -0.036000
     18 C3          0.7920    1.5810   -0.1530 c1        1 5EA      0.029500
     19 O7          1.0190    0.3570    0.3510 os        1 5EA     -0.166000
     20 C13         0.2750   -0.5510   -0.3770 c1        1 5EA      0.029500
     21 N14        -0.3890    0.1170   -1.3030 n2        1 5EA     -0.088500
     22 N8         -0.0720    1.4560   -1.1720 n2        1 5EA     -0.088500
     23 N18         0.2660   -1.9650   -0.1970 n2        1 5EA     -0.234000
     24 C22        -0.7280   -2.7550   -0.8510 c3        1 5EA     -0.051000
     25 C24        -0.0690   -3.8950   -1.5900 c3        1 5EA     -0.109000
     26 N26        -1.1510   -4.7760   -2.2850 n3        1 5EA     -0.241000
     27 C27        -0.6640   -6.1170   -2.4070 c3        1 5EA     -0.110500
     28 C29         0.4540   -6.2310   -3.4250 c3        1 5EA     -0.058000
     29 O31         0.1080   -5.6590   -4.6660 os        1 5EA     -0.267000
     30 C30        -0.3880   -4.3130   -4.5380 c3        1 5EA     -0.058000
     31 C28        -1.4930   -4.2030   -3.5370 c3        1 5EA     -0.110500
     32 H21        -1.2310    6.5040    4.0870 ha        1 5EA      0.151000
     33 H16         0.2370    5.2570    2.7320 ha        1 5EA      0.149000
     34 H19        -3.1210    3.1460    5.4010 ha        1 5EA      0.161000
     35 HN5         0.3440    1.6630    2.6910 hn        1 5EA      0.239000
     36 H9          3.6880    4.9610   -0.7490 ha        1 5EA      0.165000
     37 H4          2.5040    3.0520   -1.5270 ha        1 5EA      0.165000
     38 H18         0.8810   -2.3780    0.4240 hn        1 5EA      0.223000
     39 H221       -1.3340   -3.1030   -0.2040 h1        1 5EA      0.124000
     40 H222       -1.2120   -2.2020   -1.4780 h1        1 5EA      0.124000
     41 H241        0.4030   -4.4060   -0.9960 h1        1 5EA      0.079500
     42 H242        0.5480   -3.5270   -2.2710 h1        1 5EA      0.079500
     43 H271       -1.4160   -6.7140   -2.6800 h1        1 5EA      0.104500
     44 H272       -0.3310   -6.4070   -1.5470 h1        1 5EA      0.104500
     45 H291        1.2770   -5.7650   -3.0650 h1        1 5EA      0.093250
     46 H292        0.6680   -7.2080   -3.5670 h1        1 5EA      0.093250
     47 H301       -0.7270   -4.0090   -5.4260 h1        1 5EA      0.093250
     48 H302        0.3290   -3.7440   -4.2680 h1        1 5EA      0.093250
     49 H281       -1.7140   -3.2190   -3.3970 h1        1 5EA      0.104500
     50 H282       -2.3330   -4.6890   -3.9130 h1        1 5EA      0.104500
@<TRIPOS>BOND
     1    1    2 1   
     2    2    3 1   
     3    2    5 1   
     4    3    4 1   
     5    3   32 1   
     6    4   33 1   
     7    5   34 1   
     8    6    7 1   
     9    6    8 1   
    10    8    9 1   
    11    9   10 1   
    12    9   35 1   
    13   10   11 1   
    14   10   17 1   
    15   11   12 1   
    16   11   13 1   
    17   13   15 1   
    18   15   16 1   
    19   15   36 1   
    20   16   37 1   
    21   18   19 1   
    22   18   22 1   
    23   19   20 1   
    24   20   21 1   
    25   21   22 1   
    26   23   24 1   
    27   23   38 1   
    28   24   25 1   
    29   24   39 1   
    30   24   40 1   
    31   25   26 1   
    32   25   41 1   
    33   25   42 1   
    34   26   27 1   
    35   26   31 1   
    36   27   28 1   
    37   27   43 1   
    38   27   44 1   
    39   28   29 1   
    40   28   45 1   
    41   28   46 1   
    42   29   30 1   
    43   30   31 1   
    44   30   47 1   
    45   30   48 1   
    46   31   49 1   
    47   31   50 1   
@<TRIPOS>SUBSTRUCTURE
     1 5EA         1 TEMP              0 ****  ****    0 ROOT
