@<TRIPOS>MOLECULE
5EA
   52    55     1     0     0
SMALL
bcc


@<TRIPOS>ATOM
      1 I1          0.2910   -1.8070    1.6230 i         1 5EA     -0.015900
      2 C23         2.0980   -1.1100    1.0580 ca        1 5EA      0.085900
      3 C21         2.8980   -0.4150    1.9730 ca        1 5EA     -0.088000
      4 C16         4.1440    0.0760    1.5990 ca        1 5EA     -0.077000
      5 C19         2.5450   -1.3130   -0.2440 ca        1 5EA     -0.113000
      6 C15         3.8020   -0.8260   -0.6470 ca        1 5EA      0.169900
      7 F20         4.2260   -1.0060   -1.9160 f         1 5EA     -0.108900
      8 C10         4.6120   -0.1280    0.2890 ca        1 5EA     -0.106400
      9 N5          5.8970    0.4370   -0.1470 n4        1 5EA     -0.494800
     10 C2          6.9800    0.3260    0.8370 ca        1 5EA      0.003600
     11 C6          7.2670    1.4590    1.6390 ca        1 5EA      0.106900
     12 F1          6.5500    2.5940    1.5060 f         1 5EA     -0.080900
     13 C11         8.3300    1.4170    2.5940 ca        1 5EA      0.198900
     14 F17         8.5850    2.5020    3.3370 f         1 5EA     -0.049900
     15 C9          9.0830    0.2410    2.7360 ca        1 5EA     -0.109000
     16 C4          8.7930   -0.8660    1.9470 ca        1 5EA     -0.043000
     17 C1          7.7580   -0.8490    1.0000 ca        1 5EA     -0.143500
     18 C3          7.5340   -2.0460    0.2170 cc        1 5EA      0.594900
     19 O7          8.3580   -3.1620    0.4440 os        1 5EA     -0.355800
     20 C13         7.8610   -4.1160   -0.4810 cc        1 5EA      0.483300
     21 N14         6.8290   -3.5790   -1.1850 nd        1 5EA     -0.190000
     22 N8          6.6410   -2.3530   -0.7620 nd        1 5EA     -0.365000
     23 N18         8.4920   -5.4120   -0.5300 n4        1 5EA     -0.708700
     24 C22         8.9910   -5.7450   -1.9160 c3        1 5EA      0.091800
     25 C24         9.6470   -7.1580   -1.9400 c3        1 5EA      0.176800
     26 N26        10.1290   -7.4010   -3.2760 n3        1 5EA     -0.755600
     27 C27        11.5590   -7.6770   -3.3520 c3        1 5EA      0.137800
     28 C29        12.0250   -7.9340   -4.7940 c3        1 5EA      0.124900
     29 O31        11.2310   -8.9300   -5.4200 os        1 5EA     -0.386600
     30 C30         9.8570   -8.5730   -5.4540 c3        1 5EA      0.124900
     31 C28         9.3110   -8.3400   -4.0360 c3        1 5EA      0.137800
     32 H21         2.5430   -0.2380    3.0050 ha        1 5EA      0.191000
     33 H16         4.7500    0.6370    2.3310 ha        1 5EA      0.162000
     34 H19         1.9260   -1.8450   -0.9910 ha        1 5EA      0.201000
     35 HN5         6.1780   -0.0080   -1.0370 hn        1 5EA      0.483800
     36 H9          9.9050    0.2090    3.4770 ha        1 5EA      0.213000
     37 H4          9.4010   -1.7820    2.0730 ha        1 5EA      0.184000
     38 H18         9.2810   -5.4220    0.1360 hn        1 5EA      0.485800
     39 H221        8.1110   -5.7100   -2.6210 hx        1 5EA      0.127700
     40 H222        9.7370   -4.9560   -2.2140 hx        1 5EA      0.127700
     41 H241        8.8740   -7.9150   -1.6200 h1        1 5EA      0.058700
     42 H242       10.4890   -7.1770   -1.1900 h1        1 5EA      0.058700
     43 H271       11.8340   -8.5740   -2.7240 h1        1 5EA      0.048950
     44 H272       12.1100   -6.7810   -2.9530 h1        1 5EA      0.048950
     45 H291       11.9980   -6.9870   -5.3940 h1        1 5EA      0.073700
     46 H292       13.0630   -8.3610   -4.7880 h1        1 5EA      0.073700
     47 H301        9.3450   -9.4570   -5.9180 h1        1 5EA      0.073700
     48 H302        9.7120   -7.6600   -6.0890 h1        1 5EA      0.073700
     49 H281        9.2440   -9.3380   -3.5120 h1        1 5EA      0.048950
     50 H282        8.2740   -7.9120   -4.1170 h1        1 5EA      0.048950
     51 H52         5.7360    1.4450   -0.3360 hn        1 5EA      0.483800
     52 H182        7.7980   -6.1210   -0.2350 hn        1 5EA      0.485800
@<TRIPOS>BOND
     1    1    2 1   
     2    2    3 ar  
     3    2    5 ar  
     4    3    4 ar  
     5    3   32 1   
     6    4    8 ar  
     7    4   33 1   
     8    5    6 ar  
     9    5   34 1   
    10    6    7 1   
    11    6    8 ar  
    12    8    9 1   
    13    9   10 1   
    14    9   35 1   
    15    9   51 1   
    16   10   11 ar  
    17   10   17 ar  
    18   11   12 1   
    19   11   13 ar  
    20   13   14 1   
    21   13   15 ar  
    22   15   16 ar  
    23   15   36 1   
    24   16   17 ar  
    25   16   37 1   
    26   17   18 1   
    27   18   19 1   
    28   18   22 2   
    29   19   20 1   
    30   20   21 2   
    31   20   23 1   
    32   21   22 1   
    33   23   24 1   
    34   23   38 1   
    35   23   52 1   
    36   24   25 1   
    37   24   39 1   
    38   24   40 1   
    39   25   26 1   
    40   25   41 1   
    41   25   42 1   
    42   26   27 1   
    43   26   31 1   
    44   27   28 1   
    45   27   43 1   
    46   27   44 1   
    47   28   29 1   
    48   28   45 1   
    49   28   46 1   
    50   29   30 1   
    51   30   31 1   
    52   30   47 1   
    53   30   48 1   
    54   31   49 1   
    55   31   50 1   
@<TRIPOS>SUBSTRUCTURE
     1 5EA         1 TEMP              0 ****  ****    0 ROOT
