@<TRIPOS>MOLECULE
5EA
   50    53     1     0     0
SMALL
bcc


@<TRIPOS>ATOM
      1 I1         -0.1480    0.3060   -0.0350 i         1 5EA     -0.135900
      2 C23         1.8690    0.2690    0.0230 ca        1 5EA      0.007900
      3 C21         2.5370    0.2280    1.2460 ca        1 5EA     -0.073000
      4 C16         3.9260    0.2010    1.2970 ca        1 5EA     -0.162000
      5 C19         2.5990    0.2830   -1.1620 ca        1 5EA     -0.099000
      6 C15         4.0010    0.2600   -1.1300 ca        1 5EA      0.076900
      7 F20         4.6870    0.2680   -2.3000 f         1 5EA     -0.136900
      8 C10         4.6990    0.2240    0.1190 ca        1 5EA      0.153600
      9 N5          6.1030    0.2670    0.1210 nu        1 5EA     -0.612000
     10 C2          6.8510    0.0280    1.2890 ca        1 5EA      0.157600
     11 C6          6.8820    1.0100    2.3230 ca        1 5EA      0.079900
     12 F1          6.1330    2.1330    2.2490 f         1 5EA     -0.107900
     13 C11         7.7120    0.8290    3.4600 ca        1 5EA      0.119900
     14 F17         7.7190    1.7680    4.4320 f         1 5EA     -0.116900
     15 C9          8.5290   -0.3070    3.5670 ca        1 5EA     -0.159000
     16 C4          8.5070   -1.2600    2.5620 ca        1 5EA     -0.078000
     17 C1          7.6770   -1.1170    1.4410 ca        1 5EA     -0.144500
     18 C3          7.6790   -2.1760    0.4540 cc        1 5EA      0.467900
     19 O7          8.7900   -3.0570    0.4550 os        1 5EA     -0.413800
     20 C13         8.4630   -3.9850   -0.5640 cc        1 5EA      0.683300
     21 N14         7.2550   -3.6410   -1.1150 nd        1 5EA     -0.388000
     22 N8          6.8050   -2.5720   -0.4920 nd        1 5EA     -0.319000
     23 N18         9.3110   -5.0570   -0.7420 nu        1 5EA     -0.803900
     24 C22         9.1940   -5.7930   -1.9870 c3        1 5EA      0.189800
     25 C24        10.2140   -6.9540   -2.0390 c3        1 5EA      0.163800
     26 N26        10.0180   -7.7860   -3.2160 n3        1 5EA     -0.726600
     27 C27        10.4900   -7.1560   -4.4420 c3        1 5EA      0.132300
     28 C29        10.3550   -8.0720   -5.6650 c3        1 5EA      0.126400
     29 O31        10.9630   -9.3380   -5.4400 os        1 5EA     -0.413600
     30 C30        10.4300   -9.9890   -4.2930 c3        1 5EA      0.126400
     31 C28        10.5710   -9.1240   -3.0360 c3        1 5EA      0.132300
     32 H21         1.9710    0.2140    2.1910 ha        1 5EA      0.148000
     33 H16         4.4260    0.1730    2.2780 ha        1 5EA      0.145000
     34 H19         2.0980    0.3110   -2.1430 ha        1 5EA      0.160000
     35 HN5         6.5200   -0.0800   -0.7210 hn        1 5EA      0.446800
     36 H9          9.1760   -0.4270    4.4490 ha        1 5EA      0.163000
     37 H4          9.1470   -2.1540    2.6450 ha        1 5EA      0.159000
     38 H18        10.2410   -4.9000   -0.4100 hn        1 5EA      0.426800
     39 H221        9.3510   -5.1100   -2.8720 h1        1 5EA      0.070200
     40 H222        8.1450   -6.2040   -2.0470 h1        1 5EA      0.070200
     41 H241       11.2590   -6.5270   -1.9970 h1        1 5EA      0.041200
     42 H242       10.0720   -7.5990   -1.1250 h1        1 5EA      0.041200
     43 H271       11.5700   -6.8360   -4.3550 h1        1 5EA      0.042200
     44 H272        9.8680   -6.2360   -4.6200 h1        1 5EA      0.042200
     45 H291       10.9180   -7.6410   -6.5330 h1        1 5EA      0.057700
     46 H292        9.2750   -8.2150   -5.9340 h1        1 5EA      0.057700
     47 H301        9.3550  -10.2520   -4.4750 h1        1 5EA      0.057700
     48 H302       11.0450  -10.9220   -4.1890 h1        1 5EA      0.057700
     49 H281       10.0070   -9.6200   -2.1980 h1        1 5EA      0.042200
     50 H282       11.6620   -9.0850   -2.7490 h1        1 5EA      0.042200
@<TRIPOS>BOND
     1    1    2 1   
     2    2    3 ar  
     3    2    5 ar  
     4    3    4 ar  
     5    3   32 1   
     6    4    8 ar  
     7    4   33 1   
     8    5    6 ar  
     9    5   34 1   
    10    6    7 1   
    11    6    8 ar  
    12    8    9 1   
    13    9   10 1   
    14    9   35 1   
    15   10   11 ar  
    16   10   17 ar  
    17   11   12 1   
    18   11   13 ar  
    19   13   14 1   
    20   13   15 ar  
    21   15   16 ar  
    22   15   36 1   
    23   16   17 ar  
    24   16   37 1   
    25   17   18 1   
    26   18   19 1   
    27   18   22 2   
    28   19   20 1   
    29   20   21 2   
    30   20   23 1   
    31   21   22 1   
    32   23   24 1   
    33   23   38 1   
    34   24   25 1   
    35   24   39 1   
    36   24   40 1   
    37   25   26 1   
    38   25   41 1   
    39   25   42 1   
    40   26   27 1   
    41   26   31 1   
    42   27   28 1   
    43   27   43 1   
    44   27   44 1   
    45   28   29 1   
    46   28   45 1   
    47   28   46 1   
    48   29   30 1   
    49   30   31 1   
    50   30   47 1   
    51   30   48 1   
    52   31   49 1   
    53   31   50 1   
@<TRIPOS>SUBSTRUCTURE
     1 5EA         1 TEMP              0 ****  ****    0 ROOT
