@<TRIPOS>MOLECULE
5EA
   50    53     1     0     0
SMALL
bcc


@<TRIPOS>ATOM
      1 I1         -2.7930    0.3410   -5.6750 i         1 5EA     -0.135900
      2 C23        -1.4130   -0.1420   -4.2850 ca        1 5EA      0.007900
      3 C21        -0.2270    0.5840   -4.1880 ca        1 5EA     -0.073000
      4 C16         0.7290    0.2600   -3.2330 ca        1 5EA     -0.162000
      5 C19        -1.6440   -1.2050   -3.4160 ca        1 5EA     -0.099000
      6 C15        -0.6890   -1.5490   -2.4490 ca        1 5EA      0.076900
      7 F20        -0.9440   -2.5850   -1.6110 f         1 5EA     -0.136900
      8 C10         0.5350   -0.8150   -2.3420 ca        1 5EA      0.153600
      9 N5          1.5000   -1.2230   -1.4080 nh        1 5EA     -0.612000
     10 C2          2.6250   -0.4320   -1.1090 ca        1 5EA      0.157600
     11 C6          3.6840   -0.3200   -2.0580 ca        1 5EA      0.079900
     12 F1          3.5930   -0.8850   -3.2830 f         1 5EA     -0.107900
     13 C11         4.8690    0.3890   -1.7310 ca        1 5EA      0.119900
     14 F17         5.8550    0.4900   -2.6490 f         1 5EA     -0.116900
     15 C9          5.0210    0.9690   -0.4620 ca        1 5EA     -0.159000
     16 C4          3.9980    0.8570    0.4650 ca        1 5EA     -0.078000
     17 C1          2.8070    0.1830    0.1580 ca        1 5EA     -0.144500
     18 C3          1.7680    0.1450    1.1660 cc        1 5EA      0.467900
     19 O7          2.1560    0.4080    2.5040 os        1 5EA     -0.413800
     20 C13         0.9300    0.3520    3.2100 cc        1 5EA      0.683300
     21 N14        -0.0820    0.0620    2.3300 nd        1 5EA     -0.388000
     22 N8          0.4350   -0.0500    1.1250 nd        1 5EA     -0.319000
     23 N18         0.9530    0.6780    4.5490 nh        1 5EA     -0.803900
     24 C22        -0.1930    0.2800    5.3460 c3        1 5EA      0.189800
     25 C24        -0.0130    0.7110    6.8210 c3        1 5EA      0.163800
     26 N26        -1.2080    0.4410    7.6050 n3        1 5EA     -0.726600
     27 C27        -1.3770   -0.9730    7.9160 c3        1 5EA      0.132300
     28 C29        -2.5940   -1.2380    8.8100 c3        1 5EA      0.126400
     29 O31        -2.5700   -0.4280    9.9800 os        1 5EA     -0.413600
     30 C30        -2.4990    0.9580    9.6670 c3        1 5EA      0.126400
     31 C28        -1.2780    1.2780    8.7970 c3        1 5EA      0.132300
     32 H21        -0.0330    1.4290   -4.8680 ha        1 5EA      0.148000
     33 H16         1.6580    0.8490   -3.1830 ha        1 5EA      0.145000
     34 H19        -2.5750   -1.7940   -3.4660 ha        1 5EA      0.160000
     35 HN5         1.1210   -1.7230   -0.6260 hn        1 5EA      0.446800
     36 H9          5.9500    1.5050   -0.2190 ha        1 5EA      0.163000
     37 H4          4.1140    1.3130    1.4620 ha        1 5EA      0.159000
     38 H18         1.8480    0.5680    4.9800 hn        1 5EA      0.426800
     39 H221       -0.3480   -0.8360    5.2930 h1        1 5EA      0.070200
     40 H222       -1.1060    0.7800    4.9120 h1        1 5EA      0.070200
     41 H241        0.1840    1.8210    6.8500 h1        1 5EA      0.041200
     42 H242        0.8950    0.1900    7.2480 h1        1 5EA      0.041200
     43 H271       -1.5260   -1.5240    6.9460 h1        1 5EA      0.042200
     44 H272       -0.4630   -1.3980    8.4230 h1        1 5EA      0.042200
     45 H291       -2.5660   -2.2900    9.1970 h1        1 5EA      0.057700
     46 H292       -3.5470   -1.0570    8.2470 h1        1 5EA      0.057700
     47 H301       -2.4060    1.4660   10.6620 h1        1 5EA      0.057700
     48 H302       -3.4450    1.2780    9.1560 h1        1 5EA      0.057700
     49 H281       -0.3500    1.1730    9.4320 h1        1 5EA      0.042200
     50 H282       -1.3530    2.3500    8.4620 h1        1 5EA      0.042200
@<TRIPOS>BOND
     1    1    2 1   
     2    2    3 ar  
     3    2    5 ar  
     4    3    4 ar  
     5    3   32 1   
     6    4    8 ar  
     7    4   33 1   
     8    5    6 ar  
     9    5   34 1   
    10    6    7 1   
    11    6    8 ar  
    12    8    9 1   
    13    9   10 1   
    14    9   35 1   
    15   10   11 ar  
    16   10   17 ar  
    17   11   12 1   
    18   11   13 ar  
    19   13   14 1   
    20   13   15 ar  
    21   15   16 ar  
    22   15   36 1   
    23   16   17 ar  
    24   16   37 1   
    25   17   18 1   
    26   18   19 1   
    27   18   22 2   
    28   19   20 1   
    29   20   21 2   
    30   20   23 1   
    31   21   22 1   
    32   23   24 1   
    33   23   38 1   
    34   24   25 1   
    35   24   39 1   
    36   24   40 1   
    37   25   26 1   
    38   25   41 1   
    39   25   42 1   
    40   26   27 1   
    41   26   31 1   
    42   27   28 1   
    43   27   43 1   
    44   27   44 1   
    45   28   29 1   
    46   28   45 1   
    47   28   46 1   
    48   29   30 1   
    49   30   31 1   
    50   30   47 1   
    51   30   48 1   
    52   31   49 1   
    53   31   50 1   
@<TRIPOS>SUBSTRUCTURE
     1 5EA         1 TEMP              0 ****  ****    0 ROOT
