@<TRIPOS>MOLECULE
5EE
   36    37     1     0     0
SMALL
bcc


@<TRIPOS>ATOM
      1 S19        -0.6270   -1.2970   -0.1120 s4        1 5EE      1.739300
      2 O20         0.1330   -0.6620    0.8160 o         1 5EE     -0.434900
      3 O21        -1.9700   -1.4270    0.0150 o         1 5EE     -0.434900
      4 N22        -0.6890    0.7410   -1.4220 n3        1 5EE     -0.731800
      5 C24         0.0920   -2.1700   -1.1420 cc        1 5EE     -0.778600
      6 S3         -0.4620   -3.1990   -2.3370 ss        1 5EE      0.527200
      7 C27         0.9710   -3.6830   -2.8370 cc        1 5EE     -0.166100
      8 C29         2.0340   -3.0800   -2.1190 cd        1 5EE     -0.150000
      9 C30         1.5390   -2.2190   -1.1540 cd        1 5EE     -0.011000
     10 C1         -5.3490    0.2050   -2.0880 c3        1 5EE     -0.013100
     11 C2         -6.6780    0.7290   -2.5050 ca        1 5EE     -0.112300
     12 C4         -7.0920    0.6150   -3.8380 ca        1 5EE     -0.118000
     13 C5         -8.3430    1.0810   -4.2280 ca        1 5EE     -0.111000
     14 C6         -8.7930    1.7770   -1.9500 ca        1 5EE      0.018400
     15 C8         -9.2010    1.6660   -3.2890 ca        1 5EE      0.030400
     16 CL1       -10.7160    2.2240   -3.7920 cl        1 5EE     -0.037400
     17 N1         -1.9930    1.1240   -1.6020 n         1 5EE     -0.408800
     18 C9         -2.4640    2.4270   -1.2170 c         1 5EE      0.261000
     19 C14        -4.2210    1.0860   -2.5990 c3        1 5EE     -0.114600
     20 C7         -2.8850    0.3960   -2.4570 c         1 5EE      0.725500
     21 C3         -7.5330    1.3060   -1.5630 ca        1 5EE     -0.103000
     22 S1         -4.0750    2.6370   -1.7190 ss        1 5EE      0.050300
     23 S2         -1.6290    3.4610   -0.4290 s         1 5EE     -0.206400
     24 O1         -2.5510   -0.6760   -2.9730 o         1 5EE     -0.591500
     25 CL2        -9.8000    2.4720   -0.7810 cl        1 5EE     -0.042400
     26 H22        -0.2210    1.4580   -0.8530 hn        1 5EE      0.414300
     27 H27         1.1550   -4.4040   -3.6470 h4        1 5EE      0.224000
     28 H29         3.0960   -3.2770   -2.3050 ha        1 5EE      0.203000
     29 H30         2.1550   -1.6370   -0.4550 ha        1 5EE      0.199000
     30 H11        -5.2070   -0.8300   -2.5090 hc        1 5EE      0.080700
     31 H12        -5.2920    0.1250   -0.9690 hc        1 5EE      0.080700
     32 H4         -6.4290    0.1470   -4.5820 ha        1 5EE      0.138000
     33 H5         -8.6630    0.9860   -5.2790 ha        1 5EE      0.162000
     34 H14        -4.3920    1.3070   -3.6900 h1        1 5EE      0.143700
     35 H3         -7.2210    1.3900   -0.5090 ha        1 5EE      0.155000
     36 H222       -0.2170    0.7000   -2.3230 hn        1 5EE      0.414300
@<TRIPOS>BOND
     1    1    2 1   
     2    1    3 1   
     3    1    5 1   
     4    4   17 1   
     5    4   26 1   
     6    4   36 1   
     7    5    6 1   
     8    5    9 2   
     9    6    7 1   
    10    7    8 2   
    11    7   27 1   
    12    8    9 1   
    13    8   28 1   
    14    9   29 1   
    15   10   11 1   
    16   10   19 1   
    17   10   30 1   
    18   10   31 1   
    19   11   12 ar  
    20   11   21 ar  
    21   12   13 ar  
    22   12   32 1   
    23   13   15 ar  
    24   13   33 1   
    25   14   15 ar  
    26   14   21 ar  
    27   14   25 1   
    28   15   16 1   
    29   17   18 1   
    30   17   20 1   
    31   18   22 1   
    32   18   23 2   
    33   19   20 1   
    34   19   22 1   
    35   19   34 1   
    36   20   24 2   
    37   21   35 1   
@<TRIPOS>SUBSTRUCTURE
     1 5EE         1 TEMP              0 ****  ****    0 ROOT
