@<TRIPOS>MOLECULE
5EE
   35    37     1     0     0
SMALL
bcc


@<TRIPOS>ATOM
      1 S19         3.7310    0.3480   -0.7340 sy        1 5EE      1.571200
      2 O20         4.7370   -0.6190   -0.8380 o         1 5EE     -0.638300
      3 O21         2.8200    0.4370   -1.7950 o         1 5EE     -0.638300
      4 N22         2.9010    0.1010    0.7050 n3        1 5EE     -0.645100
      5 C24         4.4260    1.8140   -0.4340 cc        1 5EE     -0.537600
      6 S3          3.8090    3.3410   -0.5650 ss        1 5EE      0.339200
      7 C27         5.1820    4.1070   -0.1460 cc        1 5EE     -0.193100
      8 C29         6.2170    3.2100    0.1250 cd        1 5EE     -0.181000
      9 C30         5.7790    1.8830   -0.0420 cd        1 5EE     -0.030000
     10 C1         -1.6950    0.4580   -0.1230 c3        1 5EE     -0.021100
     11 C2         -3.1340    0.2250    0.1810 ca        1 5EE     -0.087300
     12 C4         -3.8190    1.0910    1.0430 ca        1 5EE     -0.119000
     13 C5         -5.1680    0.8930    1.3150 ca        1 5EE     -0.116000
     14 C6         -5.1740   -1.0450   -0.1400 ca        1 5EE      0.018400
     15 C8         -5.8540   -0.1770    0.7260 ca        1 5EE      0.021400
     16 CL1        -7.4980   -0.3940    1.0760 cl        1 5EE     -0.062400
     17 N1          1.6050   -0.2420    0.7850 n         1 5EE     -0.276800
     18 C9          1.1970   -1.5750    1.0720 c         1 5EE      0.322000
     19 C14        -0.8070    0.1130    1.0580 c3        1 5EE     -0.105600
     20 C7          0.5640    0.7420    0.8970 c         1 5EE      0.703500
     21 C3         -3.8160   -0.8410   -0.4100 ca        1 5EE     -0.103000
     22 S1         -0.5170   -1.6360    1.2480 ss        1 5EE     -0.090700
     23 S2          2.0630   -2.8410    1.2060 s         1 5EE     -0.226400
     24 O1          0.7690    1.9570    0.8410 o         1 5EE     -0.561500
     25 CL2        -5.9690   -2.3500   -0.8750 cl        1 5EE     -0.061400
     26 H22         3.3570    0.1500    1.5920 hn        1 5EE      0.444800
     27 H27         5.2880    5.1920   -0.0840 h4        1 5EE      0.183000
     28 H29         7.2300    3.4910    0.4220 ha        1 5EE      0.165000
     29 H30         6.4140    0.9990    0.0950 ha        1 5EE      0.181000
     30 H11        -1.3810   -0.1410   -1.0200 hc        1 5EE      0.082200
     31 H12        -1.5440    1.5460   -0.3760 hc        1 5EE      0.082200
     32 H4         -3.2880    1.9380    1.5030 ha        1 5EE      0.142000
     33 H5         -5.7010    1.5790    1.9930 ha        1 5EE      0.154000
     34 H14        -1.2680    0.5100    2.0030 h1        1 5EE      0.123700
     35 H3         -3.2850   -1.5260   -1.0920 ha        1 5EE      0.159000
@<TRIPOS>BOND
     1    1    2 2   
     2    1    3 2   
     3    1    4 1   
     4    1    5 1   
     5    4   17 1   
     6    4   26 1   
     7    5    6 1   
     8    5    9 2   
     9    6    7 1   
    10    7    8 2   
    11    7   27 1   
    12    8    9 1   
    13    8   28 1   
    14    9   29 1   
    15   10   11 1   
    16   10   19 1   
    17   10   30 1   
    18   10   31 1   
    19   11   12 ar  
    20   11   21 ar  
    21   12   13 ar  
    22   12   32 1   
    23   13   15 ar  
    24   13   33 1   
    25   14   15 ar  
    26   14   21 ar  
    27   14   25 1   
    28   15   16 1   
    29   17   18 1   
    30   17   20 1   
    31   18   22 1   
    32   18   23 2   
    33   19   20 1   
    34   19   22 1   
    35   19   34 1   
    36   20   24 2   
    37   21   35 1   
@<TRIPOS>SUBSTRUCTURE
     1 5EE         1 TEMP              0 ****  ****    0 ROOT
