@<TRIPOS>MOLECULE
5EE
   36    37     1     0     0
SMALL
bcc


@<TRIPOS>ATOM
      1 S19        -0.6800   -1.2840   -0.0330 s4        1 5EE      1.739300
      2 O20         0.0600   -0.6400    0.9040 o         1 5EE     -0.434900
      3 O21        -2.0260   -1.4090    0.0650 o         1 5EE     -0.434900
      4 N22        -0.7070    0.7380   -1.3680 n3        1 5EE     -0.731800
      5 C24         0.0590   -2.1710   -1.0350 cc        1 5EE     -0.778600
      6 S3         -0.4690   -3.2140   -2.2300 ss        1 5EE      0.527200
      7 C27         0.9730   -3.7070   -2.6920 cc        1 5EE     -0.166100
      8 C29         2.0210   -3.0980   -1.9570 cd        1 5EE     -0.150000
      9 C30         1.5070   -2.2240   -1.0140 cd        1 5EE     -0.011000
     10 C1         -5.3510    0.2050   -2.1350 c3        1 5EE     -0.013100
     11 C2         -6.6690    0.7270   -2.5900 ca        1 5EE     -0.112300
     12 C4         -7.0520    0.5950   -3.9310 ca        1 5EE     -0.118000
     13 C5         -8.2920    1.0580   -4.3560 ca        1 5EE     -0.111000
     14 C6         -8.7930    1.7880   -2.0990 ca        1 5EE      0.018400
     15 C8         -9.1710    1.6590   -3.4450 ca        1 5EE      0.030400
     16 CL1       -10.6710    2.2150   -3.9900 cl        1 5EE     -0.037400
     17 N1         -2.0050    1.1220   -1.5840 n         1 5EE     -0.408800
     18 C9         -2.4810    2.4310   -1.2260 c         1 5EE      0.261000
     19 C14        -4.2090    1.0770   -2.6310 c3        1 5EE     -0.114600
     20 C7         -2.8780    0.3850   -2.4500 c         1 5EE      0.725500
     21 C3         -7.5430    1.3190   -1.6770 ca        1 5EE     -0.103000
     22 S1         -4.0790    2.6380   -1.7680 ss        1 5EE      0.050300
     23 S2         -1.6620    3.4730   -0.4320 s         1 5EE     -0.206400
     24 O1         -2.5360   -0.6950   -2.9440 o         1 5EE     -0.591500
     25 CL2        -9.8250    2.5020   -0.9630 cl        1 5EE     -0.042400
     26 H22        -0.2500    1.4610   -0.7970 hn        1 5EE      0.414300
     27 H27         1.1730   -4.4390   -3.4880 h4        1 5EE      0.224000
     28 H29         3.0860   -3.3000   -2.1160 ha        1 5EE      0.203000
     29 H30         2.1080   -1.6350   -0.3080 ha        1 5EE      0.199000
     30 H11        -5.2020   -0.8360   -2.5390 hc        1 5EE      0.080700
     31 H12        -5.3200    0.1400   -1.0140 hc        1 5EE      0.080700
     32 H4         -6.3740    0.1150   -4.6520 ha        1 5EE      0.138000
     33 H5         -8.5890    0.9510   -5.4120 ha        1 5EE      0.162000
     34 H14        -4.3550    1.2840   -3.7280 h1        1 5EE      0.143700
     35 H3         -7.2560    1.4170   -0.6170 ha        1 5EE      0.155000
     36 H222       -0.2130    0.6850   -2.2570 hn        1 5EE      0.414300
@<TRIPOS>BOND
     1    1    2 1   
     2    1    3 1   
     3    1    5 1   
     4    4   17 1   
     5    4   26 1   
     6    4   36 1   
     7    5    6 1   
     8    5    9 2   
     9    6    7 1   
    10    7    8 2   
    11    7   27 1   
    12    8    9 1   
    13    8   28 1   
    14    9   29 1   
    15   10   11 1   
    16   10   19 1   
    17   10   30 1   
    18   10   31 1   
    19   11   12 ar  
    20   11   21 ar  
    21   12   13 ar  
    22   12   32 1   
    23   13   15 ar  
    24   13   33 1   
    25   14   15 ar  
    26   14   21 ar  
    27   14   25 1   
    28   15   16 1   
    29   17   18 1   
    30   17   20 1   
    31   18   22 1   
    32   18   23 2   
    33   19   20 1   
    34   19   22 1   
    35   19   34 1   
    36   20   24 2   
    37   21   35 1   
@<TRIPOS>SUBSTRUCTURE
     1 5EE         1 TEMP              0 ****  ****    0 ROOT
