@<TRIPOS>MOLECULE
5EE
   36    37     1     0     0
SMALL
bcc


@<TRIPOS>ATOM
      1 S19        -0.6800   -1.2700   -0.0190 s4        1 5EE      1.739300
      2 O20         0.0660   -0.6180    0.9070 o         1 5EE     -0.434900
      3 O21        -2.0260   -1.3850    0.0840 o         1 5EE     -0.434900
      4 N22        -0.6970    0.7340   -1.3820 n8        1 5EE     -0.731800
      5 C24         0.0510   -2.1750   -1.0110 cc        1 5EE     -0.778600
      6 S3         -0.4870   -3.2310   -2.1900 ss        1 5EE      0.527200
      7 C27         0.9510   -3.7390   -2.6490 cc        1 5EE     -0.166100
      8 C29         2.0040   -3.1270   -1.9250 cd        1 5EE     -0.150000
      9 C30         1.4980   -2.2370   -0.9930 cd        1 5EE     -0.011000
     10 C1         -5.3470    0.2220   -2.1300 c3        1 5EE     -0.013100
     11 C2         -6.6620    0.7450   -2.5900 ca        1 5EE     -0.112300
     12 C4         -7.0490    0.5970   -3.9280 ca        1 5EE     -0.118000
     13 C5         -8.2870    1.0630   -4.3570 ca        1 5EE     -0.111000
     14 C6         -8.7780    1.8280   -2.1100 ca        1 5EE      0.018400
     15 C8         -9.1590    1.6830   -3.4530 ca        1 5EE      0.030400
     16 Cl1       -10.6570    2.2400   -4.0030 cl        1 5EE     -0.037400
     17 N1         -1.9930    1.1240   -1.6000 n         1 5EE     -0.408800
     18 C9         -2.4600    2.4400   -1.2590 c         1 5EE      0.261000
     19 C14        -4.2000    1.0780   -2.6410 c3        1 5EE     -0.114600
     20 C7         -2.8740    0.3800   -2.4530 c         1 5EE      0.725500
     21 C3         -7.5300    1.3570   -1.6830 ca        1 5EE     -0.103000
     22 S1         -4.0580    2.6510   -1.8010 ss        1 5EE      0.050300
     23 S2         -1.6320    3.4880   -0.4810 s         1 5EE     -0.206400
     24 O1         -2.5400   -0.7080   -2.9320 o         1 5EE     -0.591500
     25 Cl2        -9.8020    2.5660   -0.9830 cl        1 5EE     -0.042400
     26 H22        -0.2340    1.4620   -0.8210 hn        1 5EE      0.414300
     27 H27         1.1450   -4.4820   -3.4360 h4        1 5EE      0.224000
     28 H29         3.0680   -3.3380   -2.0840 ha        1 5EE      0.203000
     29 H30         2.1060   -1.6420   -0.2960 ha        1 5EE      0.199000
     30 H11        -5.3140    0.1720   -1.0090 hc        1 5EE      0.080700
     31 H12        -5.2060   -0.8260   -2.5200 hc        1 5EE      0.080700
     32 H4         -6.3760    0.1020   -4.6440 ha        1 5EE      0.138000
     33 H5         -8.5860    0.9410   -5.4110 ha        1 5EE      0.162000
     34 H14        -4.3470    1.2710   -3.7410 h1        1 5EE      0.143700
     35 H3         -7.2400    1.4680   -0.6260 ha        1 5EE      0.155000
     36 H222       -0.2060    0.6660   -2.2720 hn        1 5EE      0.414300
@<TRIPOS>BOND
     1    1    2 1   
     2    1    3 1   
     3    1    5 1   
     4    4   17 1   
     5    4   26 1   
     6    4   36 1   
     7    5    6 1   
     8    5    9 2   
     9    6    7 1   
    10    7    8 2   
    11    7   27 1   
    12    8    9 1   
    13    8   28 1   
    14    9   29 1   
    15   10   11 1   
    16   10   19 1   
    17   10   30 1   
    18   10   31 1   
    19   11   12 ar  
    20   11   21 ar  
    21   12   13 ar  
    22   12   32 1   
    23   13   15 ar  
    24   13   33 1   
    25   14   15 ar  
    26   14   21 ar  
    27   14   25 1   
    28   15   16 1   
    29   17   18 1   
    30   17   20 1   
    31   18   22 1   
    32   18   23 2   
    33   19   20 1   
    34   19   22 1   
    35   19   34 1   
    36   20   24 2   
    37   21   35 1   
@<TRIPOS>SUBSTRUCTURE
     1 5EE         1 TEMP              0 ****  ****    0 ROOT
