@<TRIPOS>MOLECULE
5EE
   35    30     1     0     0
SMALL
bcc


@<TRIPOS>ATOM
      1 S19         3.1280   -0.6420   -1.3360 ss        1 5EE      2.917000
      2 O20         2.6170    0.1670   -2.4080 o         1 5EE     -0.919500
      3 O21         3.6810    0.3610   -0.4690 o         1 5EE     -0.919500
      4 N22         1.9250   -1.4740   -0.5920 n2        1 5EE     -0.749000
      5 C24         4.3800   -1.7560   -1.9120 c1        1 5EE     -0.881000
      6 S3          5.6050   -2.2540   -1.0980 ss        1 5EE      0.890000
      7 C27         6.4310   -3.1900   -2.0200 c1        1 5EE     -0.881000
      8 C29         5.7590   -3.2580   -3.3040 c1        1 5EE     -0.103500
      9 C30         4.4550   -2.3470   -3.2360 c1        1 5EE     -0.103500
     10 C1         -2.7220    0.4980    0.1120 c3        1 5EE     -0.107000
     11 C2         -3.4140    1.4560    1.0590 c2        1 5EE     -0.086000
     12 C4         -3.8890    2.6710    0.5890 c2        1 5EE     -0.116000
     13 C5         -4.6270    3.4960    1.4220 c1        1 5EE     -0.113000
     14 C6         -4.4150    1.8930    3.1970 c1        1 5EE     -0.057500
     15 C8         -4.8900    3.1070    2.7270 c1        1 5EE     -0.057500
     16 CL1        -5.8750    4.1150    3.7540 cl        1 5EE      0.020000
     17 N1          0.8710   -0.7940   -0.0100 n         1 5EE     -0.154000
     18 C9          0.6990   -0.5200    1.4650 c2        1 5EE     -0.196000
     19 C14        -1.1740    0.6240    0.2820 c3        1 5EE     -0.292000
     20 C7         -0.4160   -0.5770   -0.5970 c2        1 5EE      0.306000
     21 C3         -3.6770    1.0680    2.3640 c1        1 5EE     -0.106000
     22 S1         -0.8120    0.2820    1.6150 ss        1 5EE      0.356000
     23 S2          1.9080   -0.5660    2.6220 s         1 5EE     -0.041000
     24 O1         -0.8200   -1.0680   -1.6320 o         1 5EE     -0.243000
     25 CL2        -4.8110    1.3700    4.8120 cl        1 5EE      0.020000
     26 H22         1.9580   -2.3830   -0.5510 hn        1 5EE      0.245000
     27 H27         7.2570   -3.6510   -1.7790 DU        1 5EE      0.165333
     28 H29         6.0560   -3.7750   -4.0780 DU        1 5EE      0.165333
     29 H30         3.8150   -2.2090   -3.9600 DU        1 5EE      0.165333
     30 H11        -2.9670    0.7160   -0.8090 hc        1 5EE      0.120000
     31 H12        -2.9990   -0.4190    0.3150 hc        1 5EE      0.120000
     32 H4         -3.7040    2.9440   -0.3290 ha        1 5EE      0.146000
     33 H5         -4.9610    4.3520    1.0910 ha        1 5EE      0.157000
     34 H14        -1.0280    1.5490   -0.0010 h1        1 5EE      0.177000
     35 H3         -3.3430    0.2130    2.6950 ha        1 5EE      0.155000
@<TRIPOS>BOND
     1    1    2 1   
     2    1    3 1   
     3    4   17 1   
     4    4   26 1   
     5    5    6 1   
     6    5    9 1   
     7    6    7 1   
     8    7    8 1   
     9    8    9 1   
    10   10   11 1   
    11   10   19 1   
    12   10   30 1   
    13   10   31 1   
    14   11   12 1   
    15   11   21 1   
    16   12   13 1   
    17   12   32 1   
    18   13   33 1   
    19   14   15 1   
    20   14   25 1   
    21   15   16 1   
    22   17   18 1   
    23   17   20 1   
    24   18   22 1   
    25   18   23 1   
    26   19   20 1   
    27   19   22 1   
    28   19   34 1   
    29   20   24 1   
    30   21   35 1   
@<TRIPOS>SUBSTRUCTURE
     1 5EE         1 TEMP              0 ****  ****    0 ROOT
