@<TRIPOS>MOLECULE
5EH
   43    45     1     0     0
SMALL
bcc


@<TRIPOS>ATOM
      1 C01         0.0260    0.0250    0.3040 c3        1 5EH      0.081600
      2 N02         1.5040   -0.0490    0.1700 nx        1 5EH     -0.680400
      3 C03         2.1420   -0.1960    1.5040 c3        1 5EH      0.081600
      4 C04         1.9140   -1.1730   -0.7410 c3        1 5EH      0.103800
      5 C05         1.7480   -0.8360   -2.2240 c3        1 5EH     -0.057200
      6 C06         2.1310   -2.0360   -3.0050 c2        1 5EH     -0.219200
      7 C07         1.3250   -2.7160   -3.8410 ce        1 5EH      0.086600
      8 C08        -0.0500   -2.3250   -4.1740 ca        1 5EH     -0.070800
      9 C09        -0.2550   -1.0210   -4.6620 ca        1 5EH     -0.130000
     10 C10        -1.5220   -0.5780   -5.0180 ca        1 5EH     -0.131000
     11 C11        -2.6150   -1.4370   -4.8890 ca        1 5EH     -0.108000
     12 C12        -2.4220   -2.7320   -4.4250 ca        1 5EH     -0.131000
     13 C13        -1.1420   -3.2000   -4.0750 ca        1 5EH     -0.086300
     14 C14        -1.0970   -4.6360   -3.6540 c3        1 5EH      0.170700
     15 O15         0.1490   -5.1370   -3.1780 os        1 5EH     -0.338900
     16 C16         1.1570   -5.1570   -4.1360 ca        1 5EH      0.101100
     17 C17         1.5760   -6.3790   -4.6710 ca        1 5EH     -0.128000
     18 C18         2.6630   -6.3920   -5.5460 ca        1 5EH     -0.101000
     19 C19         3.3130   -5.2050   -5.8830 ca        1 5EH     -0.130000
     20 C20         2.8940   -3.9880   -5.3430 ca        1 5EH     -0.098000
     21 C21         1.8080   -3.9540   -4.4640 ca        1 5EH     -0.104800
     22 H01        -0.3540   -0.9080    0.8020 hx        1 5EH      0.105533
     23 H01A       -0.4370    0.1170   -0.7150 hx        1 5EH      0.105533
     24 H01B       -0.2470    0.9190    0.9260 hx        1 5EH      0.105533
     25 H03         1.8550   -1.1870    1.9490 hx        1 5EH      0.105533
     26 H03A        1.7940    0.6320    2.1780 hx        1 5EH      0.105533
     27 H03B        3.2590   -0.1450    1.3930 hx        1 5EH      0.105533
     28 H04         2.9980   -1.4080   -0.5310 hx        1 5EH      0.109200
     29 H04A        1.2940   -2.0780   -0.4800 hx        1 5EH      0.109200
     30 H05         0.6880   -0.5370   -2.4430 hc        1 5EH      0.068200
     31 H05A        2.4150    0.0240   -2.5050 hc        1 5EH      0.068200
     32 H06         3.1680   -2.3810   -2.8500 ha        1 5EH      0.143000
     33 H09         0.6130   -0.3540   -4.7880 ha        1 5EH      0.133000
     34 H10        -1.6620    0.4390   -5.4130 ha        1 5EH      0.144000
     35 H11        -3.6240   -1.0950   -5.1700 ha        1 5EH      0.148000
     36 H12        -3.2830   -3.4150   -4.3420 ha        1 5EH      0.145000
     37 H14        -1.4460   -5.2730   -4.5140 h1        1 5EH      0.072700
     38 H14A       -1.7760   -4.7950   -2.7680 h1        1 5EH      0.072700
     39 H17         1.0580   -7.3080   -4.3920 ha        1 5EH      0.157000
     40 H18         3.0040   -7.3470   -5.9760 ha        1 5EH      0.149000
     41 H19         4.1650   -5.2250   -6.5810 ha        1 5EH      0.147000
     42 H20         3.4110   -3.0560   -5.6120 ha        1 5EH      0.140000
     43 H021        1.8310    0.8320   -0.2500 hn        1 5EH      0.448800
@<TRIPOS>BOND
     1    1    2 1   
     2    1   22 1   
     3    1   23 1   
     4    1   24 1   
     5    2    3 1   
     6    2    4 1   
     7    2   43 1   
     8    3   25 1   
     9    3   26 1   
    10    3   27 1   
    11    4    5 1   
    12    4   28 1   
    13    4   29 1   
    14    5    6 1   
    15    5   30 1   
    16    5   31 1   
    17    6    7 2   
    18    6   32 1   
    19    7    8 1   
    20    7   21 1   
    21    8    9 ar  
    22    8   13 ar  
    23    9   10 ar  
    24    9   33 1   
    25   10   11 ar  
    26   10   34 1   
    27   11   12 ar  
    28   11   35 1   
    29   12   13 ar  
    30   12   36 1   
    31   13   14 1   
    32   14   15 1   
    33   14   37 1   
    34   14   38 1   
    35   15   16 1   
    36   16   17 ar  
    37   16   21 ar  
    38   17   18 ar  
    39   17   39 1   
    40   18   19 ar  
    41   18   40 1   
    42   19   20 ar  
    43   19   41 1   
    44   20   21 ar  
    45   20   42 1   
@<TRIPOS>SUBSTRUCTURE
     1 5EH         1 TEMP              0 ****  ****    0 ROOT
