@<TRIPOS>MOLECULE
5EH
   43    45     1     0     0
SMALL
bcc


@<TRIPOS>ATOM
      1 C01         0.0190    0.0350    0.2990 c3        1 5EH      0.081600
      2 N02         1.4980   -0.0420    0.1720 n4        1 5EH     -0.680400
      3 C03         2.1290   -0.1850    1.5100 c3        1 5EH      0.081600
      4 C04         1.9110   -1.1690   -0.7330 c3        1 5EH      0.103800
      5 C05         1.7530   -0.8380   -2.2180 c3        1 5EH     -0.057200
      6 C06         2.1370   -2.0410   -2.9930 c2        1 5EH     -0.219200
      7 C07         1.3340   -2.7220   -3.8310 ce        1 5EH      0.086600
      8 C08        -0.0380   -2.3290   -4.1730 ca        1 5EH     -0.070800
      9 C09        -0.2370   -1.0260   -4.6650 ca        1 5EH     -0.130000
     10 C10        -1.5020   -0.5810   -5.0300 ca        1 5EH     -0.131000
     11 C11        -2.5980   -1.4370   -4.9040 ca        1 5EH     -0.108000
     12 C12        -2.4100   -2.7300   -4.4350 ca        1 5EH     -0.131000
     13 C13        -1.1330   -3.2000   -4.0760 ca        1 5EH     -0.086300
     14 C14        -1.0940   -4.6350   -3.6510 c3        1 5EH      0.170700
     15 O15         0.1490   -5.1380   -3.1660 os        1 5EH     -0.338900
     16 C16         1.1610   -5.1640   -4.1190 ca        1 5EH      0.101100
     17 C17         1.5800   -6.3880   -4.6470 ca        1 5EH     -0.128000
     18 C18         2.6710   -6.4060   -5.5170 ca        1 5EH     -0.101000
     19 C19         3.3270   -5.2220   -5.8540 ca        1 5EH     -0.130000
     20 C20         2.9070   -4.0030   -5.3200 ca        1 5EH     -0.098000
     21 C21         1.8170   -3.9630   -4.4470 ca        1 5EH     -0.104800
     22 H01        -0.4390    0.1240   -0.7230 hx        1 5EH      0.105533
     23 H01A       -0.2560    0.9320    0.9160 hx        1 5EH      0.105533
     24 H01B       -0.3640   -0.8950    0.7980 hx        1 5EH      0.105533
     25 H03         1.7780    0.6460    2.1790 hx        1 5EH      0.105533
     26 H03A        1.8380   -1.1740    1.9560 hx        1 5EH      0.105533
     27 H03B        3.2460   -0.1360    1.4040 hx        1 5EH      0.105533
     28 H04         1.2880   -2.0720   -0.4730 hx        1 5EH      0.109200
     29 H04A        2.9930   -1.4060   -0.5170 hx        1 5EH      0.109200
     30 H05         0.6940   -0.5360   -2.4440 hc        1 5EH      0.068200
     31 H05A        2.4230    0.0200   -2.4980 hc        1 5EH      0.068200
     32 H06         3.1720   -2.3880   -2.8320 ha        1 5EH      0.143000
     33 H09         0.6330   -0.3610   -4.7900 ha        1 5EH      0.133000
     34 H10        -1.6370    0.4360   -5.4300 ha        1 5EH      0.144000
     35 H11        -3.6040   -1.0930   -5.1910 ha        1 5EH      0.148000
     36 H12        -3.2730   -3.4110   -4.3540 ha        1 5EH      0.145000
     37 H14        -1.7780   -4.7900   -2.7680 h1        1 5EH      0.072700
     38 H14A       -1.4400   -5.2740   -4.5100 h1        1 5EH      0.072700
     39 H17         1.0580   -7.3150   -4.3690 ha        1 5EH      0.157000
     40 H18         3.0130   -7.3630   -5.9410 ha        1 5EH      0.149000
     41 H19         4.1810   -5.2470   -6.5480 ha        1 5EH      0.147000
     42 H20         3.4280   -3.0720   -5.5890 ha        1 5EH      0.140000
     43 H021        1.8280    0.8370   -0.2500 hn        1 5EH      0.448800
@<TRIPOS>BOND
     1    1    2 1   
     2    1   22 1   
     3    1   23 1   
     4    1   24 1   
     5    2    3 1   
     6    2    4 1   
     7    2   43 1   
     8    3   25 1   
     9    3   26 1   
    10    3   27 1   
    11    4    5 1   
    12    4   28 1   
    13    4   29 1   
    14    5    6 1   
    15    5   30 1   
    16    5   31 1   
    17    6    7 2   
    18    6   32 1   
    19    7    8 1   
    20    7   21 1   
    21    8    9 ar  
    22    8   13 ar  
    23    9   10 ar  
    24    9   33 1   
    25   10   11 ar  
    26   10   34 1   
    27   11   12 ar  
    28   11   35 1   
    29   12   13 ar  
    30   12   36 1   
    31   13   14 1   
    32   14   15 1   
    33   14   37 1   
    34   14   38 1   
    35   15   16 1   
    36   16   17 ar  
    37   16   21 ar  
    38   17   18 ar  
    39   17   39 1   
    40   18   19 ar  
    41   18   40 1   
    42   19   20 ar  
    43   19   41 1   
    44   20   21 ar  
    45   20   42 1   
@<TRIPOS>SUBSTRUCTURE
     1 5EH         1 TEMP              0 ****  ****    0 ROOT
