@<TRIPOS>MOLECULE
5EH
   43    45     1     0     0
SMALL
bcc


@<TRIPOS>ATOM
      1 C01         0.0280    0.0340    0.2970 c3        1 5EH      0.081600
      2 N02         1.5060   -0.0450    0.1660 n4        1 5EH     -0.680400
      3 C03         2.1420   -0.1920    1.5010 c3        1 5EH      0.081600
      4 C04         1.9150   -1.1710   -0.7440 c3        1 5EH      0.103800
      5 C05         1.7520   -0.8360   -2.2280 c3        1 5EH     -0.057200
      6 C06         2.1320   -2.0380   -3.0060 c2        1 5EH     -0.219200
      7 C07         1.3260   -2.7190   -3.8410 ce        1 5EH      0.086600
      8 C08        -0.0490   -2.3270   -4.1740 ca        1 5EH     -0.070800
      9 C09        -0.2520   -1.0230   -4.6650 ca        1 5EH     -0.130000
     10 C10        -1.5190   -0.5790   -5.0220 ca        1 5EH     -0.131000
     11 C11        -2.6130   -1.4370   -4.8910 ca        1 5EH     -0.108000
     12 C12        -2.4210   -2.7310   -4.4240 ca        1 5EH     -0.131000
     13 C13        -1.1420   -3.2000   -4.0730 ca        1 5EH     -0.086300
     14 C14        -1.0990   -4.6340   -3.6490 c3        1 5EH      0.170700
     15 O15         0.1470   -5.1370   -3.1710 os        1 5EH     -0.338900
     16 C16         1.1540   -5.1600   -4.1300 ca        1 5EH      0.101100
     17 C17         1.5710   -6.3830   -4.6620 ca        1 5EH     -0.128000
     18 C18         2.6580   -6.4000   -5.5370 ca        1 5EH     -0.101000
     19 C19         3.3100   -5.2150   -5.8770 ca        1 5EH     -0.130000
     20 C20         2.8920   -3.9970   -5.3390 ca        1 5EH     -0.098000
     21 C21         1.8070   -3.9590   -4.4610 ca        1 5EH     -0.104800
     22 H01        -0.2440    0.9300    0.9170 hx        1 5EH      0.105533
     23 H01A       -0.3550   -0.8970    0.7950 hx        1 5EH      0.105533
     24 H01B       -0.4330    0.1260   -0.7230 hx        1 5EH      0.105533
     25 H03         3.2580   -0.1440    1.3910 hx        1 5EH      0.105533
     26 H03A        1.7940    0.6390    2.1720 hx        1 5EH      0.105533
     27 H03B        1.8510   -1.1810    1.9460 hx        1 5EH      0.105533
     28 H04         1.2920   -2.0730   -0.4820 hx        1 5EH      0.109200
     29 H04A        2.9970   -1.4080   -0.5320 hx        1 5EH      0.109200
     30 H05         2.4210    0.0220   -2.5080 hc        1 5EH      0.068200
     31 H05A        0.6920   -0.5340   -2.4490 hc        1 5EH      0.068200
     32 H06         3.1690   -2.3840   -2.8500 ha        1 5EH      0.143000
     33 H09         0.6170   -0.3580   -4.7940 ha        1 5EH      0.133000
     34 H10        -1.6570    0.4370   -5.4200 ha        1 5EH      0.144000
     35 H11        -3.6210   -1.0940   -5.1720 ha        1 5EH      0.148000
     36 H12        -3.2830   -3.4120   -4.3390 ha        1 5EH      0.145000
     37 H14        -1.4490   -5.2730   -4.5070 h1        1 5EH      0.072700
     38 H14A       -1.7780   -4.7910   -2.7620 h1        1 5EH      0.072700
     39 H17         1.0520   -7.3110   -4.3810 ha        1 5EH      0.157000
     40 H18         2.9980   -7.3560   -5.9650 ha        1 5EH      0.149000
     41 H19         4.1610   -5.2380   -6.5750 ha        1 5EH      0.147000
     42 H20         3.4110   -3.0650   -5.6110 ha        1 5EH      0.140000
     43 H021        1.8360    0.8350   -0.2560 hn        1 5EH      0.448800
@<TRIPOS>BOND
     1    1    2 1   
     2    1   22 1   
     3    1   23 1   
     4    1   24 1   
     5    2    3 1   
     6    2    4 1   
     7    2   43 1   
     8    3   25 1   
     9    3   26 1   
    10    3   27 1   
    11    4    5 1   
    12    4   28 1   
    13    4   29 1   
    14    5    6 1   
    15    5   30 1   
    16    5   31 1   
    17    6    7 2   
    18    6   32 1   
    19    7    8 1   
    20    7   21 1   
    21    8    9 ar  
    22    8   13 ar  
    23    9   10 ar  
    24    9   33 1   
    25   10   11 ar  
    26   10   34 1   
    27   11   12 ar  
    28   11   35 1   
    29   12   13 ar  
    30   12   36 1   
    31   13   14 1   
    32   14   15 1   
    33   14   37 1   
    34   14   38 1   
    35   15   16 1   
    36   16   17 ar  
    37   16   21 ar  
    38   17   18 ar  
    39   17   39 1   
    40   18   19 ar  
    41   18   40 1   
    42   19   20 ar  
    43   19   41 1   
    44   20   21 ar  
    45   20   42 1   
@<TRIPOS>SUBSTRUCTURE
     1 5EH         1 TEMP              0 ****  ****    0 ROOT
