@<TRIPOS>MOLECULE
5EH
   42    39     1     0     0
SMALL
bcc


@<TRIPOS>ATOM
      1 C01         2.7760    1.6330    4.0580 c3        1 5EH     -0.120500
      2 N02         2.4900    0.9440    2.8350 n3        1 5EH     -0.265000
      3 C03         3.0610   -0.3730    2.8790 c3        1 5EH     -0.120500
      4 C04         1.0260    0.8500    2.6460 c3        1 5EH     -0.063000
      5 C05         0.6780    1.2060    1.1990 c3        1 5EH     -0.140000
      6 C06        -0.4980    0.3360    0.7200 c2        1 5EH     -0.129000
      7 C07        -0.7090    0.1530   -0.6130 c1        1 5EH     -0.039000
      8 C08        -2.0400    0.4800   -1.3470 c1        1 5EH     -0.014000
      9 C09        -2.5490    1.7910   -1.3820 c2        1 5EH     -0.123000
     10 C10        -3.9250    2.0080   -1.3860 c1        1 5EH     -0.129000
     11 C11        -4.8060    0.9200   -1.3550 c1        1 5EH     -0.126750
     12 C12        -4.2950   -0.4030   -1.3190 c1        1 5EH     -0.126750
     13 C13        -2.9120   -0.6150   -1.3150 c1        1 5EH     -0.088000
     14 C14        -2.1940   -1.9100   -1.8480 c3        1 5EH      0.022000
     15 O15        -1.1170   -2.2580   -1.0200 os        1 5EH     -0.215000
     16 C16         0.1360   -1.8770   -1.6140 c2        1 5EH      0.056000
     17 C17         1.1270   -2.7020   -2.2160 c2        1 5EH     -0.138000
     18 C18         2.2400   -2.1430   -2.7540 c1        1 5EH     -0.119000
     19 C19         2.4130   -0.7550   -2.7160 c1        1 5EH     -0.126750
     20 C20         1.4330    0.0620   -2.1200 c1        1 5EH     -0.126750
     21 C21         0.3060   -0.5030   -1.5760 c1        1 5EH     -0.050000
     22 H01         2.3690    2.5450    4.0270 h1        1 5EH      0.070333
     23 H01A        2.3940    1.1250    4.8260 h1        1 5EH      0.070333
     24 H01B        3.7250    1.7100    4.1680 h1        1 5EH      0.070333
     25 H03         4.0480   -0.3030    3.0050 h1        1 5EH      0.070333
     26 H03A        2.6770   -0.8660    3.6130 h1        1 5EH      0.070333
     27 H03B        2.8750   -0.8290    2.0570 h1        1 5EH      0.070333
     28 H04         0.5440    1.5260    3.2970 h1        1 5EH      0.073000
     29 H04A        0.7130   -0.1030    2.8500 h1        1 5EH      0.073000
     30 H05         0.4200    2.1730    1.1460 hc        1 5EH      0.101000
     31 H05A        1.4910    1.0400    0.6020 hc        1 5EH      0.101000
     32 H06        -1.0440   -0.1630    1.3810 ha        1 5EH      0.128000
     33 H09        -1.8990    2.5970   -1.4050 ha        1 5EH      0.135000
     34 H10        -4.2870    2.9510   -1.4130 ha        1 5EH      0.133000
     35 H11        -5.7690    1.0720   -1.3580 ha        1 5EH      0.133750
     36 H12        -4.9360   -1.2010   -1.2940 ha        1 5EH      0.133750
     37 H14        -2.8080   -2.6190   -1.8720 h1        1 5EH      0.100500
     38 H14A       -1.8570   -1.7400   -2.7670 h1        1 5EH      0.100500
     39 H17         0.9990   -3.7310   -2.2450 ha        1 5EH      0.145000
     40 H18         2.9550   -2.7390   -3.1890 ha        1 5EH      0.134000
     41 H19         3.1900   -0.3660   -3.0920 ha        1 5EH      0.133750
     42 H20         1.5600    1.0770   -2.0930 ha        1 5EH      0.133750
@<TRIPOS>BOND
     1    1    2 1   
     2    1   22 1   
     3    1   23 1   
     4    1   24 1   
     5    2    3 1   
     6    2    4 1   
     7    3   25 1   
     8    3   26 1   
     9    3   27 1   
    10    4    5 1   
    11    4   28 1   
    12    4   29 1   
    13    5    6 1   
    14    5   30 1   
    15    5   31 1   
    16    6    7 1   
    17    6   32 1   
    18    7   21 1   
    19    8    9 1   
    20    8   13 1   
    21    9   10 1   
    22    9   33 1   
    23   10   34 1   
    24   11   12 1   
    25   11   35 1   
    26   12   36 1   
    27   13   14 1   
    28   14   15 1   
    29   14   37 1   
    30   14   38 1   
    31   15   16 1   
    32   16   17 1   
    33   16   21 1   
    34   17   18 1   
    35   17   39 1   
    36   18   40 1   
    37   19   20 1   
    38   19   41 1   
    39   20   42 1   
@<TRIPOS>SUBSTRUCTURE
     1 5EH         1 TEMP              0 ****  ****    0 ROOT
