@<TRIPOS>MOLECULE
5EH
   42    44     1     0     0
SMALL
bcc


@<TRIPOS>ATOM
      1 C01         4.8450   -0.4130    0.6580 c3        1 5EH      0.156100
      2 N02         4.3230   -1.6680    0.1680 n3        1 5EH     -0.739600
      3 C03         5.0320   -2.8120    0.6980 c3        1 5EH      0.156100
      4 C04         2.8790   -1.7970    0.3270 c3        1 5EH      0.172800
      5 C05         2.0780   -0.7970   -0.5120 c3        1 5EH     -0.056200
      6 C06         0.6370   -1.1300   -0.4650 c2        1 5EH     -0.132200
      7 C07        -0.3770   -0.2450   -0.4140 ce        1 5EH     -0.016400
      8 C08        -0.2030    1.2110   -0.4260 ca        1 5EH     -0.024800
      9 C09         0.6220    1.7570   -1.4280 ca        1 5EH     -0.121000
     10 C10         0.8350    3.1270   -1.5200 ca        1 5EH     -0.131000
     11 C11         0.2230    3.9840   -0.6050 ca        1 5EH     -0.124000
     12 C12        -0.6000    3.4580    0.3830 ca        1 5EH     -0.135000
     13 C13        -0.8310    2.0740    0.4840 ca        1 5EH     -0.095300
     14 C14        -1.7610    1.6870    1.5890 c3        1 5EH      0.179700
     15 O15        -1.9740    0.3000    1.8350 os        1 5EH     -0.331900
     16 C16        -2.5460   -0.3930    0.7760 ca        1 5EH      0.101100
     17 C17        -3.8650   -0.8440    0.8980 ca        1 5EH     -0.137000
     18 C18        -4.4020   -1.6440   -0.1090 ca        1 5EH     -0.119000
     19 C19        -3.6340   -1.9820   -1.2230 ca        1 5EH     -0.139000
     20 C20        -2.3200   -1.5300   -1.3390 ca        1 5EH     -0.108000
     21 C21        -1.7600   -0.7270   -0.3410 ca        1 5EH     -0.065800
     22 H01         5.9540   -0.3860    0.4900 h1        1 5EH      0.030867
     23 H01A        4.3770    0.4260    0.0790 h1        1 5EH      0.030867
     24 H01B        4.6460   -0.2450    1.7530 h1        1 5EH      0.030867
     25 H03         4.8980   -2.9440    1.8070 h1        1 5EH      0.030867
     26 H03A        4.6670   -3.7390    0.1830 h1        1 5EH      0.030867
     27 H03B        6.1260   -2.6910    0.4830 h1        1 5EH      0.030867
     28 H04         2.5950   -2.8390    0.0040 h1        1 5EH      0.033700
     29 H04A        2.5690   -1.6810    1.4070 h1        1 5EH      0.033700
     30 H05         2.2550    0.2470   -0.1370 hc        1 5EH      0.061200
     31 H05A        2.4260   -0.8330   -1.5810 hc        1 5EH      0.061200
     32 H06         0.4030   -2.2100   -0.4680 ha        1 5EH      0.129000
     33 H09         1.1000    1.0790   -2.1520 ha        1 5EH      0.137000
     34 H10         1.4820    3.5330   -2.3120 ha        1 5EH      0.134000
     35 H11         0.3880    5.0690   -0.6670 ha        1 5EH      0.133000
     36 H12        -1.0870    4.1350    1.1020 ha        1 5EH      0.130000
     37 H14        -1.3390    2.0390    2.5750 h1        1 5EH      0.061200
     38 H14A       -2.7580    2.1790    1.4100 h1        1 5EH      0.061200
     39 H17        -4.4540   -0.5780    1.7870 ha        1 5EH      0.145000
     40 H18        -5.4360   -2.0080   -0.0230 ha        1 5EH      0.134000
     41 H19        -4.0660   -2.6110   -2.0160 ha        1 5EH      0.133000
     42 H20        -1.7160   -1.8030   -2.2170 ha        1 5EH      0.137000
@<TRIPOS>BOND
     1    1    2 1   
     2    1   22 1   
     3    1   23 1   
     4    1   24 1   
     5    2    3 1   
     6    2    4 1   
     7    3   25 1   
     8    3   26 1   
     9    3   27 1   
    10    4    5 1   
    11    4   28 1   
    12    4   29 1   
    13    5    6 1   
    14    5   30 1   
    15    5   31 1   
    16    6    7 2   
    17    6   32 1   
    18    7    8 1   
    19    7   21 1   
    20    8    9 ar  
    21    8   13 ar  
    22    9   10 ar  
    23    9   33 1   
    24   10   11 ar  
    25   10   34 1   
    26   11   12 ar  
    27   11   35 1   
    28   12   13 ar  
    29   12   36 1   
    30   13   14 1   
    31   14   15 1   
    32   14   37 1   
    33   14   38 1   
    34   15   16 1   
    35   16   17 ar  
    36   16   21 ar  
    37   17   18 ar  
    38   17   39 1   
    39   18   19 ar  
    40   18   40 1   
    41   19   20 ar  
    42   19   41 1   
    43   20   21 ar  
    44   20   42 1   
@<TRIPOS>SUBSTRUCTURE
     1 5EH         1 TEMP              0 ****  ****    0 ROOT
