@<TRIPOS>MOLECULE
5EL
   62    66     1     0     0
SMALL
bcc


@<TRIPOS>ATOM
      1 C1         -0.0850   -0.2920    1.1420 ca        1 5EL     -0.101500
      2 C2          1.1510   -0.5320    1.7340 ca        1 5EL     -0.121500
      3 C3          1.2010   -0.7870    3.1090 ca        1 5EL      0.036100
      4 C4          0.0490   -0.8040    3.9010 ca        1 5EL     -0.121500
      5 C5         -1.1820   -0.5590    3.2970 ca        1 5EL     -0.101500
      6 C6         -1.2590   -0.3060    1.9170 ca        1 5EL      0.068000
      7 C7         -2.5030   -0.0680    1.3060 cg        1 5EL     -0.148000
      8 C8         -3.5600    0.1400    0.7820 c1        1 5EL     -0.038100
      9 C9         -4.8280    0.3940    0.1310 c3        1 5EL      0.198900
     10 C10        -5.1370    1.9330    0.0980 c3        1 5EL      0.112800
     11 N1         -6.4290    2.2580    0.7050 n3        1 5EL     -0.656600
     12 C11        -6.4060    1.8360    2.1140 c3        1 5EL      0.129300
     13 C12        -6.1060    0.3330    2.2750 c3        1 5EL     -0.111400
     14 C13        -5.9960   -0.3000    0.8880 c3        1 5EL     -0.085700
     15 C14        -7.3010   -0.0210    0.1410 c3        1 5EL     -0.111400
     16 C15        -7.4840    1.5020    0.0110 c3        1 5EL      0.129300
     17 O1         -4.7060   -0.1200   -1.1950 oh        1 5EL     -0.583800
     18 O2          2.4470   -0.8840    3.7530 os        1 5EL     -0.217200
     19 C16         3.0870   -2.0910    3.6890 ca        1 5EL      0.224100
     20 C17         4.3480   -2.1300    4.3370 ca        1 5EL     -0.187000
     21 C18         5.0750   -3.3040    4.3380 ca        1 5EL     -0.022500
     22 C19         4.5760   -4.4590    3.7030 ca        1 5EL     -0.261600
     23 C20         3.3220   -4.4050    3.0550 ca        1 5EL     -0.022500
     24 C21         2.5810   -3.2340    3.0470 ca        1 5EL     -0.187000
     25 C22         5.2680   -5.7320    3.6540 c         1 5EL      0.580700
     26 O3          4.9690   -6.7470    3.0340 o         1 5EL     -0.449100
     27 N2          6.5280   -5.8910    4.4930 n4        1 5EL     -0.680800
     28 C23         7.7450   -5.4620    3.7310 c3        1 5EL      0.167100
     29 C24         8.9930   -5.7230    4.5050 ca        1 5EL     -0.140300
     30 C25         9.6830   -4.6730    5.1180 ca        1 5EL     -0.227800
     31 C26        10.8790   -4.9720    5.8010 ca        1 5EL      0.418200
     32 N3         11.3860   -6.2150    5.8990 nb        1 5EL     -0.615000
     33 C27        10.7100   -7.2150    5.3020 ca        1 5EL      0.418200
     34 C28         9.5090   -7.0220    4.5920 ca        1 5EL     -0.227800
     35 H1         -0.1470   -0.0850    0.0620 ha        1 5EL      0.159500
     36 H2          2.0750   -0.5070    1.1380 ha        1 5EL      0.153500
     37 H4          0.1190   -0.9890    4.9830 ha        1 5EL      0.153500
     38 H5         -2.1000   -0.5610    3.9050 ha        1 5EL      0.159500
     39 H101       -4.3350    2.4960    0.6450 h1        1 5EL      0.074200
     40 H102       -5.1400    2.2810   -0.9710 h1        1 5EL      0.074200
     41 H13        -5.8050   -1.3990    0.9550 hc        1 5EL      0.077700
     42 HA         -5.4980    0.1570   -1.6730 ho        1 5EL      0.414000
     43 H111       -7.4050    2.0810    2.5670 h1        1 5EL      0.062200
     44 H112       -5.6270    2.4450    2.6480 h1        1 5EL      0.062200
     45 H151       -8.4730    1.8120    0.4440 h1        1 5EL      0.062200
     46 H152       -7.4750    1.8010   -1.0730 h1        1 5EL      0.062200
     47 H121       -6.9240   -0.1640    2.8530 hc        1 5EL      0.053450
     48 H122       -5.1510    0.1880    2.8390 hc        1 5EL      0.053450
     49 H141       -7.2910   -0.5060   -0.8660 hc        1 5EL      0.053450
     50 H142       -8.1550   -0.4630    0.7140 hc        1 5EL      0.053450
     51 H17         4.7250   -1.2190    4.8280 ha        1 5EL      0.182000
     52 H21         1.6020   -3.1950    2.5410 ha        1 5EL      0.182000
     53 H18         6.0560   -3.2980    4.8380 ha        1 5EL      0.148000
     54 H20         2.9320   -5.3080    2.5510 ha        1 5EL      0.148000
     55 HB          6.4480   -5.3460    5.3560 hn        1 5EL      0.456800
     56 H231        7.7560   -6.0410    2.7600 hx        1 5EL      0.115200
     57 H232        7.6360   -4.3640    3.4950 hx        1 5EL      0.115200
     58 H25         9.3260   -3.6360    5.0610 ha        1 5EL      0.152000
     59 H28         9.0130   -7.8730    4.1050 ha        1 5EL      0.152000
     60 H26        11.4640   -4.1720    6.2950 h4        1 5EL      0.051600
     61 H27        11.1580   -8.2230    5.3930 h4        1 5EL      0.051600
     62 H22         6.6360   -6.8830    4.7450 hn        1 5EL      0.456800
@<TRIPOS>BOND
     1    1    2 ar  
     2    1    6 ar  
     3    1   35 1   
     4    2    3 ar  
     5    2   36 1   
     6    3    4 ar  
     7    3   18 1   
     8    4    5 ar  
     9    4   37 1   
    10    5    6 ar  
    11    5   38 1   
    12    6    7 1   
    13    7    8 3   
    14    8    9 1   
    15    9   10 1   
    16    9   14 1   
    17    9   17 1   
    18   10   11 1   
    19   10   39 1   
    20   10   40 1   
    21   11   12 1   
    22   11   16 1   
    23   12   13 1   
    24   12   43 1   
    25   12   44 1   
    26   13   14 1   
    27   13   47 1   
    28   13   48 1   
    29   14   15 1   
    30   14   41 1   
    31   15   16 1   
    32   15   49 1   
    33   15   50 1   
    34   16   45 1   
    35   16   46 1   
    36   17   42 1   
    37   18   19 1   
    38   19   20 ar  
    39   19   24 ar  
    40   20   21 ar  
    41   20   51 1   
    42   21   22 ar  
    43   21   53 1   
    44   22   23 ar  
    45   22   25 1   
    46   23   24 ar  
    47   23   54 1   
    48   24   52 1   
    49   25   26 2   
    50   25   27 1   
    51   27   28 1   
    52   27   55 1   
    53   27   62 1   
    54   28   29 1   
    55   28   56 1   
    56   28   57 1   
    57   29   30 ar  
    58   29   34 ar  
    59   30   31 ar  
    60   30   58 1   
    61   31   32 ar  
    62   31   60 1   
    63   32   33 ar  
    64   33   34 ar  
    65   33   61 1   
    66   34   59 1   
@<TRIPOS>SUBSTRUCTURE
     1 5EL         1 TEMP              0 ****  ****    0 ROOT
