@<TRIPOS>MOLECULE
5EL
   62    66     1     0     0
SMALL
bcc


@<TRIPOS>ATOM
      1 C1         -1.0780   -0.4660   -1.9050 ca        1 5EL     -0.103000
      2 C2          0.2210   -0.5420   -2.4010 ca        1 5EL     -0.120500
      3 C3          1.2470   -0.9470   -1.5400 ca        1 5EL      0.036100
      4 C4          1.0030   -1.2800   -0.2030 ca        1 5EL     -0.120500
      5 C5         -0.3000   -1.2010    0.2800 ca        1 5EL     -0.103000
      6 C6         -1.3480   -0.7900   -0.5630 ca        1 5EL      0.065000
      7 C7         -2.6600   -0.6990   -0.0680 cg        1 5EL     -0.148000
      8 C8         -3.7800   -0.6170    0.3520 c1        1 5EL     -0.081100
      9 C9         -5.1350   -0.4900    0.8540 c3        1 5EL      0.190900
     10 C10        -5.2460    0.6750    1.8990 c3        1 5EL      0.153800
     11 N1         -5.7530    0.2140    3.1930 n3        1 5EL     -0.659600
     12 C11        -4.8430   -0.8150    3.7200 c3        1 5EL      0.133800
     13 C12        -4.7130   -2.0270    2.7790 c3        1 5EL     -0.105900
     14 C13        -5.5960   -1.8000    1.5530 c3        1 5EL     -0.086700
     15 C14        -7.0360   -1.5910    2.0250 c3        1 5EL     -0.105900
     16 C15        -7.0770   -0.3960    2.9940 c3        1 5EL      0.133800
     17 O1         -6.0190   -0.1370   -0.2050 oh        1 5EL     -0.576800
     18 O2          2.5300   -1.1700   -2.0680 os        1 5EL     -0.218200
     19 C16         3.3940   -0.1090   -2.0650 ca        1 5EL      0.222100
     20 C17         4.6760   -0.3840   -2.6040 ca        1 5EL     -0.185000
     21 C18         5.6230    0.6190   -2.6520 ca        1 5EL     -0.024500
     22 C19         5.3250    1.9110   -2.1720 ca        1 5EL     -0.265600
     23 C20         4.0480    2.1700   -1.6270 ca        1 5EL     -0.024500
     24 C21         3.0870    1.1720   -1.5760 ca        1 5EL     -0.185000
     25 C22         6.2610    3.0210   -2.1780 c         1 5EL      0.580700
     26 O3          6.1570    4.1050   -1.6150 o         1 5EL     -0.447100
     27 N2          7.5370    2.8200   -2.9910 n4        1 5EL     -0.678800
     28 C23         8.2950    4.0790   -3.2860 c3        1 5EL      0.165100
     29 C24         7.7740    4.7770   -4.4980 ca        1 5EL     -0.136300
     30 C25         8.2420    4.4300   -5.7710 ca        1 5EL     -0.223800
     31 C26         7.7540    5.1500   -6.8780 ca        1 5EL      0.413700
     32 N3          6.8600    6.1530   -6.7740 nb        1 5EL     -0.617000
     33 C27         6.4220    6.4750   -5.5430 ca        1 5EL      0.413700
     34 C28         6.8460    5.8150   -4.3720 ca        1 5EL     -0.223800
     35 H1         -1.9010   -0.1530   -2.5670 ha        1 5EL      0.158500
     36 H2          0.4370   -0.3050   -3.4530 ha        1 5EL      0.154000
     37 H4          1.8260   -1.6150    0.4460 ha        1 5EL      0.154000
     38 H5         -0.5130   -1.4650    1.3280 ha        1 5EL      0.158500
     39 H101       -4.2380    1.1430    2.0520 h1        1 5EL      0.077700
     40 H102       -5.9470    1.4530    1.4880 h1        1 5EL      0.077700
     41 H13        -5.5300   -2.6620    0.8450 hc        1 5EL      0.063700
     42 HA         -6.0800   -0.8980   -0.7950 ho        1 5EL      0.406000
     43 H111       -5.2360   -1.1440    4.7200 h1        1 5EL      0.061450
     44 H112       -3.8370   -0.3430    3.8840 h1        1 5EL      0.061450
     45 H151       -7.4630   -0.7230    3.9970 h1        1 5EL      0.061450
     46 H152       -7.7690    0.3960    2.5980 h1        1 5EL      0.061450
     47 H121       -3.6480   -2.1600    2.4640 hc        1 5EL      0.054450
     48 H122       -5.0350   -2.9610    3.3030 hc        1 5EL      0.054450
     49 H141       -7.4020   -2.5170    2.5330 hc        1 5EL      0.054450
     50 H142       -7.6960   -1.3920    1.1430 hc        1 5EL      0.054450
     51 H17         4.8950   -1.4000   -2.9720 ha        1 5EL      0.182000
     52 H21         2.0900    1.3780   -1.1530 ha        1 5EL      0.182000
     53 H18         6.6140    0.3680   -3.0610 ha        1 5EL      0.147000
     54 H20         3.8180    3.1780   -1.2390 ha        1 5EL      0.147000
     55 HB          7.2800    2.3690   -3.8770 hn        1 5EL      0.456300
     56 H231        8.2260    4.7530   -2.3810 hx        1 5EL      0.118700
     57 H232        9.3760    3.7890   -3.4410 hx        1 5EL      0.118700
     58 H25         8.9880    3.6370   -5.9150 ha        1 5EL      0.156000
     59 H28         6.4600    6.1200   -3.3880 ha        1 5EL      0.156000
     60 H26         8.1000    4.9170   -7.9030 h4        1 5EL      0.049600
     61 H27         5.6950    7.3080   -5.4910 h4        1 5EL      0.049600
     62 H22         8.1410    2.1830   -2.4620 hn        1 5EL      0.456300
@<TRIPOS>BOND
     1    1    2 ar  
     2    1    6 ar  
     3    1   35 1   
     4    2    3 ar  
     5    2   36 1   
     6    3    4 ar  
     7    3   18 1   
     8    4    5 ar  
     9    4   37 1   
    10    5    6 ar  
    11    5   38 1   
    12    6    7 1   
    13    7    8 3   
    14    8    9 1   
    15    9   10 1   
    16    9   14 1   
    17    9   17 1   
    18   10   11 1   
    19   10   39 1   
    20   10   40 1   
    21   11   12 1   
    22   11   16 1   
    23   12   13 1   
    24   12   43 1   
    25   12   44 1   
    26   13   14 1   
    27   13   47 1   
    28   13   48 1   
    29   14   15 1   
    30   14   41 1   
    31   15   16 1   
    32   15   49 1   
    33   15   50 1   
    34   16   45 1   
    35   16   46 1   
    36   17   42 1   
    37   18   19 1   
    38   19   20 ar  
    39   19   24 ar  
    40   20   21 ar  
    41   20   51 1   
    42   21   22 ar  
    43   21   53 1   
    44   22   23 ar  
    45   22   25 1   
    46   23   24 ar  
    47   23   54 1   
    48   24   52 1   
    49   25   26 2   
    50   25   27 1   
    51   27   28 1   
    52   27   55 1   
    53   27   62 1   
    54   28   29 1   
    55   28   56 1   
    56   28   57 1   
    57   29   30 ar  
    58   29   34 ar  
    59   30   31 ar  
    60   30   58 1   
    61   31   32 ar  
    62   31   60 1   
    63   32   33 ar  
    64   33   34 ar  
    65   33   61 1   
    66   34   59 1   
@<TRIPOS>SUBSTRUCTURE
     1 5EL         1 TEMP              0 ****  ****    0 ROOT
