@<TRIPOS>MOLECULE
5EL
   61    57     1     0     0
SMALL
bcc


@<TRIPOS>ATOM
      1 C1         -1.3050    0.8900   -1.3030 c1        1 5EL     -0.093000
      2 C2          0.0730    0.8840   -1.5600 c1        1 5EL     -0.140000
      3 C3          0.9180    1.5910   -0.7580 c1        1 5EL      0.058000
      4 C4          0.4100    2.3170    0.3120 c1        1 5EL     -0.126000
      5 C5         -0.9340    2.3230    0.5620 c1        1 5EL     -0.126000
      6 C6         -1.7980    1.6030   -0.2530 c1        1 5EL      0.017000
      7 C7         -3.3480    1.7240   -0.0450 c1        1 5EL     -0.105000
      8 C8         -4.5480    1.8200    0.1160 c1        1 5EL     -0.122000
      9 C9         -6.0560    1.9420    0.3160 c2        1 5EL      0.167000
     10 C10        -6.4770    3.2520   -0.1480 c3        1 5EL     -0.126000
     11 N1         -7.4610    3.2240   -1.1790 n3        1 5EL     -0.186000
     12 C11        -8.5440    2.2560   -0.9900 c3        1 5EL     -0.106500
     13 C12        -8.1120    0.9570   -0.5530 c3        1 5EL     -0.189500
     14 C13        -6.6940    0.8380   -0.3590 c3        1 5EL     -0.126000
     15 C14        -6.1040    0.9270   -1.8370 c3        1 5EL     -0.189500
     16 C15        -6.6400    2.5900   -2.4340 c3        1 5EL     -0.106500
     17 O1         -6.3580    1.8410    1.7900 oh        1 5EL     -0.309000
     18 O2          2.2480    1.7820   -1.1530 os        1 5EL     -0.157000
     19 C16         3.1030    1.1700   -0.2230 c2        1 5EL      0.086000
     20 C17         3.9530    1.9530    0.5450 c2        1 5EL     -0.155000
     21 C18         4.9640    1.3610    1.2780 c1        1 5EL     -0.077000
     22 C19         5.1270   -0.0020    1.2460 c1        1 5EL     -0.142000
     23 C20         4.2790   -0.7850    0.4790 c1        1 5EL     -0.056000
     24 C21         3.2700   -0.1950   -0.2520 c1        1 5EL     -0.187000
     25 C22         6.2810   -0.6560    2.0230 c2        1 5EL      0.336000
     26 O3          7.0620    0.0440    2.6770 o         1 5EL     -0.352000
     27 N2          6.4930   -2.0520    1.9290 n         1 5EL     -0.363000
     28 C23         7.2950   -2.6000    0.8370 c3        1 5EL     -0.002000
     29 C24         7.1090   -4.1280    0.7920 c2        1 5EL     -0.072000
     30 C25         5.9830   -4.6940    1.3430 c2        1 5EL     -0.176000
     31 C26         5.7400   -6.0530    1.1850 c1        1 5EL     -0.066000
     32 N3          6.6210   -6.8290    0.4820 n1        1 5EL     -0.136000
     33 C27         7.7460   -6.2670   -0.0690 c1        1 5EL     -0.068000
     34 C28         7.9930   -4.9090    0.0860 c1        1 5EL     -0.179000
     35 H1         -1.9040    0.3910   -1.8690 ha        1 5EL      0.143000
     36 H2          0.4270    0.3750   -2.3090 ha        1 5EL      0.154000
     37 H4          0.9970    2.8100    0.8700 ha        1 5EL      0.152000
     38 H5         -1.2870    2.8340    1.3140 ha        1 5EL      0.152000
     39 H101       -6.8290    3.7390    0.5960 h1        1 5EL      0.111500
     40 H102       -5.6600    3.7450   -0.4970 h1        1 5EL      0.111500
     41 H13        -6.4740    0.0170    0.0440 hc        1 5EL      0.119000
     42 HA         -7.0890    2.2650    1.9630 ho        1 5EL      0.205000
     43 H111       -9.1590    2.6100   -0.3350 h1        1 5EL      0.096750
     44 H112       -9.0260    2.1540   -1.8510 h1        1 5EL      0.096750
     45 H151       -5.8760    3.1320   -2.6450 h1        1 5EL      0.096750
     46 H152       -7.2040    2.5040   -3.1900 h1        1 5EL      0.096750
     47 H121       -8.5740    0.7400    0.3170 hc        1 5EL      0.091500
     48 H122       -8.3870    0.2980   -1.2230 hc        1 5EL      0.091500
     49 H141       -6.4900    0.2050   -2.4170 hc        1 5EL      0.091500
     50 H142       -5.1030    0.8680   -1.8210 hc        1 5EL      0.091500
     51 H17         3.8380    2.9030    0.5680 ha        1 5EL      0.157000
     52 H21         2.6640   -0.7570   -0.8000 ha        1 5EL      0.156000
     53 H18         5.5720    1.9210    1.8270 ha        1 5EL      0.147000
     54 H20         4.3980   -1.7830    0.4570 ha        1 5EL      0.153000
     55 HB          6.1690   -2.5930    2.5550 hn        1 5EL      0.226000
     56 H231        8.2490   -2.3870    0.9890 h1        1 5EL      0.109000
     57 H232        7.0120   -2.2210    0.0130 h1        1 5EL      0.109000
     58 H25         5.3320   -4.1200    1.8630 ha        1 5EL      0.149000
     59 H28         8.8210   -4.4980   -0.3190 ha        1 5EL      0.144000
     60 H26         4.9310   -6.4600    1.5800 ha        1 5EL      0.162000
     61 H27         8.3620   -6.8130   -0.5620 ha        1 5EL      0.161000
@<TRIPOS>BOND
     1    1    6 1   
     2    1   35 1   
     3    2    3 1   
     4    2   36 1   
     5    3   18 1   
     6    4    5 1   
     7    4   37 1   
     8    5   38 1   
     9    6    7 1   
    10    7    8 1   
    11    9   10 1   
    12    9   14 1   
    13    9   17 1   
    14   10   11 1   
    15   10   39 1   
    16   10   40 1   
    17   11   12 1   
    18   11   16 1   
    19   12   13 1   
    20   12   43 1   
    21   12   44 1   
    22   13   14 1   
    23   13   47 1   
    24   13   48 1   
    25   14   15 1   
    26   14   41 1   
    27   15   16 1   
    28   15   49 1   
    29   15   50 1   
    30   16   45 1   
    31   16   46 1   
    32   17   42 1   
    33   18   19 1   
    34   19   20 1   
    35   19   24 1   
    36   20   21 1   
    37   20   51 1   
    38   21   53 1   
    39   22   23 1   
    40   22   25 1   
    41   23   54 1   
    42   24   52 1   
    43   25   26 1   
    44   25   27 1   
    45   27   28 1   
    46   27   55 1   
    47   28   29 1   
    48   28   56 1   
    49   28   57 1   
    50   29   30 1   
    51   29   34 1   
    52   30   31 1   
    53   30   58 1   
    54   31   60 1   
    55   32   33 1   
    56   33   61 1   
    57   34   59 1   
@<TRIPOS>SUBSTRUCTURE
     1 5EL         1 TEMP              0 ****  ****    0 ROOT
