@<TRIPOS>MOLECULE
5EL
   61    65     1     0     0
SMALL
bcc


@<TRIPOS>ATOM
      1 C1          2.0610   -1.0100   -1.0800 ca        1 5EL     -0.086000
      2 C2          0.8460   -1.6600   -0.8840 ca        1 5EL     -0.155000
      3 C3          0.6720   -2.4510    0.2580 ca        1 5EL      0.107100
      4 C4          1.6970   -2.6000    1.2040 ca        1 5EL     -0.155000
      5 C5          2.9090   -1.9500    0.9930 ca        1 5EL     -0.086000
      6 C6          3.1010   -1.1490   -0.1460 ca        1 5EL      0.007000
      7 C7          4.3270   -0.4900   -0.3510 cg        1 5EL     -0.101000
      8 C8          5.3720    0.0700   -0.5260 c1        1 5EL     -0.142100
      9 C9          6.6340    0.7450   -0.7460 c3        1 5EL      0.203900
     10 C10         7.7850    0.0440    0.0580 c3        1 5EL      0.118800
     11 N1          8.4580    0.9560    0.9860 n3        1 5EL     -0.660600
     12 C11         9.0180    2.0810    0.2200 c3        1 5EL      0.133800
     13 C12         7.9420    2.8610   -0.5570 c3        1 5EL     -0.107400
     14 C13         6.5760    2.2290   -0.2850 c3        1 5EL     -0.046700
     15 C14         6.3240    2.2470    1.2220 c3        1 5EL     -0.107400
     16 C15         7.4620    1.4880    1.9290 c3        1 5EL      0.133800
     17 O1          6.9550    0.7710   -2.1350 oh        1 5EL     -0.583800
     18 O2         -0.4670   -3.2240    0.4720 os        1 5EL     -0.245200
     19 C16        -1.6920   -2.6360    0.1890 ca        1 5EL      0.132100
     20 C17        -2.7280   -3.5360   -0.1170 ca        1 5EL     -0.171000
     21 C18        -4.0090   -3.0390   -0.3290 ca        1 5EL     -0.065000
     22 C19        -4.2580   -1.6610   -0.2560 ca        1 5EL     -0.165600
     23 C20        -3.2200   -0.7780    0.0570 ca        1 5EL     -0.065000
     24 C21        -1.9320   -1.2600    0.2820 ca        1 5EL     -0.171000
     25 C22        -5.6530   -1.1910   -0.4850 c         1 5EL      0.669700
     26 O3         -6.6360   -1.8520   -0.0930 o         1 5EL     -0.603100
     27 N2         -5.8220   -0.0250   -1.2160 n         1 5EL     -0.556900
     28 C23        -7.1140    0.5770   -1.3960 c3        1 5EL      0.127300
     29 C24        -7.5000    1.5750   -0.3400 ca        1 5EL     -0.088300
     30 C25        -7.6100    2.9360   -0.6400 ca        1 5EL     -0.235300
     31 C26        -8.0050    3.8180    0.3830 ca        1 5EL      0.390700
     32 N3         -8.2800    3.4240    1.6410 nb        1 5EL     -0.661000
     33 C27        -8.1690    2.1080    1.9140 ca        1 5EL      0.390700
     34 C28        -7.7850    1.1480    0.9620 ca        1 5EL     -0.235300
     35 H1          2.2100   -0.3870   -1.9750 ha        1 5EL      0.146500
     36 H2          0.0300   -1.5580   -1.6140 ha        1 5EL      0.153500
     37 H4          1.5380   -3.2320    2.0890 ha        1 5EL      0.153500
     38 H5          3.7230   -2.0620    1.7260 ha        1 5EL      0.146500
     39 H101        7.3740   -0.8190    0.6450 h1        1 5EL      0.066700
     40 H102        8.5440   -0.3470   -0.6720 h1        1 5EL      0.066700
     41 H13         5.7710    2.7680   -0.8420 hc        1 5EL      0.075700
     42 HA          6.9490   -0.1440   -2.4440 ho        1 5EL      0.407000
     43 H111        9.5450    2.7620    0.9420 h1        1 5EL      0.056450
     44 H112        9.7850    1.6710   -0.4910 h1        1 5EL      0.056450
     45 H151        7.0440    0.6280    2.5190 h1        1 5EL      0.056450
     46 H152        7.9940    2.1710    2.6460 h1        1 5EL      0.056450
     47 H121        7.9300    3.9310   -0.2360 hc        1 5EL      0.054700
     48 H122        8.1580    2.8260   -1.6540 hc        1 5EL      0.054700
     49 H141        6.2830    3.3050    1.5800 hc        1 5EL      0.054700
     50 H142        5.3390    1.7670    1.4510 hc        1 5EL      0.054700
     51 H17        -2.5190   -4.6140   -0.1710 ha        1 5EL      0.156000
     52 H21        -1.1130   -0.5710    0.5360 ha        1 5EL      0.156000
     53 H18        -4.8430   -3.7250   -0.5490 ha        1 5EL      0.149000
     54 H20        -3.4060    0.3020    0.1530 ha        1 5EL      0.149000
     55 HB         -5.0310    0.5540   -1.3710 hn        1 5EL      0.307500
     56 H231       -7.1170    1.0810   -2.4060 h1        1 5EL      0.073700
     57 H232       -7.8910   -0.2450   -1.4060 h1        1 5EL      0.073700
     58 H25        -7.4010    3.3160   -1.6480 ha        1 5EL      0.153500
     59 H28        -7.7140    0.0820    1.2270 ha        1 5EL      0.153500
     60 H26        -8.1070    4.9000    0.1860 h4        1 5EL      0.023600
     61 H27        -8.4030    1.8120    2.9520 h4        1 5EL      0.023600
@<TRIPOS>BOND
     1    1    2 ar  
     2    1    6 ar  
     3    1   35 1   
     4    2    3 ar  
     5    2   36 1   
     6    3    4 ar  
     7    3   18 1   
     8    4    5 ar  
     9    4   37 1   
    10    5    6 ar  
    11    5   38 1   
    12    6    7 1   
    13    7    8 3   
    14    8    9 1   
    15    9   10 1   
    16    9   14 1   
    17    9   17 1   
    18   10   11 1   
    19   10   39 1   
    20   10   40 1   
    21   11   12 1   
    22   11   16 1   
    23   12   13 1   
    24   12   43 1   
    25   12   44 1   
    26   13   14 1   
    27   13   47 1   
    28   13   48 1   
    29   14   15 1   
    30   14   41 1   
    31   15   16 1   
    32   15   49 1   
    33   15   50 1   
    34   16   45 1   
    35   16   46 1   
    36   17   42 1   
    37   18   19 1   
    38   19   20 ar  
    39   19   24 ar  
    40   20   21 ar  
    41   20   51 1   
    42   21   22 ar  
    43   21   53 1   
    44   22   23 ar  
    45   22   25 1   
    46   23   24 ar  
    47   23   54 1   
    48   24   52 1   
    49   25   26 2   
    50   25   27 1   
    51   27   28 1   
    52   27   55 1   
    53   28   29 1   
    54   28   56 1   
    55   28   57 1   
    56   29   30 ar  
    57   29   34 ar  
    58   30   31 ar  
    59   30   58 1   
    60   31   32 ar  
    61   31   60 1   
    62   32   33 ar  
    63   33   34 ar  
    64   33   61 1   
    65   34   59 1   
@<TRIPOS>SUBSTRUCTURE
     1 5EL         1 TEMP              0 ****  ****    0 ROOT
