@<TRIPOS>MOLECULE
5EL
   62    66     1     0     0
SMALL
bcc


@<TRIPOS>ATOM
      1 C1         -0.2790    0.0160   -0.3430 ca        1 5EL     -0.103000
      2 C2          1.0890   -0.0610   -0.5860 ca        1 5EL     -0.120500
      3 C3          1.9170   -0.6140    0.3970 ca        1 5EL      0.036100
      4 C4          1.4100   -1.0870    1.6120 ca        1 5EL     -0.120500
      5 C5          0.0400   -1.0050    1.8430 ca        1 5EL     -0.103000
      6 C6         -0.8140   -0.4590    0.8680 ca        1 5EL      0.065000
      7 C7         -2.1990   -0.3910    1.1050 cg        1 5EL     -0.148000
      8 C8         -3.3790   -0.3380    1.3080 c1        1 5EL     -0.081100
      9 C9         -4.8070   -0.3020    1.5580 c3        1 5EL      0.190900
     10 C10        -5.5730   -1.2940    0.6140 c3        1 5EL      0.153800
     11 N1         -6.5910   -0.6190   -0.1930 n3        1 5EL     -0.659600
     12 C11        -5.9390    0.4130   -1.0140 c3        1 5EL      0.133800
     13 C12        -5.2020    1.4660   -0.1640 c3        1 5EL     -0.105900
     14 C13        -5.3800    1.1230    1.3140 c3        1 5EL     -0.086700
     15 C14        -6.8770    1.0800    1.6250 c3        1 5EL     -0.105900
     16 C15        -7.5490    0.0410    0.7070 c3        1 5EL      0.133800
     17 O1         -5.0850   -0.7450    2.8820 oh        1 5EL     -0.576800
     18 O2          3.3100   -0.5560    0.2170 os        1 5EL     -0.218200
     19 C16         3.9090   -1.6520   -0.3410 ca        1 5EL      0.222100
     20 C17         3.2350   -2.8180   -0.7400 ca        1 5EL     -0.185000
     21 C18         3.9530   -3.8660   -1.2940 ca        1 5EL     -0.024500
     22 C19         5.3520   -3.7730   -1.4520 ca        1 5EL     -0.265600
     23 C20         6.0170   -2.5960   -1.0540 ca        1 5EL     -0.024500
     24 C21         5.3130   -1.5430   -0.5050 ca        1 5EL     -0.185000
     25 C22         6.0130   -4.9240   -2.0440 c         1 5EL      0.580700
     26 O3          5.5010   -5.8960   -2.5870 o         1 5EL     -0.447100
     27 N2          7.5370   -4.9310   -1.9810 ny        1 5EL     -0.678800
     28 C23         8.1680   -6.2630   -2.2540 c3        1 5EL      0.165100
     29 C24         8.2330   -7.1150   -1.0310 ca        1 5EL     -0.136300
     30 C25         7.2370   -8.0630   -0.7760 ca        1 5EL     -0.223800
     31 C26         7.3700   -8.8770    0.3670 ca        1 5EL      0.413700
     32 N3          8.4020   -8.7840    1.2270 nb        1 5EL     -0.617000
     33 C27         9.3520   -7.8650    0.9660 ca        1 5EL      0.413700
     34 C28         9.3140   -7.0060   -0.1480 ca        1 5EL     -0.223800
     35 H1         -0.9470    0.4530   -1.1010 ha        1 5EL      0.158500
     36 H2          1.5170    0.3210   -1.5250 ha        1 5EL      0.154000
     37 H4          2.0860   -1.4990    2.3760 ha        1 5EL      0.154000
     38 H5         -0.3790   -1.3680    2.7950 ha        1 5EL      0.158500
     39 H101       -6.0720   -2.0750    1.2520 h1        1 5EL      0.077700
     40 H102       -4.8450   -1.8000   -0.0730 h1        1 5EL      0.077700
     41 H13        -4.8600    1.8670    1.9650 hc        1 5EL      0.063700
     42 HA         -4.7450   -0.0750    3.4880 ho        1 5EL      0.406000
     43 H111       -6.7300    0.9080   -1.6400 h1        1 5EL      0.061450
     44 H112       -5.2180   -0.0950   -1.7090 h1        1 5EL      0.061450
     45 H151       -8.3360    0.5350    0.0750 h1        1 5EL      0.061450
     46 H152       -8.0490   -0.7520    1.3270 h1        1 5EL      0.061450
     47 H121       -5.6180    2.4840   -0.3640 hc        1 5EL      0.054450
     48 H122       -4.1150    1.4810   -0.4250 hc        1 5EL      0.054450
     49 H141       -7.3240    2.0910    1.4610 hc        1 5EL      0.054450
     50 H142       -7.0310    0.7990    2.6970 hc        1 5EL      0.054450
     51 H17         2.1420   -2.8930   -0.6140 ha        1 5EL      0.182000
     52 H21         5.8180   -0.6140   -0.1920 ha        1 5EL      0.182000
     53 H18         3.4290   -4.7830   -1.6170 ha        1 5EL      0.147000
     54 H20         7.1040   -2.4720   -1.1830 ha        1 5EL      0.147000
     55 HB          7.8760   -4.2530   -2.6710 hn        1 5EL      0.456300
     56 H231        7.5700   -6.7770   -3.0640 hx        1 5EL      0.118700
     57 H232        9.2100   -6.0640   -2.6440 hx        1 5EL      0.118700
     58 H25         6.3750   -8.1820   -1.4500 ha        1 5EL      0.156000
     59 H28        10.1300   -6.2920   -0.3210 ha        1 5EL      0.156000
     60 H26         6.6110   -9.6470    0.6040 h4        1 5EL      0.049600
     61 H27        10.1910   -7.8210    1.6880 h4        1 5EL      0.049600
     62 H22         7.8160   -4.6150   -1.0450 hn        1 5EL      0.456300
@<TRIPOS>BOND
     1    1    2 ar  
     2    1    6 ar  
     3    1   35 1   
     4    2    3 ar  
     5    2   36 1   
     6    3    4 ar  
     7    3   18 1   
     8    4    5 ar  
     9    4   37 1   
    10    5    6 ar  
    11    5   38 1   
    12    6    7 1   
    13    7    8 3   
    14    8    9 1   
    15    9   10 1   
    16    9   14 1   
    17    9   17 1   
    18   10   11 1   
    19   10   39 1   
    20   10   40 1   
    21   11   12 1   
    22   11   16 1   
    23   12   13 1   
    24   12   43 1   
    25   12   44 1   
    26   13   14 1   
    27   13   47 1   
    28   13   48 1   
    29   14   15 1   
    30   14   41 1   
    31   15   16 1   
    32   15   49 1   
    33   15   50 1   
    34   16   45 1   
    35   16   46 1   
    36   17   42 1   
    37   18   19 1   
    38   19   20 ar  
    39   19   24 ar  
    40   20   21 ar  
    41   20   51 1   
    42   21   22 ar  
    43   21   53 1   
    44   22   23 ar  
    45   22   25 1   
    46   23   24 ar  
    47   23   54 1   
    48   24   52 1   
    49   25   26 2   
    50   25   27 1   
    51   27   28 1   
    52   27   55 1   
    53   27   62 1   
    54   28   29 1   
    55   28   56 1   
    56   28   57 1   
    57   29   30 ar  
    58   29   34 ar  
    59   30   31 ar  
    60   30   58 1   
    61   31   32 ar  
    62   31   60 1   
    63   32   33 ar  
    64   33   34 ar  
    65   33   61 1   
    66   34   59 1   
@<TRIPOS>SUBSTRUCTURE
     1 5EL         1 TEMP              0 ****  ****    0 ROOT
