@<TRIPOS>MOLECULE
5EO
   57    54     1     0     0
SMALL
bcc


@<TRIPOS>ATOM
      1 CAA        -5.2940    0.7860   -3.8000 c3        1 5EO     -0.213000
      2 CAB         3.1140    3.0450   -5.8570 c3        1 5EO     -0.208000
      3 CAC         0.3060   -4.0440    5.9880 c3        1 5EO     -0.119000
      4 OAD         1.9960   -1.8740   -4.7980 o         1 5EO     -0.359000
      5 OAE         2.0110    1.4590    2.9200 o         1 5EO     -0.928000
      6 OAF         0.0690    2.1340    3.6870 o         1 5EO     -0.928000
      7 CAG        -1.4080    0.5940    1.3400 c1        1 5EO     -0.103000
      8 CAH        -1.9990    0.4890    0.0780 c1        1 5EO     -0.103000
      9 CAI         0.7490    0.6840    0.3190 c1        1 5EO      0.063000
     10 CAJ         2.7310    0.3480   -4.6020 c1        1 5EO     -0.284000
     11 CAK        -3.8230    0.5310   -3.8030 c3        1 5EO     -0.168000
     12 CAL         3.3330    2.8470   -4.3490 c3        1 5EO     -0.117000
     13 CAM        -3.2770    0.6360   -2.3580 c3        1 5EO     -0.020000
     14 CAN        -0.6960   -2.0420    5.2260 c3        1 5EO     -0.083500
     15 CAO         1.6330   -2.3960    4.9260 c3        1 5EO     -0.083500
     16 CAP        -0.5220   -0.5690    4.8540 c3        1 5EO     -0.010500
     17 CAQ         1.8100   -0.9300    4.5560 c3        1 5EO     -0.010500
     18 NAR         1.7150    1.7090   -2.7450 n1        1 5EO     -0.207000
     19 NAS         1.2870   -0.7940   -2.8870 n3        1 5EO     -0.306000
     20 OAT        -1.8280    0.4020   -2.3630 os        1 5EO     -0.219000
     21 CAU         2.5830    1.6270   -3.8850 c1        1 5EO      0.052000
     22 CAV        -0.0460    0.6910    1.4550 c1        1 5EO     -0.865000
     23 CAW        -1.2140    0.4820   -1.0510 c1        1 5EO      0.170000
     24 CAX         0.1700    0.5800   -0.9320 c1        1 5EO     -0.127000
     25 CAY         1.0840    0.4950   -2.2130 c2        1 5EO      0.181000
     26 CAZ         2.0150   -0.8510   -4.1170 c1        1 5EO      0.329000
     27 NBA         0.4980   -2.6110    5.7600 n3        1 5EO     -0.254000
     28 NBB         0.6070   -0.3530    4.0200 n3        1 5EO     -0.836000
     29 SBC         0.6880    1.0100    3.0510 s6        1 5EO      2.851000
     30 HAA        -5.7430    0.1040   -3.2600 hc        1 5EO      0.080333
     31 HAAA       -5.6270    0.7510   -4.7020 hc        1 5EO      0.080333
     32 HAAB       -5.4700    1.6610   -3.4260 hc        1 5EO      0.080333
     33 HAB         2.1610    2.8860   -6.0770 hc        1 5EO      0.082333
     34 HABA        3.7000    2.3830   -6.3790 hc        1 5EO      0.082333
     35 HABB        3.3570    3.9620   -6.1050 hc        1 5EO      0.082333
     36 HAC         0.2720   -4.5090    5.1320 h1        1 5EO      0.074000
     37 HACA       -0.5510   -4.1880    6.4800 h1        1 5EO      0.074000
     38 HACB        1.0570   -4.3960    6.5260 h1        1 5EO      0.074000
     39 HAG        -1.9500    0.6000    2.1190 ha        1 5EO      0.156500
     40 HAH        -2.9470    0.4230    0.0010 ha        1 5EO      0.156500
     41 HAI         1.7300    0.7540    0.4050 ha        1 5EO      0.172000
     42 HAJ         3.3290    0.2870   -5.4120 ha        1 5EO      0.169000
     43 HAK        -3.6490   -0.3630   -4.1530 hc        1 5EO      0.102500
     44 HAKA       -3.3850    1.1840   -4.3600 hc        1 5EO      0.102500
     45 HAL         3.0020    3.6350   -3.8650 hc        1 5EO      0.098000
     46 HALA        4.2540    2.7350   -4.1740 hc        1 5EO      0.098000
     47 HAM        -3.7190   -0.0440   -1.7880 h1        1 5EO      0.087500
     48 HAMA       -3.4650    1.5400   -1.9980 h1        1 5EO      0.087500
     49 HAN        -1.4350   -2.1240    5.9140 h1        1 5EO      0.077250
     50 HANA       -0.9560   -2.5470    4.4110 h1        1 5EO      0.077250
     51 HAO         1.5280   -2.9190    4.1060 h1        1 5EO      0.077250
     52 HAOA        2.4520   -2.7080    5.4060 h1        1 5EO      0.077250
     53 HAP        -1.3010   -0.2710    4.4000 h1        1 5EO      0.100500
     54 HAPA       -0.4160   -0.0530    5.6650 h1        1 5EO      0.100500
     55 HAQ         2.5290   -0.8560    3.8840 h1        1 5EO      0.100500
     56 HAQA        2.0740   -0.4240    5.3670 h1        1 5EO      0.100500
     57 HNAS        0.8750   -1.5870   -2.5380 hn        1 5EO      0.256000
@<TRIPOS>BOND
     1    1   11 1   
     2    1   30 1   
     3    1   31 1   
     4    1   32 1   
     5    2   12 1   
     6    2   33 1   
     7    2   34 1   
     8    2   35 1   
     9    3   27 1   
    10    3   36 1   
    11    3   37 1   
    12    3   38 1   
    13    4   26 1   
    14    5   29 1   
    15    6   29 1   
    16    7    8 1   
    17    7   39 1   
    18    8   40 1   
    19    9   22 1   
    20    9   41 1   
    21   10   21 1   
    22   10   42 1   
    23   11   13 1   
    24   11   43 1   
    25   11   44 1   
    26   12   21 1   
    27   12   45 1   
    28   12   46 1   
    29   13   20 1   
    30   13   47 1   
    31   13   48 1   
    32   14   16 1   
    33   14   27 1   
    34   14   49 1   
    35   14   50 1   
    36   15   17 1   
    37   15   27 1   
    38   15   51 1   
    39   15   52 1   
    40   16   28 1   
    41   16   53 1   
    42   16   54 1   
    43   17   28 1   
    44   17   55 1   
    45   17   56 1   
    46   18   25 1   
    47   19   25 1   
    48   19   26 1   
    49   19   57 1   
    50   20   23 1   
    51   22   29 1   
    52   23   24 1   
    53   24   25 1   
    54   28   29 1   
@<TRIPOS>SUBSTRUCTURE
     1 5EO         1 TEMP              0 ****  ****    0 ROOT
