@<TRIPOS>MOLECULE
5EO
   57    59     1     0     0
SMALL
bcc


@<TRIPOS>ATOM
      1 CAA         4.9390    5.3210    0.9600 c3        1 5EO     -0.095100
      2 CAB         2.0420   -4.1090   -2.0990 c3        1 5EO     -0.089100
      3 OAD         5.8140   -1.2120    1.2410 o         1 5EO     -0.633500
      4 OAE        -2.4080   -1.2950    1.6150 o         1 5EO     -0.653300
      5 OAF        -3.2980    0.9070    2.0160 o         1 5EO     -0.653300
      6 CAG        -0.7490    2.0510    1.3500 ca        1 5EO      0.038000
      7 CAH         0.5250    2.5960    1.2680 ca        1 5EO     -0.241000
      8 CAI         0.1030   -0.1030    0.6950 ca        1 5EO      0.065000
      9 CAJ         4.5330   -2.1890   -0.5530 cc        1 5EO     -0.301200
     10 CAK         4.5920    3.8700    0.7530 c3        1 5EO     -0.089400
     11 CAL         3.0960   -3.0700   -2.3910 c3        1 5EO     -0.034200
     12 CAM         3.1100    3.6440    0.9970 c3        1 5EO      0.129400
     13 CAN        -4.1470   -1.4230   -2.0090 c3        1 5EO      0.156800
     14 CAO        -5.1730    0.7260   -1.5650 c3        1 5EO      0.156800
     15 CAP        -2.8660   -0.9580   -1.2830 c3        1 5EO      0.222300
     16 CAQ        -3.8890    1.1860   -0.8400 c3        1 5EO      0.222300
     17 NAR         2.2960   -1.3070   -0.8510 nd        1 5EO     -0.644300
     18 NAS         3.6780   -0.4620    0.9270 n         1 5EO     -0.462400
     19 OAT         2.8970    2.2360    0.7890 os        1 5EO     -0.334900
     20 CAU         3.3310   -2.1620   -1.2170 cd        1 5EO      0.187400
     21 CAV        -0.9820    0.7010    1.0610 ca        1 5EO     -0.419500
     22 CAW         1.6080    1.7820    0.8930 ca        1 5EO      0.216100
     23 CAX         1.3970    0.4120    0.6070 ca        1 5EO     -0.210900
     24 CAY         2.5010   -0.4930    0.1870 cc        1 5EO      0.564500
     25 CAZ         4.7650   -1.2950    0.5770 c         1 5EO      0.691700
     26 NBA        -4.9230   -0.3170   -2.5500 n3        1 5EO     -0.730600
     27 NBB        -3.1010    0.0950   -0.3270 n3        1 5EO     -0.818500
     28 HAA         4.3660    5.9710    0.2550 hc        1 5EO      0.041033
     29 HAAA        4.7040    5.6410    2.0040 hc        1 5EO      0.041033
     30 HAAB        6.0290    5.4800    0.7800 hc        1 5EO      0.041033
     31 HAB         1.9310   -4.7890   -2.9780 hc        1 5EO      0.041700
     32 HABA        2.3260   -4.7230   -1.2110 hc        1 5EO      0.041700
     33 HABB        1.0550   -3.6290   -1.8950 hc        1 5EO      0.041700
     34 HAC        -6.8640   -1.2540   -2.5000 h1        1 5EO      0.034367
     35 HACA       -6.6360    0.1250   -3.6720 h1        1 5EO      0.034367
     36 HACB       -5.8640   -1.4930   -4.0060 h1        1 5EO      0.034367
     37 HAG        -1.5960    2.6890    1.6630 ha        1 5EO      0.161000
     38 HAH         0.6750    3.6590    1.5020 ha        1 5EO      0.151000
     39 HAI        -0.0720   -1.1750    0.4840 ha        1 5EO      0.171000
     40 HAJ         5.3610   -2.8540   -0.8290 ha        1 5EO      0.169000
     41 HAK         4.8490    3.5520   -0.2910 hc        1 5EO      0.063200
     42 HAKA        5.1860    3.2240    1.4520 hc        1 5EO      0.063200
     43 HAL         4.0640   -3.5750   -2.6550 hc        1 5EO      0.058700
     44 HALA        2.7840   -2.4530   -3.2780 hc        1 5EO      0.058700
     45 HAM         2.8240    3.9080    2.0480 h1        1 5EO      0.048700
     46 HAMA        2.4840    4.2260    0.2700 h1        1 5EO      0.048700
     47 HAN        -3.8310   -2.0740   -2.8720 h1        1 5EO      0.041700
     48 HANA       -4.7570   -2.0560   -1.3010 h1        1 5EO      0.041700
     49 HAO        -5.9290    0.4000   -0.7920 h1        1 5EO      0.041700
     50 HAOA       -5.5950    1.6170   -2.1080 h1        1 5EO      0.041700
     51 HAP        -2.4290   -1.8510   -0.7500 h1        1 5EO      0.059200
     52 HAPA       -2.1250   -0.6000   -2.0540 h1        1 5EO      0.059200
     53 HAQ        -3.2650    1.7860   -1.5630 h1        1 5EO      0.059200
     54 HAQA       -4.1980    1.8560    0.0130 h1        1 5EO      0.059200
     55 HNAS        3.7920    0.2170    1.6490 hn        1 5EO      0.343500
     56 SBC        -2.5360    0.0460    1.1930 sy        1 5EO      1.514200
     57 CAC        -6.1350   -0.7610   -3.2010 c3        1 5EO      0.156100
@<TRIPOS>BOND
     1    1   10 1   
     2    1   28 1   
     3    1   29 1   
     4    1   30 1   
     5    2   11 1   
     6    2   31 1   
     7    2   32 1   
     8    2   33 1   
     9    3   25 2   
    10    4   56 2   
    11    5   56 2   
    12    6    7 ar  
    13    6   21 ar  
    14    6   37 1   
    15    7   22 ar  
    16    7   38 1   
    17    8   21 ar  
    18    8   23 ar  
    19    8   39 1   
    20    9   20 2   
    21    9   25 1   
    22    9   40 1   
    23   10   12 1   
    24   10   41 1   
    25   10   42 1   
    26   11   20 1   
    27   11   43 1   
    28   11   44 1   
    29   12   19 1   
    30   12   45 1   
    31   12   46 1   
    32   13   15 1   
    33   13   26 1   
    34   13   47 1   
    35   13   48 1   
    36   14   16 1   
    37   14   26 1   
    38   14   49 1   
    39   14   50 1   
    40   15   27 1   
    41   15   51 1   
    42   15   52 1   
    43   16   27 1   
    44   16   53 1   
    45   16   54 1   
    46   17   20 1   
    47   17   24 2   
    48   18   24 1   
    49   18   25 1   
    50   18   55 1   
    51   19   22 1   
    52   21   56 1   
    53   22   23 ar  
    54   23   24 1   
    55   26   57 1   
    56   27   56 1   
    57   34   57 1   
    58   35   57 1   
    59   36   57 1   
@<TRIPOS>SUBSTRUCTURE
     1 5EO         1 TEMP              0 ****  ****    0 ROOT
