@<TRIPOS>MOLECULE
5EO
   57    54     1     0     0
SMALL
bcc


@<TRIPOS>ATOM
      1 CAA        -0.0380    1.2440   -1.2260 c3        1 5EO     -0.302000
      2 CAB         8.1870   -0.2240   -0.5670 c3        1 5EO     -0.208000
      3 OAD         4.7120   -4.8670   -0.0770 o         1 5EO     -0.347000
      4 OAE         4.8210    1.2610    7.8610 o         1 5EO     -0.934500
      5 OAF         3.8090   -0.8530    8.4360 o         1 5EO     -0.934500
      6 CAG         3.0320   -1.0250    5.6730 c2        1 5EO      0.069000
      7 CAH         2.4710   -1.0970    4.3470 c2        1 5EO     -0.208000
      8 CAI         5.4640   -1.0250    4.2010 c1        1 5EO      0.289000
      9 CAJ         6.5510   -3.3060   -0.0910 c2        1 5EO     -0.277000
     10 CAK         1.1920    0.6070   -0.8290 c1        1 5EO     -0.091000
     11 CAL         8.3710   -1.6040    0.0140 c3        1 5EO     -0.117000
     12 CAM         1.3680   -0.9340    1.8520 c1        1 5EO     -0.067000
     13 CAN         8.4600   -1.0250    6.6910 c3        1 5EO     -0.041000
     14 CAO         5.8910   -4.2380    8.0560 c1        1 5EO     -0.226500
     15 CAP         7.3500   -0.1570    7.3520 c3        1 5EO     -0.048000
     16 CAQ         6.8490   -4.2170    7.3400 c1        1 5EO     -0.226500
     17 NAR         6.4580   -1.5560    1.5820 n2        1 5EO     -0.213000
     18 NAS         4.7100   -3.2120    1.4980 n         1 5EO     -0.303000
     19 OAT         2.6290   -1.3260    1.9490 os        1 5EO     -0.141000
     20 CAU         7.0780   -2.1870    0.5050 c2        1 5EO      0.053000
     21 CAV         4.0820   -0.2580    6.0180 c2        1 5EO     -0.925000
     22 CAW         3.2160   -1.2590    3.2320 c2        1 5EO      0.106000
     23 CAX         4.6600   -1.4320    3.2030 c2        1 5EO     -0.343000
     24 CAY         5.3130   -2.0770    2.0250 c2        1 5EO      0.200000
     25 CAZ         5.2930   -3.8730    0.3900 c2        1 5EO      0.331000
     26 NBA         8.1120   -1.6220    5.4200 n3        1 5EO     -0.335000
     27 NBB         6.1070   -0.8420    7.5580 n3        1 5EO     -0.898000
     28 HAA        -0.7340    1.3010   -0.3470 hc        1 5EO      0.113333
     29 HAAA       -0.5170    0.5500   -1.9750 hc        1 5EO      0.113333
     30 HAAB        0.0410    2.2600   -1.6880 hc        1 5EO      0.113333
     31 HAB         7.8230    0.4910    0.2100 hc        1 5EO      0.081667
     32 HABA        9.1620    0.1510   -0.9630 hc        1 5EO      0.081667
     33 HABB        7.4490   -0.2410   -1.4040 hc        1 5EO      0.081667
     34 HAC         9.5330    0.7380    5.9520 hc        1 5EO      0.083333
     35 HACA       10.5630   -0.7380    6.1780 hc        1 5EO      0.083333
     36 HACB        9.9920    0.1990    7.6230 hc        1 5EO      0.083333
     37 HAG         2.5230   -1.6510    6.4380 ha        1 5EO      0.166000
     38 HAH         1.3690   -1.0200    4.2610 ha        1 5EO      0.201000
     39 HAI         4.4790    0.4930    5.3040 h4        1 5EO      0.190000
     40 HAJ         7.0220   -3.8160   -0.9400 ha        1 5EO      0.172000
     41 HAK         1.0750   -1.0410    0.7740 ha        1 5EO      0.115000
     42 HAKA        2.1300    1.0630   -1.1830 ha        1 5EO      0.044000
     43 HAL         9.1030   -1.5610    0.8670 hc        1 5EO      0.100500
     44 HALA        8.8020   -2.2890   -0.7650 hc        1 5EO      0.100500
     45 HAM         1.2550    1.4120    1.3350 ha        1 5EO      0.013500
     46 HAMA        1.9300    1.3470    1.2640 ha        1 5EO      0.013500
     47 HAN         7.1620    0.7530    6.7110 h1        1 5EO      0.090500
     48 HANA        7.7480    0.2020    8.3460 h1        1 5EO      0.090500
     49 HAO         5.0420   -4.2580    8.6960 ha        1 5EO      0.229500
     50 HAOA        7.2630   -2.1500    5.5010 hn        1 5EO      0.148500
     51 HAP         8.6810   -1.8870    7.3930 h1        1 5EO      0.097000
     52 HAPA        7.9820   -0.9180    4.7170 hn        1 5EO      0.148500
     53 HAQ         6.2060   -1.8190    7.7260 hn        1 5EO      0.254000
     54 HAQA        7.7020   -4.2050    6.7060 ha        1 5EO      0.229500
     55 HNAS        3.8190   -3.5050    1.8330 hn        1 5EO      0.256000
     56 SBC         4.6770   -0.1160    7.5970 s6        1 5EO      2.854000
     57 CAC         9.7120   -0.1530    6.6010 c3        1 5EO     -0.210000
@<TRIPOS>BOND
     1    1   10 1   
     2    1   28 1   
     3    1   29 1   
     4    1   30 1   
     5    2   11 1   
     6    2   31 1   
     7    2   32 1   
     8    2   33 1   
     9    3   25 1   
    10    4   56 1   
    11    5   56 1   
    12    6    7 1   
    13    6   21 1   
    14    6   37 1   
    15    7   22 1   
    16    7   38 1   
    17    8   23 1   
    18    9   20 1   
    19    9   25 1   
    20    9   40 1   
    21   10   42 1   
    22   11   20 1   
    23   11   43 1   
    24   11   44 1   
    25   12   19 1   
    26   12   41 1   
    27   13   15 1   
    28   13   26 1   
    29   13   51 1   
    30   13   57 1   
    31   14   16 1   
    32   14   49 1   
    33   15   27 1   
    34   15   47 1   
    35   15   48 1   
    36   16   54 1   
    37   17   20 1   
    38   17   24 1   
    39   18   24 1   
    40   18   25 1   
    41   18   55 1   
    42   19   22 1   
    43   21   39 1   
    44   21   56 1   
    45   22   23 1   
    46   23   24 1   
    47   26   50 1   
    48   26   52 1   
    49   27   53 1   
    50   27   56 1   
    51   34   57 1   
    52   35   57 1   
    53   36   57 1   
    54   45   46 1   
@<TRIPOS>SUBSTRUCTURE
     1 5EO         1 TEMP              0 ****  ****    0 ROOT
