@<TRIPOS>MOLECULE
5EO
   57    53     1     0     0
SMALL
bcc


@<TRIPOS>ATOM
      1 CAA        -0.3110    1.0620   -1.8060 c2        1 5EO     -0.222000
      2 CAB         6.5180   -1.4260   -1.8360 c1        1 5EO     -0.156000
      3 OAD         7.8190    2.3600    1.8110 o         1 5EO     -0.250000
      4 OAE         6.7850    0.5740    5.5880 o         1 5EO     -0.925000
      5 OAF         6.1330   -1.0310    7.1830 oh        1 5EO     -0.789000
      6 CAG         2.5890   -1.4900    5.1610 ca        1 5EO     -0.127000
      7 CAH         2.3440   -1.2660    3.8120 ca        1 5EO     -0.081000
      8 CAI         4.9610   -1.0040    4.8550 ca        1 5EO     -0.765000
      9 CAJ         7.9860    0.1780    0.8140 c1        1 5EO      0.093000
     10 CAK         0.8700    0.4690   -1.9150 c2        1 5EO     -0.222000
     11 CAL         6.8370   -1.2670   -0.6960 c1        1 5EO     -0.151000
     12 CAM         2.1590   -1.1490    1.0570 c1        1 5EO     -0.037000
     13 CAN         9.4420   -2.5780    9.6500 cx        1 5EO     -0.184000
     14 CAO         5.1780   -3.2890    9.3140 c1        1 5EO     -0.228500
     15 CAP         8.0590   -2.9020    4.7840 c3        1 5EO      0.079000
     16 CAQ         5.0180   -4.1920   10.0820 c1        1 5EO     -0.228500
     17 NAR         6.1250   -1.3720    1.6090 n2        1 5EO     -0.201000
     18 NAS         6.4800    0.7500    2.7140 n         1 5EO     -0.375000
     19 OAT         3.2260   -0.6110    1.6230 os        1 5EO     -0.124000
     20 CAU         7.2210   -1.0930    0.6900 c3        1 5EO     -0.031000
     21 CAV         3.8810   -1.3530    5.6710 ca        1 5EO     -0.035000
     22 CAW         3.4210   -0.9140    2.9880 ca        1 5EO      0.060000
     23 CAX         4.7250   -0.7990    3.4850 ca        1 5EO      0.039000
     24 CAY         5.8380   -0.4910    2.5310 c2        1 5EO      0.122000
     25 CAZ         7.4400    1.1810    1.7830 c2        1 5EO      0.219000
     26 NBA         8.5140   -2.0730    8.6510 n3        1 5EO     -0.253000
     27 NBB         7.4030   -1.7170    5.0960 n2        1 5EO     -1.230000
     28 HAA         2.1650   -0.8090   -0.0130 ha        1 5EO      0.057000
     29 HAAA       -1.2600    0.5170   -1.8990 ha        1 5EO      0.111000
     30 HAAB       -0.4190    2.1390   -1.6160 ha        1 5EO      0.111000
     31 HAB         4.0300   -0.8030   -2.0420 ha        1 5EO      0.000333
     32 HABA        3.3660   -0.6680   -2.0190 ha        1 5EO      0.000333
     33 HABB        6.2470   -1.5640   -2.8530 ha        1 5EO      0.231000
     34 HAC         6.5150   -0.3890    7.7800 ho        1 5EO      0.279000
     35 HACA       10.2550   -2.7350    7.5320 h1        1 5EO      0.116250
     36 HACB        9.1520   -4.1210    8.0220 h1        1 5EO      0.116250
     37 HAG         1.7620   -1.7740    5.8300 ha        1 5EO      0.152000
     38 HAH         1.3380   -1.3730    3.3720 ha        1 5EO      0.181000
     39 HAI         4.0460   -1.5260    6.7520 ha        1 5EO      0.168000
     40 HAJ         8.0180   -1.8940    0.9210 h1        1 5EO      0.190000
     41 HAK         0.9790   -0.6070   -2.1080 ha        1 5EO      0.111000
     42 HAKA        1.8210    1.0150   -1.8240 ha        1 5EO      0.111000
     43 HAL         3.8310    2.1920   -2.8010 ha        1 5EO      0.000333
     44 HALA        3.9200    1.5680   -2.5530 ha        1 5EO      0.000333
     45 HAM         3.5090    1.3890    0.1670 ha        1 5EO      0.000333
     46 HAMA        3.6320    1.0040   -0.3770 ha        1 5EO      0.000333
     47 HAN         8.8410   -2.6970    4.0000 h1        1 5EO      0.057667
     48 HANA        8.5710   -3.3240    5.6960 h1        1 5EO      0.057667
     49 HAO         7.5640   -2.3890    8.7370 hn        1 5EO      0.154000
     50 HAOA        5.3160   -2.4830    8.6310 ha        1 5EO      0.228500
     51 HAP         9.0900   -3.2450   10.4650 h1        1 5EO      0.116250
     52 HAPA        7.3510   -3.6790    4.3820 h1        1 5EO      0.057667
     53 HAQ        10.1920   -1.8450   10.0110 h1        1 5EO      0.116250
     54 HAQA        4.8740   -4.9930   10.7620 ha        1 5EO      0.228500
     55 HNAS        6.1850    1.3580    3.4500 hn        1 5EO      0.272000
     56 SBC         6.5190   -0.8060    5.5420 s6        1 5EO      2.962000
     57 CAC         9.4780   -3.0830    8.2430 cx        1 5EO     -0.184000
@<TRIPOS>BOND
     1    1   10 1   
     2    1   29 1   
     3    1   30 1   
     4    2   11 1   
     5    2   33 1   
     6    3   25 1   
     7    4   56 1   
     8    5   34 1   
     9    5   56 1   
    10    6    7 1   
    11    6   21 1   
    12    6   37 1   
    13    7   22 1   
    14    7   38 1   
    15    8   21 1   
    16    8   23 1   
    17    8   56 1   
    18    9   20 1   
    19    9   25 1   
    20   10   41 1   
    21   10   42 1   
    22   11   20 1   
    23   12   19 1   
    24   12   28 1   
    25   13   26 1   
    26   13   51 1   
    27   13   53 1   
    28   13   57 1   
    29   14   16 1   
    30   14   50 1   
    31   15   27 1   
    32   15   47 1   
    33   15   48 1   
    34   15   52 1   
    35   16   54 1   
    36   17   20 1   
    37   17   24 1   
    38   18   24 1   
    39   18   25 1   
    40   18   55 1   
    41   19   22 1   
    42   20   40 1   
    43   21   39 1   
    44   22   23 1   
    45   23   24 1   
    46   26   49 1   
    47   26   57 1   
    48   27   56 1   
    49   31   32 1   
    50   35   57 1   
    51   36   57 1   
    52   43   44 1   
    53   45   46 1   
@<TRIPOS>SUBSTRUCTURE
     1 5EO         1 TEMP              0 ****  ****    0 ROOT
