@<TRIPOS>MOLECULE
5EO
   57    53     1     0     0
SMALL
bcc


@<TRIPOS>ATOM
      1 CAA        -0.0180    0.2410   -1.7660 c2        1 5EO     -0.222000
      2 CAB         5.6890   -1.5910   -2.1870 c1        1 5EO     -0.161000
      3 OAD         9.2080    1.1470    0.7150 o         1 5EO     -0.268000
      4 OAE         6.7470    1.0020    7.8590 o         1 5EO     -0.957500
      5 OAF         5.4930   -0.9960    8.0240 o         1 5EO     -0.957500
      6 CAG         3.9650    0.2190    5.6140 c2        1 5EO     -0.091000
      7 CAH         3.3850   -0.0180    4.4230 c2        1 5EO     -0.139000
      8 CAI         6.1580   -0.3050    4.6080 c2        1 5EO     -0.233000
      9 CAJ         8.2520   -0.9390   -0.0130 c1        1 5EO      0.092000
     10 CAK         1.1880   -0.2810   -1.5850 c2        1 5EO     -0.222000
     11 CAL         6.2830   -1.6410   -1.1520 c1        1 5EO     -0.153000
     12 CAM         2.3320   -0.5000    1.8970 c1        1 5EO     -0.038000
     13 CAN         8.3390   -2.9150    7.9560 cu        1 5EO     -0.427000
     14 CAO         5.1330   -2.4550   10.7720 c1        1 5EO     -0.236500
     15 CAP         7.2370   -1.0300    5.0560 c2        1 5EO      0.048000
     16 CAQ         5.4590   -3.2600   11.5960 c1        1 5EO     -0.236500
     17 NAR         6.1130   -1.4930    1.2550 n2        1 5EO     -0.220000
     18 NAS         7.5440    0.2970    2.0220 ns        1 5EO     -0.368000
     19 OAT         3.5900   -0.1040    1.9660 os        1 5EO     -0.124000
     20 CAU         6.9870   -1.7200    0.1130 c3        1 5EO     -0.031000
     21 CAV         5.4280    0.3960    5.7220 c3        1 5EO     -0.656000
     22 CAW         4.2030   -0.1700    3.2340 c2        1 5EO      0.092000
     23 CAX         5.5550   -0.3250    3.3010 c2        1 5EO     -0.023000
     24 CAY         6.4160   -0.5510    2.1100 c2        1 5EO      0.161000
     25 CAZ         8.3770    0.2440    0.8970 c2        1 5EO      0.213000
     26 NBA         7.1830   -3.2940    8.7830 ny        1 5EO     -0.111000
     27 NBB         7.4250   -1.0060    6.4180 n7        1 5EO     -0.867000
     28 HAA         2.0280   -0.3850    0.8210 ha        1 5EO      0.050000
     29 HAAA       -0.9320   -0.3680   -1.7780 ha        1 5EO      0.110500
     30 HAAB       -0.1830    1.3160   -1.9150 ha        1 5EO      0.110500
     31 HAB         3.0790   -1.2770   -4.0270 ha        1 5EO      0.000500
     32 HABA        2.7890   -1.0160   -3.4730 ha        1 5EO      0.000500
     33 HABB        5.1630   -1.5460   -3.1090 ha        1 5EO      0.233000
     34 HAC         6.3000   -2.8190    8.5910 hn        1 5EO      0.248500
     35 HACA        7.0900   -4.4590    6.8950 hx        1 5EO      0.128500
     36 HACB        8.1620   -5.1770    8.2140 hx        1 5EO      0.128500
     37 HAG         3.3790    0.3260    6.5390 ha        1 5EO      0.147000
     38 HAH         2.2940   -0.1240    4.2930 ha        1 5EO      0.177000
     39 HAI         5.6240    1.5100    5.6440 h1        1 5EO      0.171000
     40 HAJ         7.3520   -2.8060    0.2260 h1        1 5EO      0.183000
     41 HAK         1.3540   -1.3570   -1.4370 ha        1 5EO      0.110500
     42 HAKA        2.1050    0.3280   -1.5730 ha        1 5EO      0.110500
     43 HAL         4.2550    0.5850   -2.6370 ha        1 5EO      0.000500
     44 HALA        4.0770    1.2310   -2.5330 ha        1 5EO      0.000500
     45 HAM         3.7580    1.3990   -0.2870 ha        1 5EO      0.000500
     46 HAMA        3.3230    1.5500    0.2100 ha        1 5EO      0.000500
     47 HAN         7.0620   -3.7750    4.6550 ha        1 5EO      0.000500
     48 HANA        7.9180   -1.6220    4.4280 h4        1 5EO      0.173000
     49 HAO         7.2760   -3.5100    9.7650 hn        1 5EO      0.248500
     50 HAOA        4.8450   -1.7300   10.0390 ha        1 5EO      0.239500
     51 HAP         6.9390   -4.4320    4.5430 ha        1 5EO      0.000500
     52 HAPA        9.3120   -2.7530    8.4360 hx        1 5EO      0.129000
     53 HAQ         5.7260   -3.9630   12.3450 ha        1 5EO      0.239500
     54 HAQA        8.0040   -1.8440    6.9650 hn        1 5EO      0.361000
     55 HNAS        7.6410    1.0310    2.6880 hn        1 5EO      0.254000
     56 SBC         6.2840   -0.1460    7.1890 s6        1 5EO      2.701000
     57 CAC         7.7210   -4.2500    7.7880 cx        1 5EO     -0.124000
@<TRIPOS>BOND
     1    1   10 1   
     2    1   29 1   
     3    1   30 1   
     4    2   11 1   
     5    2   33 1   
     6    3   25 1   
     7    4   56 1   
     8    5   56 1   
     9    6    7 1   
    10    6   21 1   
    11    6   37 1   
    12    7   22 1   
    13    7   38 1   
    14    8   15 1   
    15    8   21 1   
    16    8   23 1   
    17    9   20 1   
    18    9   25 1   
    19   10   41 1   
    20   10   42 1   
    21   11   20 1   
    22   12   19 1   
    23   12   28 1   
    24   13   26 1   
    25   13   52 1   
    26   13   57 1   
    27   14   16 1   
    28   14   50 1   
    29   15   27 1   
    30   15   48 1   
    31   16   53 1   
    32   17   20 1   
    33   17   24 1   
    34   18   24 1   
    35   18   25 1   
    36   18   55 1   
    37   19   22 1   
    38   20   40 1   
    39   21   39 1   
    40   21   56 1   
    41   22   23 1   
    42   23   24 1   
    43   26   34 1   
    44   26   49 1   
    45   26   57 1   
    46   27   54 1   
    47   27   56 1   
    48   31   32 1   
    49   35   57 1   
    50   36   57 1   
    51   43   44 1   
    52   45   46 1   
    53   47   51 1   
@<TRIPOS>SUBSTRUCTURE
     1 5EO         1 TEMP              0 ****  ****    0 ROOT
