@<TRIPOS>MOLECULE
5EY
   47    43     1     0     0
SMALL
bcc


@<TRIPOS>ATOM
      1 C3          5.2220    1.6150    3.6650 c1        1 5EY     -0.135500
      2 C2          6.2590    1.9190    2.7750 c1        1 5EY     -0.135500
      3 C4          4.0710    0.9820    3.2030 c1        1 5EY     -0.135500
      4 C12         0.7380   -2.1730   -0.0860 c1        1 5EY     -0.163000
      5 C1          6.1390    1.5900    1.4270 c1        1 5EY     -0.135500
      6 C13        -0.2860   -2.6900   -0.9130 c1        1 5EY     -0.165000
      7 C5          3.9500    0.6520    1.8530 c1        1 5EY      0.006000
      8 C11         0.5480   -0.9210    0.6020 c1        1 5EY     -0.085000
      9 C16        -0.6630   -0.2070    0.4520 c1        1 5EY     -0.053000
     10 C6          4.9870    0.9560    0.9630 c1        1 5EY     -0.084000
     11 C14        -1.4700   -1.9950   -1.0620 c1        1 5EY      0.002000
     12 C15        -1.6650   -0.7070   -0.3540 c1        1 5EY      0.040000
     13 C9          2.8250   -0.0530    1.0570 c2        1 5EY     -0.166000
     14 C10         1.6180   -0.4050    1.5400 c2        1 5EY     -0.005000
     15 C17        -1.0050    0.9530    1.3640 c2        1 5EY      0.375000
     16 C26        -7.1980    1.3190   -1.9740 c1        1 5EY      0.327000
     17 C7          4.4590    0.7730   -0.4580 c3        1 5EY     -0.121000
     18 C22        -3.7850   -1.9630   -1.6380 c3        1 5EY     -0.055000
     19 C8          3.2530   -0.1200   -0.3960 c3        1 5EY      0.078000
     20 C21        -3.7510   -0.4760   -1.4960 c3        1 5EY     -0.005000
     21 C25        -5.7810    0.8760   -2.2840 c2        1 5EY     -0.221000
     22 C24        -5.2610    0.0250   -1.1500 c3        1 5EY     -0.146000
     23 O19        -1.4430    0.7340    2.5230 o         1 5EY     -0.555000
     24 O28        -7.4090    2.4690   -1.5020 o         1 5EY     -0.593500
     25 O18        -0.8590    2.1370    0.9580 o         1 5EY     -0.555000
     26 O27        -8.1630    0.5440   -2.2000 o         1 5EY     -0.593500
     27 O23        -2.6400   -2.5630   -1.7940 os        1 5EY     -0.231000
     28 O20        -2.9470    0.0090   -0.5780 os        1 5EY     -0.170000
     29 O29         3.5010   -1.4680   -0.8690 oh        1 5EY     -0.350000
     30 H3          5.3060    1.8460    4.6100 ha        1 5EY      0.121750
     31 HA          7.0660    2.3630    3.1000 ha        1 5EY      0.121750
     32 H4          3.3480    0.7690    3.8240 ha        1 5EY      0.121750
     33 H1          6.8630    1.8030    0.8060 ha        1 5EY      0.121750
     34 H13        -0.1550   -3.5390   -1.3790 ha        1 5EY      0.122000
     35 H10         1.4350   -0.3330    2.4950 ha        1 5EY      0.167000
     36 H71C        5.1470    0.3600   -1.0150 hc        1 5EY      0.092500
     37 H72C        4.2080    1.6420   -0.8320 hc        1 5EY      0.092500
     38 H8          2.5460    0.1770   -1.0010 h1        1 5EY      0.099000
     39 H251       -5.2100    1.6620   -2.3900 ha        1 5EY      0.060500
     40 H252       -5.7760    0.3560   -3.1100 ha        1 5EY      0.060500
     41 H21        -3.4920   -0.0940   -2.3600 h1        1 5EY      0.089000
     42 H29         3.5350   -1.4690   -1.7570 ho        1 5EY      0.219000
     43 H241       -5.2500    0.5520   -0.3250 hc        1 5EY      0.106000
     44 H242       -5.8430   -0.7510   -1.0330 hc        1 5EY      0.106000
     45 H22A       -4.3470   -2.1790   -2.4120 h1        1 5EY      0.106500
     46 H12         1.5900   -2.6460   -0.0110 ha        1 5EY      0.116000
     47 H22B       -4.2130   -2.3320   -0.8390 h1        1 5EY      0.106500
@<TRIPOS>BOND
     1    1    3 1   
     2    1   30 1   
     3    2    5 1   
     4    2   31 1   
     5    3   32 1   
     6    4    8 1   
     7    4   46 1   
     8    5   33 1   
     9    6   11 1   
    10    6   34 1   
    11    7   10 1   
    12    7   13 1   
    13    8   14 1   
    14    9   12 1   
    15    9   15 1   
    16   10   17 1   
    17   11   27 1   
    18   12   28 1   
    19   13   14 1   
    20   13   19 1   
    21   14   35 1   
    22   15   23 1   
    23   15   25 1   
    24   16   24 1   
    25   16   26 1   
    26   17   19 1   
    27   17   36 1   
    28   17   37 1   
    29   18   20 1   
    30   18   27 1   
    31   18   45 1   
    32   18   47 1   
    33   19   29 1   
    34   19   38 1   
    35   20   22 1   
    36   20   28 1   
    37   20   41 1   
    38   21   22 1   
    39   21   39 1   
    40   21   40 1   
    41   22   43 1   
    42   22   44 1   
    43   29   42 1   
@<TRIPOS>SUBSTRUCTURE
     1 5EY         1 TEMP              0 ****  ****    0 ROOT
