@<TRIPOS>MOLECULE
5EY
   47    46     1     0     0
SMALL
bcc


@<TRIPOS>ATOM
      1 C3         -1.7450    4.0290    1.5690 c3        1 5EY     -0.278000
      2 C2          3.0850   -0.5480   -0.4230 c1        1 5EY      0.062000
      3 C4         -0.0630    1.0400    0.8630 c1        1 5EY      0.353000
      4 C12        -2.8790   -2.2740    3.6020 c3        1 5EY     -0.070000
      5 C1          2.3390   -0.5610    0.5900 c1        1 5EY     -0.634000
      6 C13        -4.2430   -2.8280    3.6840 c2        1 5EY     -0.290000
      7 C5          0.3810    0.2200    1.8240 c2        1 5EY     -0.372000
      8 C11        -2.8150   -0.7810    3.4310 c2        1 5EY      0.162000
      9 C16        -3.9820    0.0130    3.5590 c2        1 5EY     -0.473000
     10 C6          1.5660   -0.5950    1.6920 c2        1 5EY      0.363000
     11 C14        -5.3290   -2.0420    3.8010 c2        1 5EY      0.023000
     12 C15        -5.2620   -0.5450    3.8700 c2        1 5EY      0.339000
     13 C9         -0.3800    0.1720    3.0930 c2        1 5EY     -0.135000
     14 C10        -1.6040   -0.2800    3.1890 c1        1 5EY     -0.289000
     15 C17        -3.8230    1.4600    3.5310 c2        1 5EY      0.418000
     16 C26        -8.5950    2.9270   -1.8820 c2        1 5EY      0.325000
     17 C7          1.9180   -1.4800    2.8270 c3        1 5EY     -0.237000
     18 C22        -5.5080    1.7840    1.8510 c2        1 5EY     -0.047000
     19 C8          0.3690    0.6390    4.2740 c1        1 5EY      0.010000
     20 C21        -6.2890    2.6560    1.1950 c2        1 5EY     -0.192000
     21 C24        -7.2830    2.2470    0.1730 c3        1 5EY     -0.107000
     22 O19        -4.6210    2.3090    2.7900 os        1 5EY     -0.223000
     23 O28        -9.4570    3.7950   -2.2180 o         1 5EY     -0.597000
     24 O18        -2.9710    2.1290    4.1440 o         1 5EY     -0.415000
     25 O27        -8.5590    1.7640   -2.3800 o         1 5EY     -0.597000
     26 O23        -6.6100   -2.5330    3.8860 oh        1 5EY     -0.229000
     27 O20        -6.2710    0.0980    4.2130 o         1 5EY     -0.353000
     28 O29        -0.2730    1.2230    5.2310 oh        1 5EY     -0.181000
     29 H3         -2.4720    3.5840    2.2900 hc        1 5EY      0.069250
     30 HA         -1.0900    4.7540    2.0990 hc        1 5EY      0.069250
     31 H4         -2.2980    4.5500    0.7590 hc        1 5EY      0.069250
     32 H1         -1.1210    3.2170    1.1290 hc        1 5EY      0.069250
     33 H13        -4.3220   -3.9230    3.6420 ha        1 5EY      0.106000
     34 H10        -2.3410   -2.7590    2.7400 hc        1 5EY      0.086500
     35 H71C        1.0480   -2.1380    3.0780 hc        1 5EY      0.114667
     36 H72C        2.8080   -2.1120    2.5930 hc        1 5EY      0.114667
     37 H8          2.1310   -0.8420    3.7280 hc        1 5EY      0.114667
     38 H251       -7.8730    4.2720   -0.3340 hc        1 5EY      0.059500
     39 H252       -6.5910    3.5670   -1.3970 hc        1 5EY      0.059500
     40 H21        -6.2250    3.7340    1.4100 ha        1 5EY      0.120000
     41 H29        -1.2460    1.3410    5.0950 ho        1 5EY      0.224000
     42 H241       -8.2490    1.9990    0.6920 hc        1 5EY      0.089500
     43 H242       -6.9570    1.3160   -0.3640 hc        1 5EY      0.089500
     44 H22A       -5.5000    0.6950    1.7180 h4        1 5EY      0.147000
     45 H12        -2.3160   -2.5480    4.5390 hc        1 5EY      0.086500
     46 H22B       -6.5710   -3.4900    3.7480 ho        1 5EY      0.189000
     47 C25        -7.5380    3.3350   -0.8460 c3        1 5EY     -0.213000
@<TRIPOS>BOND
     1    1   29 1   
     2    1   30 1   
     3    1   31 1   
     4    1   32 1   
     5    2    5 1   
     6    3    7 1   
     7    4    6 1   
     8    4    8 1   
     9    4   34 1   
    10    4   45 1   
    11    5   10 1   
    12    6   11 1   
    13    6   33 1   
    14    7   10 1   
    15    7   13 1   
    16    8    9 1   
    17    8   14 1   
    18    9   12 1   
    19    9   15 1   
    20   10   17 1   
    21   11   12 1   
    22   11   26 1   
    23   12   27 1   
    24   13   14 1   
    25   13   19 1   
    26   15   22 1   
    27   15   24 1   
    28   16   23 1   
    29   16   25 1   
    30   16   47 1   
    31   17   35 1   
    32   17   36 1   
    33   17   37 1   
    34   18   20 1   
    35   18   22 1   
    36   18   44 1   
    37   19   28 1   
    38   20   21 1   
    39   20   40 1   
    40   21   42 1   
    41   21   43 1   
    42   21   47 1   
    43   26   46 1   
    44   28   41 1   
    45   38   47 1   
    46   39   47 1   
@<TRIPOS>SUBSTRUCTURE
     1 5EY         1 TEMP              0 ****  ****    0 ROOT
