@<TRIPOS>MOLECULE
5EY
   47    47     1     0     0
SMALL
bcc


@<TRIPOS>ATOM
      1 C3         -0.3930    2.7090    1.4570 c3        1 5EY     -0.269000
      2 C2          3.8230   -0.1800    0.7970 c1        1 5EY      0.099000
      3 C4          0.2020    1.4310    1.2460 c1        1 5EY     -0.090000
      4 C12        -3.2320   -2.0800    3.0230 c3        1 5EY     -0.058000
      5 C1          2.5440    0.0320    0.9770 c2        1 5EY     -0.420000
      6 C13        -4.6080   -2.4060    2.6000 c2        1 5EY     -0.326000
      7 C5          0.5210    0.4700    2.2440 c2        1 5EY     -0.048000
      8 C11        -2.9030   -0.6200    2.9810 c2        1 5EY      0.019000
      9 C16        -3.9670    0.3720    2.8200 c2        1 5EY     -0.112000
     10 C6          1.6830   -0.2420    2.1110 c2        1 5EY      0.006000
     11 C14        -5.5320   -1.4470    2.3670 c2        1 5EY      0.093000
     12 C15        -5.2340   -0.0150    2.5250 c2        1 5EY      0.069000
     13 C9         -0.4400    0.2150    3.3280 c2        1 5EY     -0.156000
     14 C10        -1.6560   -0.2220    3.1160 c1        1 5EY     -0.128000
     15 C17        -3.5310    1.8180    2.9950 c2        1 5EY      0.379000
     16 C26        -9.6170    3.7210    0.3480 c2        1 5EY      0.326000
     17 C7          2.1300   -1.2700    3.0780 c3        1 5EY     -0.190000
     18 C22        -6.3370    0.9300    0.0160 c1        1 5EY     -0.061000
     19 C8          0.0420    0.4950    4.7020 c1        1 5EY      0.034000
     20 C21        -6.4710    1.6270    1.2720 c3        1 5EY     -0.076000
     21 C24        -7.8610    2.2660    1.4270 c3        1 5EY     -0.097000
     22 O19        -3.1100    2.1850    4.1310 o         1 5EY     -0.563000
     23 O28        -9.8950    4.9290    0.0860 o         1 5EY     -0.600000
     24 O18        -3.5500    2.5750    1.9830 o         1 5EY     -0.563000
     25 O27       -10.5070    2.8410    0.5480 o         1 5EY     -0.600000
     26 O23        -6.8160   -1.7180    1.9580 oh        1 5EY     -0.227000
     27 O20        -6.3240    0.8190    2.4890 os        1 5EY     -0.241000
     28 O29        -0.7130    1.1560    5.5110 oh        1 5EY     -0.188000
     29 H3         -1.5300    2.5410    1.4750 hc        1 5EY      0.137000
     30 HA         -0.1810    3.4070    0.6090 hc        1 5EY      0.137000
     31 H4         -0.1430    3.2100    2.4270 hc        1 5EY      0.137000
     32 H1          1.9820    0.5270    0.1310 ha        1 5EY      0.237000
     33 H13        -4.8420   -3.4730    2.4900 ha        1 5EY      0.108000
     34 H10        -2.5050   -2.6400    2.3710 hc        1 5EY      0.082000
     35 H71C        1.7280   -2.2690    2.7730 hc        1 5EY      0.088000
     36 H72C        3.2450   -1.3340    3.1100 hc        1 5EY      0.088000
     37 H8          1.7520   -1.0360    4.1070 hc        1 5EY      0.088000
     38 H251       -7.5110    4.2270    0.5760 hc        1 5EY      0.077500
     39 H252       -7.8660    2.9270   -0.6310 hc        1 5EY      0.077500
     40 H21        -5.6530    2.4220    1.3030 h1        1 5EY      0.197000
     41 H29        -1.5940    1.4580    5.1620 ho        1 5EY      0.257000
     42 H241       -7.9140    2.7110    2.4540 hc        1 5EY      0.095500
     43 H242       -8.6450    1.4660    1.3680 hc        1 5EY      0.095500
     44 H22A       -6.0670   -0.1380    0.0720 ha        1 5EY      0.030000
     45 H12        -3.0760   -2.4500    4.0770 hc        1 5EY      0.082000
     46 H22B       -6.9140   -2.6800    1.9150 ho        1 5EY      0.194000
     47 C25        -8.1340    3.3180    0.3830 c3        1 5EY     -0.221000
@<TRIPOS>BOND
     1    1    3 1   
     2    1   29 1   
     3    1   30 1   
     4    1   31 1   
     5    2    5 1   
     6    3    7 1   
     7    4    6 1   
     8    4    8 1   
     9    4   34 1   
    10    4   45 1   
    11    5   10 1   
    12    5   32 1   
    13    6   11 1   
    14    6   33 1   
    15    7   10 1   
    16    7   13 1   
    17    8    9 1   
    18    8   14 1   
    19    9   12 1   
    20    9   15 1   
    21   10   17 1   
    22   11   12 1   
    23   11   26 1   
    24   12   27 1   
    25   13   14 1   
    26   13   19 1   
    27   15   22 1   
    28   15   24 1   
    29   16   23 1   
    30   16   25 1   
    31   16   47 1   
    32   17   35 1   
    33   17   36 1   
    34   17   37 1   
    35   18   20 1   
    36   18   44 1   
    37   19   28 1   
    38   20   21 1   
    39   20   27 1   
    40   20   40 1   
    41   21   42 1   
    42   21   43 1   
    43   21   47 1   
    44   26   46 1   
    45   28   41 1   
    46   38   47 1   
    47   39   47 1   
@<TRIPOS>SUBSTRUCTURE
     1 5EY         1 TEMP              0 ****  ****    0 ROOT
