@<TRIPOS>MOLECULE
5EY
   47    50     1     0     0
SMALL
bcc


@<TRIPOS>ATOM
      1 C3         -4.2400   -2.1540    2.1280 ca        1 5EY     -0.136000
      2 C2         -5.6070   -1.9480    2.2830 ca        1 5EY     -0.157000
      3 C4         -3.4950   -1.3990    1.2130 ca        1 5EY     -0.113000
      4 C12        -1.2280   -1.5600   -0.9760 ca        1 5EY     -0.142000
      5 C1         -6.2630   -0.9610    1.5350 ca        1 5EY     -0.135000
      6 C13        -0.0670   -2.3150   -0.8760 ca        1 5EY     -0.170000
      7 C5         -4.1390   -0.4370    0.4450 ca        1 5EY     -0.003800
      8 C11        -1.1840   -0.1630   -0.8730 ca        1 5EY     -0.096800
      9 C16         0.0360    0.5110   -0.6670 ca        1 5EY     -0.068600
     10 C6         -5.5330   -0.2100    0.6310 ca        1 5EY     -0.096300
     11 C14         1.1540   -1.6580   -0.6740 ca        1 5EY      0.053100
     12 C15         1.2120   -0.2520   -0.5700 ca        1 5EY      0.081100
     13 C9         -3.6100    0.4820   -0.5550 ce        1 5EY     -0.182400
     14 C10        -2.3830    0.6330   -1.0790 cf        1 5EY      0.003800
     15 C17         0.0110    2.0360   -0.5540 c         1 5EY      0.922200
     16 C26         7.2530   -0.1320    0.3760 c         1 5EY      0.907600
     17 C7         -6.0090    0.9140   -0.2240 c3        1 5EY     -0.048100
     18 C22         3.5080   -1.7530   -0.6820 c3        1 5EY      0.094400
     19 C8         -4.7540    1.3830   -1.0010 c3        1 5EY      0.193300
     20 C21         3.4700   -0.4390    0.0910 c3        1 5EY      0.106100
     21 C24         4.7850    0.3170   -0.0530 c3        1 5EY     -0.067400
     22 O19        -0.3070    2.6850   -1.5940 o         1 5EY     -0.820800
     23 O28         8.1740    0.2010    1.1780 o         1 5EY     -0.858800
     24 O18         0.2280    2.5540    0.5710 o         1 5EY     -0.820800
     25 O27         7.4650   -0.4520   -0.8310 o         1 5EY     -0.858800
     26 O23         2.2720   -2.4670   -0.5570 os        1 5EY     -0.346900
     27 O20         2.4230    0.4050   -0.4330 os        1 5EY     -0.286900
     28 O29        -4.5530    2.7620   -0.7430 oh        1 5EY     -0.623800
     29 H3         -3.7280   -2.9160    2.7340 ha        1 5EY      0.119000
     30 HA         -6.1760   -2.5510    3.0030 ha        1 5EY      0.108000
     31 H4         -2.4080   -1.5540    1.1180 ha        1 5EY      0.165000
     32 H1         -7.3380   -0.7850    1.6730 ha        1 5EY      0.112000
     33 H13        -0.0860   -3.4090   -0.9560 ha        1 5EY      0.122000
     34 H10        -2.2040    1.4960   -1.7640 ha        1 5EY      0.180000
     35 H71C       -6.8060    0.5790   -0.9320 hc        1 5EY      0.050700
     36 H72C       -6.4150    1.7530    0.3960 hc        1 5EY      0.050700
     37 H8         -4.9190    1.2800   -2.1100 h1        1 5EY      0.038700
     38 H251        5.6190   -1.2710    1.1740 hc        1 5EY      0.021700
     39 H252        5.7660    0.3850    1.8800 hc        1 5EY      0.021700
     40 H21         3.2360   -0.6390    1.1740 h1        1 5EY      0.050700
     41 H29        -3.6220    2.8910   -0.5130 ho        1 5EY      0.438000
     42 H241        5.1740    0.2020   -1.1010 hc        1 5EY      0.067200
     43 H242        4.5920    1.4080    0.1170 hc        1 5EY      0.067200
     44 H22A        3.7060   -1.5650   -1.7690 h1        1 5EY      0.067200
     45 H12        -2.1900   -2.0620   -1.1530 ha        1 5EY      0.115000
     46 H22B        4.2760   -2.4510   -0.2590 h1        1 5EY      0.067200
     47 C25         5.8170   -0.1960    0.9250 c3        1 5EY     -0.192400
@<TRIPOS>BOND
     1    1    2 ar  
     2    1    3 ar  
     3    1   29 1   
     4    2    5 ar  
     5    2   30 1   
     6    3    7 ar  
     7    3   31 1   
     8    4    6 ar  
     9    4    8 ar  
    10    4   45 1   
    11    5   10 ar  
    12    5   32 1   
    13    6   11 ar  
    14    6   33 1   
    15    7   10 ar  
    16    7   13 1   
    17    8    9 ar  
    18    8   14 1   
    19    9   12 ar  
    20    9   15 1   
    21   10   17 1   
    22   11   12 ar  
    23   11   26 1   
    24   12   27 1   
    25   13   14 2   
    26   13   19 1   
    27   14   34 1   
    28   15   22 1   
    29   15   24 1   
    30   16   23 1   
    31   16   25 1   
    32   16   47 1   
    33   17   19 1   
    34   17   35 1   
    35   17   36 1   
    36   18   20 1   
    37   18   26 1   
    38   18   44 1   
    39   18   46 1   
    40   19   28 1   
    41   19   37 1   
    42   20   21 1   
    43   20   27 1   
    44   20   40 1   
    45   21   42 1   
    46   21   43 1   
    47   21   47 1   
    48   28   41 1   
    49   38   47 1   
    50   39   47 1   
@<TRIPOS>SUBSTRUCTURE
     1 5EY         1 TEMP              0 ****  ****    0 ROOT
