@<TRIPOS>MOLECULE
5EZ
   34    33     1     0     0
SMALL
bcc


@<TRIPOS>ATOM
      1 N1         -4.9520    0.6160    1.5760 n3        1 5EZ     -0.272000
      2 C2         -3.9110    0.2850    0.4760 c3        1 5EZ     -0.089000
      3 C3         -4.1210    1.0990    2.8050 c3        1 5EZ     -0.096000
      4 C4         -2.7580    0.7880    0.9230 c3        1 5EZ     -0.133000
      5 C5         -2.8630    0.7910    2.5170 c3        1 5EZ     -0.178000
      6 C6         -1.5720   -0.1100    0.4680 c3        1 5EZ     -0.014000
      7 O7         -0.5360    0.7000   -0.0360 os        1 5EZ     -0.199000
      8 C8          2.6190    1.1940   -0.9160 c1        1 5EZ     -0.031000
      9 C9          1.2990    1.1760   -0.4880 c1        1 5EZ     -0.116000
     10 C11         0.5930   -0.0200   -0.4640 c2        1 5EZ      0.132000
     11 C13         1.2060   -1.1960   -0.8680 c2        1 5EZ     -0.227000
     12 C14         3.2410    0.0040   -1.3250 c1        1 5EZ     -0.167000
     13 C15         2.5430   -1.1790   -1.3010 c1        1 5EZ      0.068000
     14 C16         3.2070   -2.4530   -1.7520 c2        1 5EZ     -0.238000
     15 C17         4.6300   -2.4310   -2.2080 c1        1 5EZ      0.015000
     16 N18         5.3590   -1.2030   -2.2160 n2        1 5EZ     -0.300000
     17 C19         4.7210    0.0210   -1.7840 c2        1 5EZ      0.345000
     18 O21         5.3460    1.0620   -1.7790 o         1 5EZ     -0.358000
     19 CL2         0.9020    2.8600   -0.2710 cl        1 5EZ      0.012000
     20 H1         -5.4930    1.2920    1.2900 hn        1 5EZ      0.145000
     21 H21C       -4.1630    0.7120   -0.3690 h1        1 5EZ      0.088500
     22 H22C       -3.8370   -0.6850    0.3590 h1        1 5EZ      0.088500
     23 H31C       -4.2170    2.0670    2.9200 h1        1 5EZ      0.088500
     24 H32C       -4.4090    0.6290    3.6150 h1        1 5EZ      0.088500
     25 H4         -2.6370    1.7000    0.5920 hc        1 5EZ      0.112000
     26 H51C       -2.2570    1.4640    2.8930 hc        1 5EZ      0.096000
     27 H52C       -2.6430   -0.0950    2.8710 hc        1 5EZ      0.096000
     28 H61C       -1.8770   -0.7240   -0.2320 h1        1 5EZ      0.086000
     29 H62C       -1.2410   -0.6260    1.2330 h1        1 5EZ      0.086000
     30 H8          3.1150    2.0350   -0.9320 ha        1 5EZ      0.174000
     31 H131        0.7070   -2.0350   -0.8600 ha        1 5EZ      0.147000
     32 H16         2.7090   -3.2920   -1.7460 ha        1 5EZ      0.151000
     33 H17         5.0620   -3.2560   -2.5000 ha        1 5EZ      0.151000
     34 H18         6.2270   -1.1900   -2.4940 hn        1 5EZ      0.249000
@<TRIPOS>BOND
     1    1    2 1   
     2    1    3 1   
     3    1   20 1   
     4    2    4 1   
     5    2   21 1   
     6    2   22 1   
     7    3    5 1   
     8    3   23 1   
     9    3   24 1   
    10    4    5 1   
    11    4    6 1   
    12    4   25 1   
    13    5   26 1   
    14    5   27 1   
    15    6    7 1   
    16    6   28 1   
    17    6   29 1   
    18    7   10 1   
    19    8   12 1   
    20    8   30 1   
    21    9   10 1   
    22    9   19 1   
    23   10   11 1   
    24   11   13 1   
    25   11   31 1   
    26   12   17 1   
    27   13   14 1   
    28   14   15 1   
    29   14   32 1   
    30   15   33 1   
    31   16   17 1   
    32   16   34 1   
    33   17   18 1   
@<TRIPOS>SUBSTRUCTURE
     1 5EZ         1 TEMP              0 ****  ****    0 ROOT
