@<TRIPOS>MOLECULE
5EZ
   34    36     1     0     0
SMALL
bcc


@<TRIPOS>ATOM
      1 N1          5.5180    0.1390   -1.0570 n3        1 5EZ     -0.795200
      2 C2          4.1940   -0.4050   -0.7730 c3        1 5EZ      0.149800
      3 C3          5.7130    1.3120   -0.2100 c3        1 5EZ      0.144800
      4 C4          3.6560    0.2130    0.5380 c3        1 5EZ     -0.094700
      5 C5          4.6170    1.3570    0.8700 c3        1 5EZ     -0.101400
      6 C6          2.2310    0.7210    0.3940 c3        1 5EZ      0.136400
      7 O7          1.4020   -0.4510    0.3440 os        1 5EZ     -0.315900
      8 C8         -2.1400   -1.2700    0.0410 ca        1 5EZ     -0.031000
      9 C9         -0.7630   -1.4020    0.1700 ca        1 5EZ     -0.036600
     10 C11         0.0500   -0.2360    0.2150 ca        1 5EZ      0.177100
     11 C13        -0.5310    1.0290    0.1310 ca        1 5EZ     -0.227000
     12 C14        -2.7270    0.0020   -0.0440 ca        1 5EZ     -0.187600
     13 C15        -1.9230    1.1600    0.0000 ca        1 5EZ      0.056200
     14 C16        -2.5570    2.4480   -0.0900 cc        1 5EZ     -0.226200
     15 C17        -3.9140    2.5290   -0.2170 cd        1 5EZ      0.017600
     16 N18        -4.7210    1.4130   -0.2620 n         1 5EZ     -0.456100
     17 C19        -4.1890    0.1150   -0.1800 c         1 5EZ      0.708100
     18 O21        -4.9750   -0.8500   -0.2270 o         1 5EZ     -0.633500
     19 H1          6.2240   -0.5480   -0.8650 hn        1 5EZ      0.349800
     20 H21C        3.5230   -0.1290   -1.6330 h1        1 5EZ      0.056200
     21 H22C        4.2110   -1.5250   -0.7000 h1        1 5EZ      0.056200
     22 H31C        6.7330    1.3180    0.2590 h1        1 5EZ      0.048200
     23 H32C        5.6350    2.2180   -0.8710 h1        1 5EZ      0.048200
     24 H4          3.6760   -0.5620    1.3490 hc        1 5EZ      0.072700
     25 H51C        5.0570    1.2180    1.8870 hc        1 5EZ      0.049700
     26 H52C        4.1000    2.3480    0.8560 hc        1 5EZ      0.049700
     27 H61C        1.9400    1.3410    1.2830 h1        1 5EZ      0.046700
     28 H62C        2.1000    1.3150   -0.5480 h1        1 5EZ      0.046700
     29 H8         -2.7930   -2.1600    0.0030 ha        1 5EZ      0.174000
     30 H131        0.0830    1.9400    0.1640 ha        1 5EZ      0.146000
     31 H16        -1.9400    3.3540   -0.0580 ha        1 5EZ      0.151000
     32 H17        -4.4380    3.5010   -0.2900 h4        1 5EZ      0.151000
     33 H18        -5.7070    1.5140   -0.3550 hn        1 5EZ      0.335500
     34 CL2        -0.0950   -2.9590    0.2690 cl        1 5EZ     -0.066400
@<TRIPOS>BOND
     1    1    2 1   
     2    1    3 1   
     3    1   19 1   
     4    2    4 1   
     5    2   20 1   
     6    2   21 1   
     7    3    5 1   
     8    3   22 1   
     9    3   23 1   
    10    4    5 1   
    11    4    6 1   
    12    4   24 1   
    13    5   25 1   
    14    5   26 1   
    15    6    7 1   
    16    6   27 1   
    17    6   28 1   
    18    7   10 1   
    19    8    9 ar  
    20    8   12 ar  
    21    8   29 1   
    22    9   10 ar  
    23    9   34 1   
    24   10   11 ar  
    25   11   13 ar  
    26   11   30 1   
    27   12   13 ar  
    28   12   17 1   
    29   13   14 1   
    30   14   15 2   
    31   14   31 1   
    32   15   16 1   
    33   15   32 1   
    34   16   17 1   
    35   16   33 1   
    36   17   18 2   
@<TRIPOS>SUBSTRUCTURE
     1 5EZ         1 TEMP              0 ****  ****    0 ROOT
