@<TRIPOS>MOLECULE
5EZ
   34    35     1     0     0
SMALL
bcc


@<TRIPOS>ATOM
      1 N1          0.3060   -1.6430   -0.5240 n3        1 5EZ     -0.338000
      2 C2          2.4720    0.6400    0.3090 c2        1 5EZ     -0.176000
      3 C3          0.0120   -0.9460    0.6970 c3        1 5EZ     -0.079000
      4 C4          2.3870   -0.2680    1.2840 c2        1 5EZ     -0.145000
      5 C5          1.1180   -0.8880    1.7550 c3        1 5EZ     -0.172000
      6 C6          3.5810   -0.7600    2.0390 c3        1 5EZ     -0.007000
      7 O7          4.6730    0.1670    1.8070 os        1 5EZ     -0.141000
      8 C8          7.2900   -0.9680    0.3750 c1        1 5EZ     -0.123000
      9 C9          6.9960    0.2510    1.1150 c3        1 5EZ      0.035000
     10 C11         5.9210   -0.2490    2.0300 c2        1 5EZ      0.049000
     11 C13         6.2360   -1.4370    2.8690 c3        1 5EZ     -0.155000
     12 C14         7.1940   -2.2500    0.7060 c2        1 5EZ     -0.224000
     13 C15         6.5960   -2.6070    2.0020 c2        1 5EZ     -0.028000
     14 C16         6.4370   -3.8970    2.3630 c2        1 5EZ     -0.224000
     15 C17         6.8810   -4.9270    1.4240 c2        1 5EZ      0.014000
     16 N18         7.4410   -4.7110    0.2800 n2        1 5EZ     -0.196000
     17 C19         7.6710   -3.3650   -0.1590 c2        1 5EZ      0.311000
     18 O21         8.2460   -3.1750   -1.2370 o         1 5EZ     -0.245000
     19 H1          1.5940    1.0040   -0.2400 ha        1 5EZ      0.133500
     20 H21C        1.0800   -1.2210   -1.0020 hn        1 5EZ      0.145500
     21 H22C        3.4320    1.0850    0.0060 ha        1 5EZ      0.133500
     22 H31C        0.5180   -2.6060   -0.3510 hn        1 5EZ      0.145500
     23 H32C       -0.8840   -1.4420    1.1700 h1        1 5EZ      0.095000
     24 H4         -0.2880    0.1070    0.4300 h1        1 5EZ      0.095000
     25 H51C        0.7350   -0.2980    2.6310 hc        1 5EZ      0.090500
     26 H52C        1.3250   -1.9300    2.1240 hc        1 5EZ      0.090500
     27 H61C        3.3780   -0.7680    3.1430 h1        1 5EZ      0.103000
     28 H62C        3.8760   -1.7840    1.6890 h1        1 5EZ      0.103000
     29 H8          7.9120    0.5580    1.6950 h1        1 5EZ      0.171000
     30 H131        5.3840   -1.6910    3.5530 hc        1 5EZ      0.131000
     31 H16         7.1290   -1.1930    3.5140 hc        1 5EZ      0.131000
     32 H17         6.0050   -4.2130    3.3200 ha        1 5EZ      0.145000
     33 H18         6.7270   -5.9840    1.7210 h4        1 5EZ      0.159000
     34 CL2         6.5730    1.6250    0.1240 cl        1 5EZ     -0.029000
@<TRIPOS>BOND
     1    1    3 1   
     2    1   20 1   
     3    1   22 1   
     4    2    4 1   
     5    2   19 1   
     6    2   21 1   
     7    3    5 1   
     8    3   23 1   
     9    3   24 1   
    10    4    5 1   
    11    4    6 1   
    12    5   25 1   
    13    5   26 1   
    14    6    7 1   
    15    6   27 1   
    16    6   28 1   
    17    7   10 1   
    18    8    9 1   
    19    8   12 1   
    20    9   10 1   
    21    9   29 1   
    22    9   34 1   
    23   10   11 1   
    24   11   13 1   
    25   11   30 1   
    26   11   31 1   
    27   12   13 1   
    28   12   17 1   
    29   13   14 1   
    30   14   15 1   
    31   14   32 1   
    32   15   16 1   
    33   15   33 1   
    34   16   17 1   
    35   17   18 1   
@<TRIPOS>SUBSTRUCTURE
     1 5EZ         1 TEMP              0 ****  ****    0 ROOT
