@<TRIPOS>MOLECULE
5EZ
   34    34     1     0     0
SMALL
bcc


@<TRIPOS>ATOM
      1 N1          0.8680   -1.3620    1.5980 n3        1 5EZ     -0.338000
      2 C2          3.3810   -0.3370   -2.7870 c2        1 5EZ     -0.202000
      3 C3          0.8580   -0.8140    2.8840 c2        1 5EZ     -0.075000
      4 C4          4.0190    0.1890   -1.7450 c2        1 5EZ     -0.176000
      5 C5          0.8890   -1.5020    4.0360 c2        1 5EZ     -0.308000
      6 C6          4.0300   -0.4600   -0.4070 c3        1 5EZ     -0.018000
      7 O7          4.8860    0.3650    0.4290 os        1 5EZ     -0.141000
      8 C8          7.4640   -0.9590    1.7850 c1        1 5EZ     -0.127000
      9 C9          6.7160    0.2690    2.0170 c3        1 5EZ      0.030000
     10 C11         5.3510   -0.1470    1.5680 c2        1 5EZ      0.064000
     11 C13         4.7700   -1.3610    2.2040 c3        1 5EZ     -0.165000
     12 C14         7.0810   -2.2320    1.7920 c2        1 5EZ     -0.230000
     13 C15         5.6540   -2.5480    1.9550 c2        1 5EZ     -0.022000
     14 C16         5.2140   -3.8240    1.9180 c2        1 5EZ     -0.229000
     15 C17         6.2050   -4.8790    1.7140 c2        1 5EZ      0.014000
     16 N18         7.4790   -4.7020    1.5910 n2        1 5EZ     -0.200000
     17 C19         8.0230   -3.3750    1.6510 c2        1 5EZ      0.312000
     18 O21         9.2490   -3.2280    1.5760 o         1 5EZ     -0.250000
     19 H1          3.3780    0.1520   -3.7710 ha        1 5EZ      0.120000
     20 H21C        0.6200   -2.3290    1.5680 hn        1 5EZ      0.173000
     21 H22C        2.8250   -1.2820   -2.7360 ha        1 5EZ      0.120000
     22 H31C        0.3350   -0.8290    0.9440 hn        1 5EZ      0.173000
     23 H32C        0.9020    0.2940    2.8880 h4        1 5EZ      0.135000
     24 H4          0.8380   -2.5950    4.0940 ha        1 5EZ      0.121000
     25 H51C        4.5800    1.1360   -1.8120 ha        1 5EZ      0.154000
     26 H52C        0.9750   -0.9850    4.9980 ha        1 5EZ      0.121000
     27 H61C        3.0070   -0.4670    0.0580 h1        1 5EZ      0.113500
     28 H62C        4.4450   -1.5020   -0.4520 h1        1 5EZ      0.113500
     29 H8          6.7240    0.4970    3.1220 h1        1 5EZ      0.169000
     30 H131        3.7220   -1.5530    1.8470 hc        1 5EZ      0.140000
     31 H16         4.7210   -1.1920    3.3180 hc        1 5EZ      0.140000
     32 H17         4.1630   -4.1080    2.0420 ha        1 5EZ      0.144000
     33 H18         5.8320   -5.9210    1.6640 h4        1 5EZ      0.156000
     34 CL2         7.3770    1.6840    1.2340 cl        1 5EZ     -0.032000
@<TRIPOS>BOND
     1    1    3 1   
     2    1   20 1   
     3    1   22 1   
     4    2    4 1   
     5    2   19 1   
     6    2   21 1   
     7    3    5 1   
     8    3   23 1   
     9    4    6 1   
    10    4   25 1   
    11    5   24 1   
    12    5   26 1   
    13    6    7 1   
    14    6   27 1   
    15    6   28 1   
    16    7   10 1   
    17    8    9 1   
    18    8   12 1   
    19    9   10 1   
    20    9   29 1   
    21    9   34 1   
    22   10   11 1   
    23   11   13 1   
    24   11   30 1   
    25   11   31 1   
    26   12   13 1   
    27   12   17 1   
    28   13   14 1   
    29   14   15 1   
    30   14   32 1   
    31   15   16 1   
    32   15   33 1   
    33   16   17 1   
    34   17   18 1   
@<TRIPOS>SUBSTRUCTURE
     1 5EZ         1 TEMP              0 ****  ****    0 ROOT
