@<TRIPOS>MOLECULE
5EZ
   34    35     1     0     0
SMALL
bcc


@<TRIPOS>ATOM
      1 N1          0.3440   -1.5670   -0.6070 n8        1 5EZ     -0.338000
      2 C2          2.4950    0.6790    0.3520 c2        1 5EZ     -0.176000
      3 C3          0.0260   -0.9150    0.6330 c3        1 5EZ     -0.079000
      4 C4          2.3890   -0.2640    1.2910 c2        1 5EZ     -0.145000
      5 C5          1.1110   -0.8980    1.7140 c3        1 5EZ     -0.172000
      6 C6          3.5680   -0.7850    2.0500 c3        1 5EZ     -0.007000
      7 O7          4.6660    0.1460    1.8720 os        1 5EZ     -0.142000
      8 C8          7.3070   -0.9460    0.4510 c1        1 5EZ     -0.123000
      9 C9          7.0020    0.2460    1.2270 c3        1 5EZ      0.035000
     10 C11         5.9090   -0.2810    2.1030 c2        1 5EZ      0.049000
     11 C13         6.2050   -1.4990    2.9070 c3        1 5EZ     -0.155000
     12 C14         7.2020   -2.2390    0.7340 c2        1 5EZ     -0.224000
     13 C15         6.5780   -2.6400    2.0050 c2        1 5EZ     -0.028000
     14 C16         6.4090   -3.9410    2.3180 c2        1 5EZ     -0.224000
     15 C17         6.8680   -4.9380    1.3520 c2        1 5EZ      0.014000
     16 N18         7.4510   -4.6850    0.2270 n2        1 5EZ     -0.196000
     17 C19         7.6920   -3.3240   -0.1600 c2        1 5EZ      0.311000
     18 O21         8.2880   -3.0990   -1.2200 o         1 5EZ     -0.245000
     19 H1          1.6280    1.0650   -0.2010 ha        1 5EZ      0.133500
     20 H21C        1.1270   -1.1300   -1.0540 hn        1 5EZ      0.145500
     21 H22C        3.4610    1.1330    0.0830 ha        1 5EZ      0.133500
     22 H31C        0.5510   -2.5360   -0.4660 hn        1 5EZ      0.145500
     23 H32C       -0.8800   -1.4260    1.0690 h1        1 5EZ      0.095000
     24 H4         -0.2680    0.1480    0.3980 h1        1 5EZ      0.095000
     25 H51C        0.7110   -0.3390    2.6030 hc        1 5EZ      0.090500
     26 H52C        1.3090   -1.9530    2.0490 hc        1 5EZ      0.090500
     27 H61C        3.3440   -0.8310    3.1490 h1        1 5EZ      0.103000
     28 H62C        3.8670   -1.7980    1.6700 h1        1 5EZ      0.103000
     29 H8          7.9080    0.5300    1.8350 h1        1 5EZ      0.171000
     30 H131        5.3390   -1.7740    3.5650 hc        1 5EZ      0.131000
     31 H16         7.0860   -1.2810    3.5760 hc        1 5EZ      0.131000
     32 H17         5.9580   -4.2890    3.2550 ha        1 5EZ      0.145000
     33 H18         6.7060   -6.0050    1.6080 h4        1 5EZ      0.159000
     34 Cl2         6.6010    1.6560    0.2770 cl        1 5EZ     -0.029000
@<TRIPOS>BOND
     1    1    3 1   
     2    1   20 1   
     3    1   22 1   
     4    2    4 1   
     5    2   19 1   
     6    2   21 1   
     7    3    5 1   
     8    3   23 1   
     9    3   24 1   
    10    4    5 1   
    11    4    6 1   
    12    5   25 1   
    13    5   26 1   
    14    6    7 1   
    15    6   27 1   
    16    6   28 1   
    17    7   10 1   
    18    8    9 1   
    19    8   12 1   
    20    9   10 1   
    21    9   29 1   
    22    9   34 1   
    23   10   11 1   
    24   11   13 1   
    25   11   30 1   
    26   11   31 1   
    27   12   13 1   
    28   12   17 1   
    29   13   14 1   
    30   14   15 1   
    31   14   32 1   
    32   15   16 1   
    33   15   33 1   
    34   16   17 1   
    35   17   18 1   
@<TRIPOS>SUBSTRUCTURE
     1 5EZ         1 TEMP              0 ****  ****    0 ROOT
