@<TRIPOS>MOLECULE
5F1
   30    32     1     0     0
SMALL
bcc


@<TRIPOS>ATOM
      1 C2'        -0.2000   -0.5540    0.2690 c3        1 5F1     -0.150400
      2 C3'         1.2940   -0.3890   -0.0310 c3        1 5F1      0.119100
      3 O3'         1.9370   -1.6280   -0.2710 oh        1 5F1     -0.588800
      4 C4'         1.9100    0.1950    1.2570 c3        1 5F1      0.098100
      5 C5'         2.4910    1.5940    1.0030 c3        1 5F1      0.140900
      6 F19         3.0030    2.1520    2.1560 f         1 5F1     -0.233300
      7 O4'         0.8750    0.2610    2.2450 os        1 5F1     -0.399600
      8 C1'        -0.4180    0.1310    1.6370 c3        1 5F1      0.266800
      9 N9         -1.0560    1.4300    1.5630 na        1 5F1     -0.299000
     10 C8         -0.5930    2.6530    2.1110 cc        1 5F1      0.417700
     11 N7         -1.4610    3.6640    1.9710 nd        1 5F1     -0.547100
     12 C5         -2.5690    3.1090    1.3130 ca        1 5F1     -0.230200
     13 C4         -2.3370    1.6920    1.0540 ca        1 5F1      0.454800
     14 N3         -3.2430    0.8750    0.4350 nb        1 5F1     -0.746000
     15 C2         -4.3800    1.5260    0.0940 ca        1 5F1      0.685900
     16 N1         -4.7330    2.8260    0.2690 nb        1 5F1     -0.795000
     17 C6         -3.8230    3.6570    0.8810 ca        1 5F1      0.760200
     18 N6         -4.0880    4.9910    1.0520 nv        1 5F1     -0.956500
     19 H2'1       -0.4620   -1.6370    0.3670 hc        1 5F1      0.087200
     20 H2'2       -0.8320   -0.1140   -0.5390 hc        1 5F1      0.087200
     21 H3'         1.4580    0.2940   -0.9090 h1        1 5F1      0.053700
     22 HA          1.5110   -2.0210   -1.0420 ho        1 5F1      0.411000
     23 H4'         2.6910   -0.4870    1.6930 h1        1 5F1      0.113700
     24 H5'1        1.6870    2.2740    0.6050 h1        1 5F1      0.054200
     25 H5'2        3.3160    1.5060    0.2430 h1        1 5F1      0.054200
     26 H1'        -1.0180   -0.5180    2.3430 h2        1 5F1      0.102700
     27 H8          0.3940    2.7070    2.5960 h5        1 5F1      0.092800
     28 H2         -5.1510    0.9010   -0.4060 h5        1 5F1      0.051100
     29 H6N1       -4.9820    5.3550    0.8350 hn        1 5F1      0.447800
     30 H6N2       -3.4580    5.5330    1.5890 hn        1 5F1      0.447800
@<TRIPOS>BOND
     1    1    2 1   
     2    1    8 1   
     3    1   19 1   
     4    1   20 1   
     5    2    3 1   
     6    2    4 1   
     7    2   21 1   
     8    3   22 1   
     9    4    5 1   
    10    4    7 1   
    11    4   23 1   
    12    5    6 1   
    13    5   24 1   
    14    5   25 1   
    15    7    8 1   
    16    8    9 1   
    17    8   26 1   
    18    9   10 1   
    19    9   13 1   
    20   10   11 2   
    21   10   27 1   
    22   11   12 1   
    23   12   13 ar  
    24   12   17 ar  
    25   13   14 ar  
    26   14   15 ar  
    27   15   16 ar  
    28   15   28 1   
    29   16   17 ar  
    30   17   18 1   
    31   18   29 1   
    32   18   30 1   
@<TRIPOS>SUBSTRUCTURE
     1 5F1         1 TEMP              0 ****  ****    0 ROOT
