@<TRIPOS>MOLECULE
5F1
   30    28     1     0     0
SMALL
bcc


@<TRIPOS>ATOM
      1 C2'         0.7280   -1.0950   -1.1670 c3        1 5F1     -0.150400
      2 C3'         2.0870   -1.7430   -1.0420 c3        1 5F1      0.119100
      3 O3'         2.0110   -3.1070   -1.3660 oh        1 5F1     -0.588800
      4 C4'         2.4970   -1.5690    0.4350 c3        1 5F1      0.098100
      5 C5'         3.9990   -0.9820    0.5350 c3        1 5F1      0.140900
      6 F19         4.2360   -0.5300    1.8320 f         1 5F1     -0.233300
      7 O4'         1.6620   -0.7350    0.9220 os        1 5F1     -0.399600
      8 C1'         0.3400   -0.8830    0.0720 c3        1 5F1      0.266800
      9 N9         -0.4350    0.3220    0.1580 n3        1 5F1     -0.142400
     10 C8          0.1420    1.5310   -0.0010 c1        1 5F1      0.182400
     11 N7         -0.8500    2.4900    0.0640 ne        1 5F1     -0.392400
     12 C5         -2.0400    1.8530    0.2640 cg        1 5F1     -0.187000
     13 C4         -1.7890    0.5110    0.3230 c1        1 5F1      0.334500
     14 N3         -2.7820   -0.3380    0.5260 n1        1 5F1     -0.545800
     15 C2         -4.0420    0.1180    0.6750 c1        1 5F1      0.406300
     16 N1         -4.3050    1.4780    0.6160 n1        1 5F1     -0.594800
     17 C6         -3.3360    2.3180    0.4180 c1        1 5F1      0.294800
     18 N6         -3.8440    3.6530    0.4710 n3        1 5F1     -0.819400
     19 H2'1        0.0890   -1.7180   -1.6330 hc        1 5F1      0.087200
     20 H2'2        0.7990   -0.2030   -1.6820 hc        1 5F1      0.087200
     21 H3'         2.7010   -1.3120   -1.5970 h1        1 5F1      0.053700
     22 HA          2.6290   -3.3050   -2.0080 ho        1 5F1      0.411000
     23 H4'         2.4290   -2.4970    0.9480 h1        1 5F1      0.113700
     24 H5'1        4.6830   -1.7330    0.2980 h1        1 5F1      0.054200
     25 H5'2        4.0950   -0.2690   -0.0630 h1        1 5F1      0.054200
     26 H1'        -0.1890   -1.6540    0.3970 h2        1 5F1      0.102700
     27 H8          1.1930    1.7160   -0.0940 DU        1 5F1      0.222000
     28 H2         -4.7220   -0.4710    0.8140 ha        1 5F1      0.130500
     29 H6N1       -3.2690    4.3570    0.4740 hn        1 5F1      0.447800
     30 H6N2       -4.7160    3.7970    0.4090 hn        1 5F1      0.447800
@<TRIPOS>BOND
     1    1    2 1   
     2    1    8 1   
     3    1   19 1   
     4    1   20 1   
     5    2    3 1   
     6    2    4 1   
     7    2   21 1   
     8    3   22 1   
     9    4    5 1   
    10    4    7 1   
    11    4   23 1   
    12    5    6 1   
    13    5   24 1   
    14    5   25 1   
    15    7    8 1   
    16    8    9 1   
    17    8   26 1   
    18    9   10 2   
    19    9   13 1   
    20   10   11 2   
    21   11   12 1   
    22   12   17 3   
    23   13   14 3   
    24   15   16 3   
    25   15   28 1   
    26   17   18 1   
    27   18   29 1   
    28   18   30 1   
@<TRIPOS>SUBSTRUCTURE
     1 5F1         1 TEMP              0 ****  ****    0 ROOT
