@<TRIPOS>MOLECULE
5F1
   30    32     1     0     0
SMALL
bcc


@<TRIPOS>ATOM
      1 C2'        -1.4110   -1.8300    0.0580 c3        1 5F1     -0.150400
      2 C3'        -2.6840   -1.3220    0.7420 c3        1 5F1      0.119100
      3 O3'        -3.7670   -2.2250    0.6080 oh        1 5F1     -0.588800
      4 C4'        -3.0760   -0.0380   -0.0190 c3        1 5F1      0.098100
      5 C5'        -3.0130    1.1890    0.9040 c3        1 5F1      0.140900
      6 F19        -3.3140    2.3530    0.2280 f         1 5F1     -0.233300
      7 O4'        -2.1620    0.1180   -1.1120 os        1 5F1     -0.399600
      8 C1'        -1.0060   -0.7120   -0.9300 c3        1 5F1      0.266800
      9 N9          0.1140    0.0980   -0.4940 na        1 5F1     -0.299000
     10 C8          0.1660    1.5100   -0.3790 cc        1 5F1      0.417700
     11 N7          1.3800    1.9750   -0.0540 nd        1 5F1     -0.547100
     12 C5          2.1950    0.8370    0.0440 ca        1 5F1     -0.230200
     13 C4          1.4150   -0.3620   -0.2400 ca        1 5F1      0.454800
     14 N3          1.9360   -1.6260   -0.2340 nb        1 5F1     -0.746000
     15 C2          3.2570   -1.6410    0.0610 ca        1 5F1      0.685900
     16 N1          4.1050   -0.6170    0.3450 nb        1 5F1     -0.795000
     17 C6          3.5860    0.6570    0.3520 ca        1 5F1      0.760200
     18 N6          4.3670    1.7360    0.6720 nh        1 5F1     -0.956500
     19 H2'1       -1.6240   -2.7610   -0.5260 hc        1 5F1      0.087200
     20 H2'2       -0.6100   -2.0590    0.8000 hc        1 5F1      0.087200
     21 H3'        -2.5030   -1.1130    1.8310 h1        1 5F1      0.053700
     22 HA         -3.4980   -3.0490    1.0330 ho        1 5F1      0.411000
     23 H4'        -4.0910   -0.1270   -0.4940 h1        1 5F1      0.113700
     24 H5'1       -3.7570    1.0480    1.7360 h1        1 5F1      0.054200
     25 H5'2       -1.9800    1.2850    1.3400 h1        1 5F1      0.054200
     26 H1'        -0.7670   -1.1220   -1.9570 h2        1 5F1      0.102700
     27 H8         -0.7360    2.1160   -0.5540 h5        1 5F1      0.092800
     28 H2          3.7290   -2.6470    0.0720 h5        1 5F1      0.051100
     29 H6N1        5.3430    1.6280    0.8000 hn        1 5F1      0.447800
     30 H6N2        3.9870    2.6440    0.5630 hn        1 5F1      0.447800
@<TRIPOS>BOND
     1    1    2 1   
     2    1    8 1   
     3    1   19 1   
     4    1   20 1   
     5    2    3 1   
     6    2    4 1   
     7    2   21 1   
     8    3   22 1   
     9    4    5 1   
    10    4    7 1   
    11    4   23 1   
    12    5    6 1   
    13    5   24 1   
    14    5   25 1   
    15    7    8 1   
    16    8    9 1   
    17    8   26 1   
    18    9   10 1   
    19    9   13 1   
    20   10   11 2   
    21   10   27 1   
    22   11   12 1   
    23   12   13 ar  
    24   12   17 ar  
    25   13   14 ar  
    26   14   15 ar  
    27   15   16 ar  
    28   15   28 1   
    29   16   17 ar  
    30   17   18 1   
    31   18   29 1   
    32   18   30 1   
@<TRIPOS>SUBSTRUCTURE
     1 5F1         1 TEMP              0 ****  ****    0 ROOT
