@<TRIPOS>MOLECULE
5F1
   31    33     1     0     0
SMALL
bcc


@<TRIPOS>ATOM
      1 C2'        -0.0740   -0.4390    0.0980 c3        1 5F1     -0.152400
      2 C3'         1.4570   -0.3830   -0.0040 c3        1 5F1      0.125100
      3 O3'         2.0220   -1.6770   -0.0890 oh        1 5F1     -0.576800
      4 C4'         1.9370    0.2180    1.3320 c3        1 5F1      0.092100
      5 C5'         2.5510    1.6130    1.1360 c3        1 5F1      0.140900
      6 F19         2.5310    2.3470    2.3050 f         1 5F1     -0.232300
      7 O4'         0.8000    0.2990    2.2070 os        1 5F1     -0.390600
      8 C1'        -0.4170    0.1360    1.4870 c3        1 5F1      0.256800
      9 N9         -1.1150    1.4260    1.4580 na        1 5F1     -0.276000
     10 C8         -0.7290    2.6150    2.1130 cc        1 5F1      0.520700
     11 N7         -1.6400    3.6080    2.0330 nd        1 5F1     -0.594100
     12 C5         -2.6980    3.0630    1.3040 ca        1 5F1     -0.131200
     13 C4         -2.3890    1.6610    0.9250 ca        1 5F1      0.450800
     14 N3         -3.2430    0.8850    0.2150 nb        1 5F1     -0.624000
     15 C2         -4.4070    1.5030   -0.1180 ca        1 5F1      0.668900
     16 N1         -4.8110    2.7740    0.1680 nb        1 5F1     -0.678000
     17 C6         -3.9490    3.5420    0.8790 ca        1 5F1      0.512200
     18 N6         -4.3260    4.9230    1.2310 n4        1 5F1     -0.814300
     19 H2'1       -0.4270   -1.5020    0.0540 hc        1 5F1      0.091200
     20 H2'2       -0.5570    0.1220   -0.7370 hc        1 5F1      0.091200
     21 H3'         1.7830    0.2410   -0.8790 h1        1 5F1      0.062700
     22 HA          1.8450   -2.0100   -0.9790 ho        1 5F1      0.421000
     23 H4'         2.6570   -0.4660    1.8630 h1        1 5F1      0.131700
     24 H5'1        1.9810    2.1850    0.3520 h1        1 5F1      0.059200
     25 H5'2        3.6170    1.4900    0.7960 h1        1 5F1      0.059200
     26 H1'        -1.0550   -0.5700    2.1020 h2        1 5F1      0.118700
     27 H8          0.2510    2.6820    2.6300 h5        1 5F1      0.133800
     28 H2         -5.1350    0.8920   -0.7020 h5        1 5F1      0.099100
     29 H6N1       -4.3650    4.9980    2.2560 hn        1 5F1      0.478133
     30 H6N2       -3.6010    5.5600    0.8760 hn        1 5F1      0.478133
     31 H63        -5.2380    5.1760    0.8300 hn        1 5F1      0.478133
@<TRIPOS>BOND
     1    1    2 1   
     2    1    8 1   
     3    1   19 1   
     4    1   20 1   
     5    2    3 1   
     6    2    4 1   
     7    2   21 1   
     8    3   22 1   
     9    4    5 1   
    10    4    7 1   
    11    4   23 1   
    12    5    6 1   
    13    5   24 1   
    14    5   25 1   
    15    7    8 1   
    16    8    9 1   
    17    8   26 1   
    18    9   10 1   
    19    9   13 1   
    20   10   11 2   
    21   10   27 1   
    22   11   12 1   
    23   12   13 ar  
    24   12   17 ar  
    25   13   14 ar  
    26   14   15 ar  
    27   15   16 ar  
    28   15   28 1   
    29   16   17 ar  
    30   17   18 1   
    31   18   29 1   
    32   18   30 1   
    33   18   31 1   
@<TRIPOS>SUBSTRUCTURE
     1 5F1         1 TEMP              0 ****  ****    0 ROOT
