@<TRIPOS>MOLECULE
5F1
   30    32     1     0     0
SMALL
bcc


@<TRIPOS>ATOM
      1 C2'        -0.1770   -0.5440    0.2580 c3        1 5F1     -0.150400
      2 C3'         1.3210   -0.3650   -0.0150 c3        1 5F1      0.119100
      3 O3'         1.9770   -1.5970   -0.2570 oh        1 5F1     -0.587800
      4 C4'         1.9100    0.2090    1.2890 c3        1 5F1      0.098100
      5 C5'         2.4860    1.6150    1.0610 c3        1 5F1      0.140900
      6 F19         2.9750    2.1630    2.2280 f         1 5F1     -0.233300
      7 O4'         0.8580    0.2570    2.2600 os        1 5F1     -0.399600
      8 C1'        -0.4230    0.1250    1.6290 c3        1 5F1      0.266800
      9 N9         -1.0700    1.4200    1.5580 na        1 5F1     -0.299000
     10 C8         -0.6240    2.6410    2.1260 cc        1 5F1      0.417700
     11 N7         -1.4970    3.6470    1.9810 nd        1 5F1     -0.547100
     12 C5         -2.5890    3.0910    1.2980 ca        1 5F1     -0.230200
     13 C4         -2.3420    1.6790    1.0280 ca        1 5F1      0.454800
     14 N3         -3.2320    0.8620    0.3860 nb        1 5F1     -0.746000
     15 C2         -4.3670    1.5080    0.0310 ca        1 5F1      0.685900
     16 N1         -4.7330    2.8040    0.2130 nb        1 5F1     -0.795000
     17 C6         -3.8390    3.6350    0.8490 ca        1 5F1      0.760200
     18 N6         -4.1170    4.9650    1.0300 nh        1 5F1     -0.956500
     19 H2'1       -0.4320   -1.6310    0.3400 hc        1 5F1      0.087200
     20 H2'2       -0.7980   -0.1000   -0.5570 hc        1 5F1      0.087200
     21 H3'         1.4940    0.3280   -0.8830 h1        1 5F1      0.053700
     22 HA          1.5670   -1.9840   -1.0400 ho        1 5F1      0.411000
     23 H4'         2.6890   -0.4720    1.7320 h1        1 5F1      0.113700
     24 H5'1        1.6840    2.2930    0.6560 h1        1 5F1      0.054200
     25 H5'2        3.3240    1.5410    0.3130 h1        1 5F1      0.054200
     26 H1'        -1.0300   -0.5360    2.3180 h2        1 5F1      0.102700
     27 H8          0.3530    2.6960    2.6280 h5        1 5F1      0.092800
     28 H2         -5.1260    0.8830   -0.4890 h5        1 5F1      0.051100
     29 H6N1       -3.5000    5.5060    1.5830 hn        1 5F1      0.447800
     30 H6N2       -5.0100    5.3260    0.8010 hn        1 5F1      0.447800
@<TRIPOS>BOND
     1    1    2 1   
     2    1    8 1   
     3    1   19 1   
     4    1   20 1   
     5    2    3 1   
     6    2    4 1   
     7    2   21 1   
     8    3   22 1   
     9    4    5 1   
    10    4    7 1   
    11    4   23 1   
    12    5    6 1   
    13    5   24 1   
    14    5   25 1   
    15    7    8 1   
    16    8    9 1   
    17    8   26 1   
    18    9   10 1   
    19    9   13 1   
    20   10   11 2   
    21   10   27 1   
    22   11   12 1   
    23   12   13 ar  
    24   12   17 ar  
    25   13   14 ar  
    26   14   15 ar  
    27   15   16 ar  
    28   15   28 1   
    29   16   17 ar  
    30   17   18 1   
    31   18   29 1   
    32   18   30 1   
@<TRIPOS>SUBSTRUCTURE
     1 5F1         1 TEMP              0 ****  ****    0 ROOT
