@<TRIPOS>MOLECULE
5FB
   42    43     1     0     0
SMALL
bcc


@<TRIPOS>ATOM
      1 C15         0.0000    0.0000    0.0000 ca        1 5FB     -0.081000
      2 C20        -2.5840    3.5720    1.6620 ca        1 5FB      0.010000
      3 C21        -3.9750    3.6120    1.7830 ca        1 5FB     -0.046000
      4 C22        -4.6420    4.8640    1.9800 c1        1 5FB     -0.098000
      5 C24        -4.7140    2.4280    1.7120 ca        1 5FB      0.021000
      6 C26        -4.8640   -0.0510    1.4450 c2        1 5FB      0.456000
      7 C01         0.1150   -0.0120    4.7800 c3        1 5FB      0.020000
      8 O02        -0.6680   -0.0070    3.5840 os        1 5FB     -0.159000
      9 C03         0.0070   -0.0060    2.4040 ca        1 5FB      0.074000
     10 C04         1.3920   -0.0110    2.3960 ca        1 5FB     -0.207000
     11 C05         2.0760    0.0000    1.1960 ca        1 5FB     -0.009000
     12 C06         3.5840   -0.0060    1.1890 c3        1 5FB     -0.047000
     13 C07         4.0880   -1.4500    1.1710 c3        1 5FB     -0.215000
     14 S08         3.6500   -2.2670   -0.4020 ss        1 5FB      0.043000
     15 C09         5.3350   -2.5540   -0.8740 c2        1 5FB      0.142000
     16 O10         5.7110   -3.0990   -1.8930 o         1 5FB     -0.270000
     17 N11         6.1160   -2.0650    0.0920 ns        1 5FB      0.048000
     18 C12         5.6010   -1.4880    1.1640 c2        1 5FB      0.224000
     19 O13         6.2780   -1.0330    2.0610 o         1 5FB     -0.307000
     20 C14         1.3820    0.0000    0.0000 ca        1 5FB     -0.115000
     21 C16        -0.6930   -0.0000    1.2010 ca        1 5FB     -0.003000
     22 O17        -2.0530    0.0060    1.2030 os        1 5FB     -0.097000
     23 C18        -2.6840    1.1910    1.3960 ca        1 5FB      0.180000
     24 C19        -1.9460    2.3660    1.4650 ca        1 5FB     -0.191000
     25 N23        -5.1880    5.8490    2.1310 n1        1 5FB     -0.049000
     26 C25        -4.0690    1.2260    1.5220 ca        1 5FB     -0.284000
     27 F27        -4.5480   -0.8360    2.8100 f         1 5FB     -0.236000
     28 F28        -5.8910    0.2310    0.9750 f         1 5FB     -0.072500
     29 F29        -4.4140   -0.8290    0.5780 f         1 5FB     -0.072500
     30 H15        -0.6160   -0.3670   -0.8120 ha        1 5FB      0.129000
     31 H20        -2.2740    4.5930    1.8460 ha        1 5FB      0.120000
     32 H24        -5.7410    2.4680    2.0560 ha        1 5FB      0.122000
     33 H01         0.6810    0.9050    4.8940 h1        1 5FB      0.048000
     34 H01A        0.5550   -0.9830    4.9760 h1        1 5FB      0.048000
     35 H01B       -0.4190    0.2760    5.6780 h1        1 5FB      0.048000
     36 H04         1.6340    0.2860    3.4100 ha        1 5FB      0.143000
     37 H06         4.3360    0.1930    0.4350 hc        1 5FB      0.085000
     38 H06A        3.7100    0.6730    2.0240 hc        1 5FB      0.085000
     39 H07         3.6970   -2.0100    2.0120 h1        1 5FB      0.131000
     40 HN11        6.8800   -2.7060    0.1770 hn        1 5FB      0.112000
     41 H14         1.8300   -0.1510   -0.9750 ha        1 5FB      0.134000
     42 H19        -0.8830    2.1690    1.3990 ha        1 5FB      0.137000
@<TRIPOS>BOND
     1    1   20 1   
     2    1   21 1   
     3    1   30 1   
     4    2    3 1   
     5    2   24 1   
     6    2   31 1   
     7    3    4 1   
     8    3    5 1   
     9    4   25 1   
    10    5   26 1   
    11    5   32 1   
    12    6   26 1   
    13    6   28 1   
    14    6   29 1   
    15    7    8 1   
    16    7   33 1   
    17    7   34 1   
    18    7   35 1   
    19    8    9 1   
    20    9   10 1   
    21    9   21 1   
    22   10   11 1   
    23   10   36 1   
    24   11   12 1   
    25   11   20 1   
    26   12   13 1   
    27   12   37 1   
    28   12   38 1   
    29   13   14 1   
    30   13   18 1   
    31   13   39 1   
    32   14   15 1   
    33   15   16 1   
    34   15   17 1   
    35   17   18 1   
    36   17   40 1   
    37   18   19 1   
    38   20   41 1   
    39   21   22 1   
    40   22   23 1   
    41   23   24 1   
    42   23   26 1   
    43   24   42 1   
@<TRIPOS>SUBSTRUCTURE
     1 5FB         1 TEMP              0 ****  ****    0 ROOT
