@<TRIPOS>MOLECULE
5FB
   42    40     1     0     0
SMALL
bcc


@<TRIPOS>ATOM
      1 C15        -0.1670   -0.2010   -0.9160 c1        1 5FB     -0.085000
      2 C20        -2.6160    3.2640   -0.8960 c1        1 5FB     -0.031000
      3 C21        -3.8590    3.2250   -1.4620 c1        1 5FB     -0.054000
      4 C22        -4.4690    4.4910   -2.0270 c1        1 5FB     -0.097000
      5 C24        -4.5790    2.0330   -1.4810 c1        1 5FB     -0.016000
      6 C26        -5.0360   -0.2730   -1.0180 c3        1 5FB      0.484000
      7 C01        -0.7590   -1.5800    3.4570 c3        1 5FB     -0.080000
      8 O02        -0.8370   -0.3130    2.7540 os        1 5FB     -0.192000
      9 C03        -0.1390   -0.2970    1.5100 c2        1 5FB      0.090000
     10 C04         1.2440   -0.3360    1.4940 c1        1 5FB     -0.192000
     11 C05         1.9320   -0.3080    0.2750 c1        1 5FB     -0.044000
     12 C06         3.4830   -0.3160    0.2600 c3        1 5FB     -0.113000
     13 C07         3.9760   -1.7310    0.4090 c3        1 5FB     -0.251000
     14 S08         4.0520   -2.4400   -1.0960 ss        1 5FB      0.182000
     15 C09         5.6380   -2.5300   -1.5020 c2        1 5FB      0.192000
     16 O10         6.0900   -2.9940   -2.5400 o         1 5FB     -0.268000
     17 N11         6.3830   -1.7480   -0.5060 n         1 5FB     -0.393000
     18 C12         5.4500   -1.7220    0.8590 c2        1 5FB      0.308000
     19 O13         5.8370   -1.5460    1.9660 o         1 5FB     -0.294000
     20 C14         1.2180   -0.2400   -0.9330 c1        1 5FB     -0.156000
     21 C16        -0.8550   -0.2290    0.3080 c2        1 5FB     -0.004000
     22 O17        -2.2740   -0.2580    0.3240 os        1 5FB     -0.127000
     23 C18        -2.8040    0.9250   -0.3660 c2        1 5FB      0.158000
     24 C19        -2.0760    2.1360   -0.3480 c1        1 5FB     -0.202000
     25 N23        -4.9310    5.4540   -2.4580 n1        1 5FB     -0.028000
     26 C25        -4.0350    0.8850   -0.9260 c2        1 5FB     -0.200000
     27 F27        -6.0800   -0.0120   -0.2580 f         1 5FB     -0.160667
     28 F28        -5.4510   -0.4210   -2.3410 f         1 5FB     -0.160667
     29 F29        -4.4170   -1.4750   -0.5780 f         1 5FB     -0.160667
     30 H15        -0.6150   -0.1570   -1.6700 ha        1 5FB      0.160000
     31 H20        -2.1360    4.0610   -0.8850 ha        1 5FB      0.153000
     32 H24        -5.4510    2.0040   -1.8780 ha        1 5FB      0.168000
     33 H01         0.0980   -1.8800    3.4420 h1        1 5FB      0.091000
     34 H01A       -1.3460   -2.2410    3.0150 h1        1 5FB      0.091000
     35 H01B       -1.0490   -1.4540    4.4040 h1        1 5FB      0.091000
     36 H04         1.7860   -0.3290    2.4130 ha        1 5FB      0.150000
     37 H06         3.8320    0.0840   -0.6620 hc        1 5FB      0.119500
     38 H06A        3.8340    0.2560    1.0350 hc        1 5FB      0.119500
     39 H07         3.2870   -2.1100    1.0690 h1        1 5FB      0.169000
     40 HN11        7.3710   -1.6230   -0.5130 hn        1 5FB      0.271000
     41 H14         1.6920   -0.2210   -1.7730 ha        1 5FB      0.154000
     42 H19        -1.2200    2.1680    0.0390 ha        1 5FB      0.160000
@<TRIPOS>BOND
     1    1   21 1   
     2    1   30 1   
     3    2    3 1   
     4    2   31 1   
     5    3    4 1   
     6    4   25 1   
     7    5   26 1   
     8    5   32 1   
     9    6   26 1   
    10    6   27 1   
    11    6   28 1   
    12    6   29 1   
    13    7    8 1   
    14    7   33 1   
    15    7   34 1   
    16    7   35 1   
    17    8    9 1   
    18    9   10 1   
    19    9   21 1   
    20   10   36 1   
    21   11   12 1   
    22   11   20 1   
    23   12   13 1   
    24   12   37 1   
    25   12   38 1   
    26   13   14 1   
    27   13   18 1   
    28   13   39 1   
    29   14   15 1   
    30   15   16 1   
    31   15   17 1   
    32   17   18 1   
    33   17   40 1   
    34   18   19 1   
    35   20   41 1   
    36   21   22 1   
    37   22   23 1   
    38   23   24 1   
    39   23   26 1   
    40   24   42 1   
@<TRIPOS>SUBSTRUCTURE
     1 5FB         1 TEMP              0 ****  ****    0 ROOT
