@<TRIPOS>MOLECULE
5FB
   42    44     1     0     0
SMALL
bcc


@<TRIPOS>ATOM
      1 C15        -0.0810    0.2390   -0.0950 ca        1 5FB     -0.088000
      2 C20        -2.7870    3.7820    1.8250 ca        1 5FB     -0.031000
      3 C21        -4.1860    3.7140    1.9190 ca        1 5FB     -0.058000
      4 C22        -4.9410    4.8970    2.1340 cg        1 5FB      0.232800
      5 C24        -4.8380    2.4800    1.8020 ca        1 5FB     -0.016000
      6 C26        -4.8140   -0.0260    1.4620 c3        1 5FB      0.705200
      7 C01         0.2730   -0.0930    4.6990 c3        1 5FB      0.109700
      8 O02        -0.5160    0.1410    3.5350 os        1 5FB     -0.307900
      9 C03         0.1480    0.1100    2.3310 ca        1 5FB      0.135100
     10 C04         1.5340   -0.0180    2.1870 ca        1 5FB     -0.200000
     11 C05         2.1070   -0.0180    0.9100 ca        1 5FB     -0.050300
     12 C06         3.5870   -0.1360    0.7730 c3        1 5FB     -0.027100
     13 C07         4.0660   -1.5520    1.0240 c3        1 5FB     -0.083600
     14 S08         3.9250   -2.6030   -0.4280 ss        1 5FB     -0.168700
     15 C09         5.6310   -3.0280   -0.4530 c         1 5FB      0.715100
     16 O10         6.2040   -3.7720   -1.2540 o         1 5FB     -0.543500
     17 N11         6.3090   -2.3920    0.6010 n         1 5FB     -0.613500
     18 C12         5.5350   -1.5730    1.4270 c         1 5FB      0.699500
     19 O13         6.0070   -0.9480    2.3830 o         1 5FB     -0.572500
     20 C14         1.3010    0.1140   -0.2240 ca        1 5FB     -0.147000
     21 C16        -0.6590    0.2350    1.1770 ca        1 5FB      0.043100
     22 O17        -2.0500    0.1900    1.2840 os        1 5FB     -0.217200
     23 C18        -2.6980    1.3920    1.4980 ca        1 5FB      0.203100
     24 C19        -2.0440    2.6280    1.6150 ca        1 5FB     -0.202000
     25 N23        -5.5570    5.8680    2.3110 n1        1 5FB     -0.353800
     26 C25        -4.1030    1.3150    1.5910 ca        1 5FB     -0.207300
     27 F27        -4.4970   -0.9340    2.4410 f         1 5FB     -0.231967
     28 F28        -6.1860    0.0530    1.5160 f         1 5FB     -0.231967
     29 F29        -4.5680   -0.6860    0.2840 f         1 5FB     -0.231967
     30 H15        -0.7250    0.3270   -0.9830 ha        1 5FB      0.160000
     31 H20        -2.2760    4.7540    1.9190 ha        1 5FB      0.153000
     32 H24        -5.9380    2.4250    1.8770 ha        1 5FB      0.168000
     33 H01         1.0250    0.7220    4.8330 h1        1 5FB      0.051367
     34 H01A        0.7740   -1.0890    4.6440 h1        1 5FB      0.051367
     35 H01B       -0.4830   -0.0750    5.5250 h1        1 5FB      0.051367
     36 H04         2.1800   -0.1170    3.0720 ha        1 5FB      0.149000
     37 H06         3.9090    0.1980   -0.2500 hc        1 5FB      0.081200
     38 H06A        4.0820    0.5450    1.5230 hc        1 5FB      0.081200
     39 H07         3.4670   -2.0150    1.8530 h1        1 5FB      0.126700
     40 HN11        7.2850   -2.5120    0.7470 hn        1 5FB      0.357500
     41 H14         1.7540    0.1120   -1.2270 ha        1 5FB      0.149000
     42 H19        -0.9470    2.6730    1.5470 ha        1 5FB      0.160000
@<TRIPOS>BOND
     1    1   20 ar  
     2    1   21 ar  
     3    1   30 1   
     4    2    3 ar  
     5    2   24 ar  
     6    2   31 1   
     7    3    4 1   
     8    3    5 ar  
     9    4   25 3   
    10    5   26 ar  
    11    5   32 1   
    12    6   26 1   
    13    6   27 1   
    14    6   28 1   
    15    6   29 1   
    16    7    8 1   
    17    7   33 1   
    18    7   34 1   
    19    7   35 1   
    20    8    9 1   
    21    9   10 ar  
    22    9   21 ar  
    23   10   11 ar  
    24   10   36 1   
    25   11   12 1   
    26   11   20 ar  
    27   12   13 1   
    28   12   37 1   
    29   12   38 1   
    30   13   14 1   
    31   13   18 1   
    32   13   39 1   
    33   14   15 1   
    34   15   16 2   
    35   15   17 1   
    36   17   18 1   
    37   17   40 1   
    38   18   19 2   
    39   20   41 1   
    40   21   22 1   
    41   22   23 1   
    42   23   24 ar  
    43   23   26 ar  
    44   24   42 1   
@<TRIPOS>SUBSTRUCTURE
     1 5FB         1 TEMP              0 ****  ****    0 ROOT
