@<TRIPOS>MOLECULE
5FB
   42    44     1     0     0
SMALL
bcc


@<TRIPOS>ATOM
      1 C15        -0.2480    0.4210   -1.3020 ca        1 5FB     -0.088000
      2 C20         3.8420   -2.1690   -0.9690 ca        1 5FB     -0.031000
      3 C21         5.1090   -1.5860   -0.8050 ca        1 5FB     -0.058000
      4 C22         6.2790   -2.3400   -1.0850 cg        1 5FB      0.232800
      5 C24         5.2200   -0.2610   -0.3640 ca        1 5FB     -0.016000
      6 C26         4.1970    1.9260    0.3890 c3        1 5FB      0.705200
      7 C01        -0.0200   -1.3700    3.1650 c3        1 5FB      0.109700
      8 O02         0.6250   -0.7780    2.0400 os        1 5FB     -0.307900
      9 C03        -0.1640   -0.5370    0.9400 ca        1 5FB      0.135100
     10 C04        -1.5000   -0.9340    0.8140 ca        1 5FB     -0.200000
     11 C05        -2.2040   -0.6540   -0.3630 ca        1 5FB     -0.050300
     12 C06        -3.6210   -1.0990   -0.4900 c3        1 5FB     -0.027100
     13 C07        -4.5610   -0.2290    0.3190 c3        1 5FB     -0.083600
     14 S08        -5.0370    1.2750   -0.5450 ss        1 5FB     -0.168700
     15 C09        -6.7620    0.9460   -0.4490 c         1 5FB      0.715100
     16 O10        -7.6810    1.6470   -0.8800 o         1 5FB     -0.543500
     17 N11        -6.9910   -0.2730    0.2110 n         1 5FB     -0.613500
     18 C12        -5.8550   -0.9660    0.6390 c         1 5FB      0.699500
     19 O13        -5.9150   -2.0540    1.2230 o         1 5FB     -0.572500
     20 C14        -1.5780    0.0190   -1.4160 ca        1 5FB     -0.147000
     21 C16         0.4590    0.1490   -0.1290 ca        1 5FB      0.043100
     22 O17         1.7280    0.7040    0.0370 os        1 5FB     -0.217200
     23 C18         2.8070   -0.1080   -0.2550 ca        1 5FB      0.203100
     24 C19         2.6950   -1.4350   -0.6970 ca        1 5FB     -0.202000
     25 N23         7.2360   -2.9610   -1.3140 n1        1 5FB     -0.353800
     26 C25         4.0750    0.4850   -0.0880 ca        1 5FB     -0.207300
     27 F27         3.7010    2.1520    1.6490 f         1 5FB     -0.231967
     28 F28         5.4890    2.3940    0.4540 f         1 5FB     -0.231967
     29 F29         3.5550    2.8430   -0.4060 f         1 5FB     -0.231967
     30 H15         0.2480    0.9650   -2.1210 ha        1 5FB      0.160000
     31 H20         3.7580   -3.2120   -1.3150 ha        1 5FB      0.153000
     32 H24         6.2150    0.1990   -0.2340 ha        1 5FB      0.168000
     33 H01        -0.8650   -0.7310    3.5180 h1        1 5FB      0.051367
     34 H01A       -0.3790   -2.3980    2.9140 h1        1 5FB      0.051367
     35 H01B        0.7940   -1.4110    3.9320 h1        1 5FB      0.051367
     36 H04        -2.0030   -1.4680    1.6330 ha        1 5FB      0.149000
     37 H06        -3.9330   -1.0940   -1.5690 hc        1 5FB      0.081200
     38 H06A       -3.7100   -2.1590   -0.1180 hc        1 5FB      0.081200
     39 H07        -4.0730    0.0620    1.2880 h1        1 5FB      0.126700
     40 HN11       -7.9090   -0.6280    0.3580 hn        1 5FB      0.357500
     41 H14        -2.1340    0.2390   -2.3400 ha        1 5FB      0.149000
     42 H19         1.7000   -1.8890   -0.8170 ha        1 5FB      0.160000
@<TRIPOS>BOND
     1    1   20 ar  
     2    1   21 ar  
     3    1   30 1   
     4    2    3 ar  
     5    2   24 ar  
     6    2   31 1   
     7    3    4 1   
     8    3    5 ar  
     9    4   25 3   
    10    5   26 ar  
    11    5   32 1   
    12    6   26 1   
    13    6   27 1   
    14    6   28 1   
    15    6   29 1   
    16    7    8 1   
    17    7   33 1   
    18    7   34 1   
    19    7   35 1   
    20    8    9 1   
    21    9   10 ar  
    22    9   21 ar  
    23   10   11 ar  
    24   10   36 1   
    25   11   12 1   
    26   11   20 ar  
    27   12   13 1   
    28   12   37 1   
    29   12   38 1   
    30   13   14 1   
    31   13   18 1   
    32   13   39 1   
    33   14   15 1   
    34   15   16 2   
    35   15   17 1   
    36   17   18 1   
    37   17   40 1   
    38   18   19 2   
    39   20   41 1   
    40   21   22 1   
    41   22   23 1   
    42   23   24 ar  
    43   23   26 ar  
    44   24   42 1   
@<TRIPOS>SUBSTRUCTURE
     1 5FB         1 TEMP              0 ****  ****    0 ROOT
