@<TRIPOS>MOLECULE
5FB
   42    44     1     0     0
SMALL
bcc


@<TRIPOS>ATOM
      1 C15        -0.0620    0.2650   -0.1340 ca        1 5FB     -0.088000
      2 C20        -2.7990    3.7760    1.7950 ca        1 5FB     -0.031000
      3 C21        -4.1980    3.6970    1.8860 ca        1 5FB     -0.058000
      4 C22        -4.9630    4.8730    2.1040 cg        1 5FB      0.232800
      5 C24        -4.8400    2.4590    1.7630 ca        1 5FB     -0.016000
      6 C26        -4.7950   -0.0460    1.4130 c3        1 5FB      0.705200
      7 C01         0.2860   -0.0920    4.6590 c3        1 5FB      0.109700
      8 O02        -0.5030    0.1420    3.4940 os        1 5FB     -0.307900
      9 C03         0.1640    0.1230    2.2910 ca        1 5FB      0.135100
     10 C04         1.5510    0.0070    2.1500 ca        1 5FB     -0.200000
     11 C05         2.1260    0.0190    0.8740 ca        1 5FB     -0.050300
     12 C06         3.6070   -0.0870    0.7390 c3        1 5FB     -0.027100
     13 C07         4.0960   -1.5010    0.9780 c3        1 5FB     -0.083600
     14 S08         3.9650   -2.5410   -0.4830 ss        1 5FB     -0.168700
     15 C09         5.6740   -2.9540   -0.5090 c         1 5FB      0.715100
     16 O10         6.2530   -3.6860   -1.3150 o         1 5FB     -0.543500
     17 N11         6.3460   -2.3210    0.5510 n         1 5FB     -0.613500
     18 C12         5.5640   -1.5150    1.3830 c         1 5FB      0.699500
     19 O13         6.0310   -0.8940    2.3450 o         1 5FB     -0.572500
     20 C14         1.3210    0.1510   -0.2610 ca        1 5FB     -0.147000
     21 C16        -0.6430    0.2490    1.1360 ca        1 5FB      0.043100
     22 O17        -2.0330    0.1930    1.2400 os        1 5FB     -0.217200
     23 C18        -2.6910    1.3880    1.4590 ca        1 5FB      0.203100
     24 C19        -2.0470    2.6290    1.5810 ca        1 5FB     -0.202000
     25 N23        -5.5870    5.8390    2.2830 n1        1 5FB     -0.353800
     26 C25        -4.0950    1.3000    1.5480 ca        1 5FB     -0.207300
     27 F27        -4.4740   -0.9550    2.3890 f         1 5FB     -0.231967
     28 F28        -6.1680    0.0220    1.4640 f         1 5FB     -0.231967
     29 F29        -4.5420   -0.7000    0.2320 f         1 5FB     -0.231967
     30 H15        -0.7050    0.3530   -1.0230 ha        1 5FB      0.160000
     31 H20        -2.2970    4.7520    1.8930 ha        1 5FB      0.153000
     32 H24        -5.9400    2.3940    1.8350 ha        1 5FB      0.168000
     33 H01         0.7950   -1.0830    4.5980 h1        1 5FB      0.051367
     34 H01A        1.0310    0.7290    4.7980 h1        1 5FB      0.051367
     35 H01B       -0.4720   -0.0840    5.4830 h1        1 5FB      0.051367
     36 H04         2.1960   -0.0920    3.0350 ha        1 5FB      0.149000
     37 H06         4.0960    0.5910    1.4950 hc        1 5FB      0.081200
     38 H06A        3.9290    0.2580   -0.2810 hc        1 5FB      0.081200
     39 H07         3.5000   -1.9760    1.8030 h1        1 5FB      0.126700
     40 HN11        7.3230   -2.4350    0.6970 hn        1 5FB      0.357500
     41 H14         1.7760    0.1590   -1.2640 ha        1 5FB      0.149000
     42 H19        -0.9500    2.6830    1.5160 ha        1 5FB      0.160000
@<TRIPOS>BOND
     1    1   20 ar  
     2    1   21 ar  
     3    1   30 1   
     4    2    3 ar  
     5    2   24 ar  
     6    2   31 1   
     7    3    4 1   
     8    3    5 ar  
     9    4   25 3   
    10    5   26 ar  
    11    5   32 1   
    12    6   26 1   
    13    6   27 1   
    14    6   28 1   
    15    6   29 1   
    16    7    8 1   
    17    7   33 1   
    18    7   34 1   
    19    7   35 1   
    20    8    9 1   
    21    9   10 ar  
    22    9   21 ar  
    23   10   11 ar  
    24   10   36 1   
    25   11   12 1   
    26   11   20 ar  
    27   12   13 1   
    28   12   37 1   
    29   12   38 1   
    30   13   14 1   
    31   13   18 1   
    32   13   39 1   
    33   14   15 1   
    34   15   16 2   
    35   15   17 1   
    36   17   18 1   
    37   17   40 1   
    38   18   19 2   
    39   20   41 1   
    40   21   22 1   
    41   22   23 1   
    42   23   24 ar  
    43   23   26 ar  
    44   24   42 1   
@<TRIPOS>SUBSTRUCTURE
     1 5FB         1 TEMP              0 ****  ****    0 ROOT
