@<TRIPOS>MOLECULE
5FC
   34    35     1     0     0
SMALL
bcc


@<TRIPOS>ATOM
      1 P          -3.8200    0.3060    4.3080 p5        1 5FC      1.438800
      2 OP2        -4.8630   -0.7990    3.7030 oh        1 5FC     -0.785400
      3 OP1        -4.3580    0.5610    5.6600 o         1 5FC     -0.848500
      4 O5'        -2.4920   -0.6560    4.4440 os        1 5FC     -0.585200
      5 N1          1.4180   -2.1740    0.6050 n         1 5FC     -0.335400
      6 C6          0.5380   -2.6120   -0.3220 c1        1 5FC     -0.047900
      7 C2          2.6650   -2.8660    0.8440 c         1 5FC      0.766500
      8 O2          3.4810   -2.4040    1.6830 o         1 5FC     -0.671100
      9 N3          2.9710   -4.0260    0.1250 ne        1 5FC     -0.809100
     10 C4          2.1030   -4.4520   -0.8220 cf        1 5FC      0.752500
     11 N4          2.4800   -5.5470   -1.6050 nh        1 5FC     -0.920800
     12 C5          0.8480   -3.7800   -1.0760 cf        1 5FC     -0.635900
     13 C2'         0.3350    0.1090    0.6760 c3        1 5FC     -0.106400
     14 C5'        -1.9620   -1.1860    3.2640 c3        1 5FC      0.192400
     15 C4'        -0.7010   -0.4260    2.8230 c3        1 5FC      0.087100
     16 O4'         0.3420   -1.3790    2.5830 os        1 5FC     -0.429600
     17 C1'         1.1120   -1.0020    1.4140 c3        1 5FC      0.318500
     18 C3'        -0.8930    0.4050    1.5370 c3        1 5FC      0.139100
     19 O3'        -0.9290    1.7930    1.8120 oh        1 5FC     -0.645800
     20 C5A        -0.1460   -4.2090   -2.0070 c         1 5FC      0.628100
     21 O5A        -0.1210   -5.2350   -2.7260 o         1 5FC     -0.711100
     22 OP3        -3.5080    1.3180    3.2740 o         1 5FC     -0.848500
     23 H6         -5.3790   -1.2060    4.3890 ho        1 5FC      0.422000
     24 HN41        3.1690   -6.1540   -1.2280 hn        1 5FC      0.402800
     25 HN42        1.7290   -5.9950   -2.0820 hn        1 5FC      0.402800
     26 H2'         0.0180   -0.2170   -0.3450 hc        1 5FC      0.064700
     27 H2''        0.9790    1.0170    0.5830 hc        1 5FC      0.064700
     28 H5'        -1.6770   -2.2560    3.4740 h1        1 5FC      0.037700
     29 H5''       -2.7430   -1.1610    2.4560 h1        1 5FC      0.037700
     30 H4'        -0.3490    0.2400    3.6590 h1        1 5FC      0.059700
     31 H1'         2.0920   -0.6050    1.8200 h2        1 5FC      0.070700
     32 H3'        -1.8370    0.1040    1.0080 h1        1 5FC      0.054700
     33 HO3'       -1.7690    1.9590    2.2740 ho        1 5FC      0.459000
     34 H5A        -1.0390   -3.5380   -2.0640 h4        1 5FC     -0.016800
@<TRIPOS>BOND
     1    1    2 1   
     2    1    3 1   
     3    1    4 1   
     4    1   22 1   
     5    2   23 1   
     6    4   14 1   
     7    5    6 2   
     8    5    7 1   
     9    5   17 1   
    10    6   12 2   
    11    7    8 2   
    12    7    9 1   
    13    9   10 2   
    14   10   11 1   
    15   10   12 1   
    16   11   24 1   
    17   11   25 1   
    18   12   20 1   
    19   13   17 1   
    20   13   18 1   
    21   13   26 1   
    22   13   27 1   
    23   14   15 1   
    24   14   28 1   
    25   14   29 1   
    26   15   16 1   
    27   15   18 1   
    28   15   30 1   
    29   16   17 1   
    30   17   31 1   
    31   18   19 1   
    32   18   32 1   
    33   19   33 1   
    34   20   21 2   
    35   20   34 1   
@<TRIPOS>SUBSTRUCTURE
     1 5FC         1 TEMP              0 ****  ****    0 ROOT
