@<TRIPOS>MOLECULE
5FC
   34    33     1     0     0
SMALL
bcc


@<TRIPOS>ATOM
      1 P          -0.3480    3.8730    1.8470 p3        1 5FC      2.525000
      2 OP2         0.9920    3.5600    2.4700 os        1 5FC     -1.215000
      3 OP1        -1.1610    4.7170    2.7990 o         1 5FC     -1.249000
      4 O5'        -1.1190    2.5230    1.5480 os        1 5FC     -0.739000
      5 N1          0.2780   -0.7920   -1.0770 n         1 5FC     -0.262000
      6 C6          0.4470   -2.0040   -0.3560 c2        1 5FC      0.146000
      7 C2          1.4360    0.0590   -1.3580 c2        1 5FC      0.347000
      8 O2          1.3080    1.0470   -2.0540 o         1 5FC     -0.422000
      9 N3          2.7520   -0.2970   -0.8300 n2        1 5FC     -0.371000
     10 C4          2.9430   -1.5440   -0.1830 c1        1 5FC      0.246000
     11 N4          4.2390   -1.9280    0.2510 n2        1 5FC     -0.364000
     12 C5          1.7910   -2.4180    0.0770 c2        1 5FC     -0.412000
     13 C2'        -2.1380   -0.7520   -0.5470 c3        1 5FC     -0.195000
     14 C5'        -0.6380    1.6890    0.5180 c3        1 5FC      0.073000
     15 C4'        -1.6930    1.4970   -0.4900 c3        1 5FC     -0.043000
     16 O4'        -1.0610    0.8160   -1.8500 os        1 5FC     -0.281000
     17 C1'        -0.9900   -0.4600   -1.6150 c3        1 5FC      0.142000
     18 C3'        -2.6050    0.6490   -0.0390 c3        1 5FC     -0.001000
     19 O3'        -3.9210    0.9760   -0.5930 oh        1 5FC     -0.376000
     20 C5A         2.0060   -3.7980    0.6550 c2        1 5FC      0.240000
     21 O5A         1.0680   -4.5650    0.7620 o         1 5FC     -0.437000
     22 OP3        -0.1380    4.6300    0.5570 o         1 5FC     -1.249000
     23 H6         -0.3200   -2.5870   -0.1960 h4        1 5FC      0.314000
     24 HN41        4.9540   -1.3790    0.0980 hn        1 5FC      0.222500
     25 HN42        4.3620   -2.7350    0.6650 hn        1 5FC      0.222500
     26 H2'        -2.8830   -1.2240   -0.9720 hc        1 5FC      0.090000
     27 H2''       -1.7820   -1.2800    0.1960 hc        1 5FC      0.090000
     28 H5'         0.1430    2.1060    0.0980 h1        1 5FC      0.044500
     29 H5''       -0.3830    0.8200    0.8940 h1        1 5FC      0.044500
     30 H4'        -2.1100    2.3540   -0.7070 h1        1 5FC      0.060000
     31 H1'        -1.1540   -0.9660   -2.4370 h2        1 5FC      0.130000
     32 H3'        -2.6320    0.6650    0.9370 h1        1 5FC      0.179000
     33 HO3'       -4.5460    0.8380    0.0250 ho        1 5FC      0.268000
     34 H5A         2.9060   -4.0880    0.9070 h4        1 5FC      0.233000
@<TRIPOS>BOND
     1    1    3 1   
     2    1    4 1   
     3    1   22 1   
     4    4   14 1   
     5    5    6 1   
     6    5    7 1   
     7    5   17 1   
     8    6   12 1   
     9    6   23 1   
    10    7    8 1   
    11    7    9 1   
    12    9   10 1   
    13   10   12 1   
    14   11   24 1   
    15   11   25 1   
    16   12   20 1   
    17   13   17 1   
    18   13   18 1   
    19   13   26 1   
    20   13   27 1   
    21   14   15 1   
    22   14   28 1   
    23   14   29 1   
    24   15   16 1   
    25   15   18 1   
    26   15   30 1   
    27   16   17 1   
    28   17   31 1   
    29   18   19 1   
    30   18   32 1   
    31   19   33 1   
    32   20   21 1   
    33   20   34 1   
@<TRIPOS>SUBSTRUCTURE
     1 5FC         1 TEMP              0 ****  ****    0 ROOT
