@<TRIPOS>MOLECULE
5FD
   33    35     1     0     0
SMALL
bcc


@<TRIPOS>ATOM
      1 O2'         1.6350    0.5610    2.5970 oh        1 5FD     -0.597800
      2 C2'         1.0910    0.4570    1.2980 c3        1 5FD      0.099100
      3 C3'         1.7690   -0.7340    0.5830 c3        1 5FD      0.133100
      4 O3'         2.5670   -1.5240    1.4260 oh        1 5FD     -0.576800
      5 C4'         2.5920   -0.1060   -0.5610 c3        1 5FD      0.066100
      6 C5'         2.0360   -0.5090   -1.9360 c3        1 5FD      0.144900
      7 F19         2.8820   -0.1370   -2.9600 f         1 5FD     -0.237300
      8 O4'         2.5560    1.3170   -0.4170 os        1 5FD     -0.406600
      9 C1'         1.4950    1.7160    0.4660 c3        1 5FD      0.372300
     10 N9          0.3830    2.2510   -0.3060 nh        1 5FD     -0.762600
     11 C8          0.6670    3.1580   -1.3680 c2        1 5FD      0.595100
     12 N7         -0.1790    4.1380   -1.5500 n2        1 5FD     -0.626900
     13 C5         -1.1990    4.0700   -0.4940 c3        1 5FD     -0.017800
     14 C4         -0.7900    2.8180    0.4230 c3        1 5FD      0.356700
     15 N3         -0.6190    3.0760    1.8350 n2        1 5FD     -0.708900
     16 C2         -0.9030    4.2470    2.3120 c2        1 5FD      0.666100
     17 N1         -1.3640    5.3690    1.6380 nh        1 5FD     -0.824200
     18 C6         -1.3500    5.4180    0.2240 c2        1 5FD      0.620200
     19 N6         -1.4980    6.5560   -0.3770 n2        1 5FD     -0.809100
     20 HO2         1.0840    1.1910    3.0790 ho        1 5FD      0.430000
     21 H2'        -0.0190    0.3140    1.3480 h1        1 5FD      0.076700
     22 H3''        0.9910   -1.4430    0.1850 h1        1 5FD      0.089700
     23 HO3         3.1070   -0.9360    1.9720 ho        1 5FD      0.426000
     24 H4'         3.6800   -0.3820   -0.4880 h1        1 5FD      0.098700
     25 H5'1        1.0370   -0.0170   -2.0960 h1        1 5FD      0.054200
     26 H5'2        1.9120   -1.6280   -1.9620 h1        1 5FD      0.054200
     27 H1'         1.9680    2.4980    1.1340 h2        1 5FD      0.079700
     28 HC8         1.5400    2.9580   -2.0160 h5        1 5FD      0.084800
     29 H55        -2.1940    3.8340   -0.9670 h1        1 5FD      0.097700
     30 H44        -1.6050    2.0350    0.3380 h2        1 5FD      0.091700
     31 HC2        -0.8200    4.3800    3.4160 h5        1 5FD      0.046800
     32 HN1        -1.4600    6.2250    2.1390 hn        1 5FD      0.458800
     33 HN2        -1.4950    6.5130   -1.3730 hn        1 5FD      0.425400
@<TRIPOS>BOND
     1    1    2 1   
     2    1   20 1   
     3    2    3 1   
     4    2    9 1   
     5    2   21 1   
     6    3    4 1   
     7    3    5 1   
     8    3   22 1   
     9    4   23 1   
    10    5    6 1   
    11    5    8 1   
    12    5   24 1   
    13    6    7 1   
    14    6   25 1   
    15    6   26 1   
    16    8    9 1   
    17    9   10 1   
    18    9   27 1   
    19   10   11 1   
    20   10   14 1   
    21   11   12 2   
    22   11   28 1   
    23   12   13 1   
    24   13   14 1   
    25   13   18 1   
    26   13   29 1   
    27   14   15 1   
    28   14   30 1   
    29   15   16 2   
    30   16   17 1   
    31   16   31 1   
    32   17   18 1   
    33   17   32 1   
    34   18   19 2   
    35   19   33 1   
@<TRIPOS>SUBSTRUCTURE
     1 5FD         1 TEMP              0 ****  ****    0 ROOT
