@<TRIPOS>MOLECULE
5FD
   33    35     1     0     0
SMALL
bcc


@<TRIPOS>ATOM
      1 O2'        -0.0050    1.3950    0.6570 oh        1 5FD     -0.562800
      2 C2'         0.9680    0.5730    0.0670 c3        1 5FD      0.147100
      3 C3'         1.7450   -0.2910    1.0890 c3        1 5FD      0.080100
      4 O3'         1.0950   -0.1530    2.3380 oh        1 5FD     -0.585800
      5 C4'         3.1710    0.2950    1.1380 c3        1 5FD      0.065100
      6 C5'         4.2290   -0.7160    0.6670 c3        1 5FD      0.141900
      7 F19         5.4850   -0.3900    1.1370 f         1 5FD     -0.237300
      8 O4'         3.1920    1.4570    0.3030 os        1 5FD     -0.408600
      9 C1'         2.0770    1.4440   -0.6090 c3        1 5FD      0.365300
     10 N9          2.5100    0.9110   -1.8920 nh        1 5FD     -0.765600
     11 C8          3.7380    1.3970   -2.4350 c2        1 5FD      0.569100
     12 N7          3.8120    1.4950   -3.7360 n2        1 5FD     -0.590900
     13 C5          2.5110    1.1100   -4.2990 c3        1 5FD      0.035200
     14 C4          1.5480    0.8590   -3.0340 c3        1 5FD      0.351700
     15 N3          0.3820    1.7050   -2.9230 n2        1 5FD     -0.677900
     16 C2          0.1540    2.6160   -3.8130 c2        1 5FD      0.661100
     17 N1          0.9010    2.9210   -4.9440 nu        1 5FD     -0.881200
     18 C6          2.0160    2.1360   -5.3320 c2        1 5FD      0.635200
     19 N6          2.6450    2.2050   -6.4590 n2        1 5FD     -0.788100
     20 HO2         0.3750    1.7820    1.4580 ho        1 5FD      0.417000
     21 H2'         0.4030   -0.0590   -0.6700 h1        1 5FD      0.110700
     22 H3''        1.7520   -1.3670    0.7700 h1        1 5FD      0.061700
     23 HO3         1.5440   -0.7420    2.9560 ho        1 5FD      0.412000
     24 H4'         3.4280    0.6720    2.1670 h1        1 5FD      0.092700
     25 H5'1        3.9610   -1.7390    1.0520 h1        1 5FD      0.055200
     26 H5'2        4.2580   -0.7370   -0.4580 h1        1 5FD      0.055200
     27 H1'         1.7490    2.5250   -0.6690 h2        1 5FD      0.090700
     28 HC8         4.5770    1.6060   -1.7470 h5        1 5FD      0.078800
     29 H55         2.6330    0.1230   -4.8310 h1        1 5FD      0.105700
     30 H44         1.1740   -0.2080   -3.0740 h2        1 5FD      0.091700
     31 HC2        -0.7630    3.2360   -3.6810 h5        1 5FD      0.046800
     32 HN1         0.5760    3.6380   -5.5490 hn        1 5FD      0.439800
     33 HN2         2.3340    2.8820   -7.1220 hn        1 5FD      0.389400
@<TRIPOS>BOND
     1    1    2 1   
     2    1   20 1   
     3    2    3 1   
     4    2    9 1   
     5    2   21 1   
     6    3    4 1   
     7    3    5 1   
     8    3   22 1   
     9    4   23 1   
    10    5    6 1   
    11    5    8 1   
    12    5   24 1   
    13    6    7 1   
    14    6   25 1   
    15    6   26 1   
    16    8    9 1   
    17    9   10 1   
    18    9   27 1   
    19   10   11 1   
    20   10   14 1   
    21   11   12 2   
    22   11   28 1   
    23   12   13 1   
    24   13   14 1   
    25   13   18 1   
    26   13   29 1   
    27   14   15 1   
    28   14   30 1   
    29   15   16 2   
    30   16   17 1   
    31   16   31 1   
    32   17   18 1   
    33   17   32 1   
    34   18   19 2   
    35   19   33 1   
@<TRIPOS>SUBSTRUCTURE
     1 5FD         1 TEMP              0 ****  ****    0 ROOT
