@<TRIPOS>MOLECULE
5FD
   33    32     1     0     0
SMALL
bcc


@<TRIPOS>ATOM
      1 O2'        -3.4300   -0.2010    0.0460 oh        1 5FD     -0.309000
      2 C2'        -2.0550   -0.7410    0.2850 c3        1 5FD     -0.028000
      3 C3'        -1.8980   -1.0290    1.5410 c3        1 5FD     -0.032000
      4 O3'        -3.1930   -1.3510    2.1470 oh        1 5FD     -0.317000
      5 C4'        -1.2810    0.2890    2.2300 c3        1 5FD     -0.018000
      6 C5'        -0.5460   -0.0800    3.5000 c3        1 5FD     -0.001000
      7 F19         0.1410    0.9970    3.9520 f         1 5FD     -0.162000
      8 O4'        -0.4500    0.8030    1.3670 os        1 5FD     -0.275000
      9 C1'        -0.9780    0.3570   -0.0160 c3        1 5FD      0.099000
     10 N9         -0.0180   -0.1350   -0.7230 n3        1 5FD     -0.275000
     11 C8          1.0590   -0.9530   -0.2360 c2        1 5FD     -0.017000
     12 N7          1.8820   -0.9830   -0.8650 n1        1 5FD     -0.165000
     13 C5          1.7330   -0.2810   -1.9540 c2        1 5FD     -0.057000
     14 C4          0.3860    0.2990   -1.7990 c3        1 5FD      0.034000
     15 N3          0.2760    1.0860   -1.8290 n2        1 5FD     -0.258000
     16 C2          1.5150    2.0930   -2.2100 c1        1 5FD      0.100000
     17 N1          2.7170    1.6570   -2.1840 n2        1 5FD     -0.371000
     18 C6          2.8860    0.6200   -2.0810 c2        1 5FD      0.120000
     19 N6          4.0900    0.1750   -1.8340 n1        1 5FD     -0.259000
     20 HO2        -3.8430   -0.7010   -0.5420 ho        1 5FD      0.219000
     21 H2'        -1.9020   -1.5120   -0.2550 h1        1 5FD      0.145000
     22 H3''       -1.2730   -1.7940    1.6410 h1        1 5FD      0.095000
     23 HO3        -3.1690   -2.1830    2.4800 ho        1 5FD      0.221000
     24 H4'        -1.9870    0.9210    2.4270 h1        1 5FD      0.145000
     25 H5'1        0.0650   -0.7940    3.3190 h1        1 5FD      0.091000
     26 H5'2       -1.1970   -0.3680    4.1870 h1        1 5FD      0.091000
     27 H1'        -1.4020    1.1350   -0.4960 h2        1 5FD      0.159000
     28 HC8         0.8640   -1.7270    0.3650 h5        1 5FD      0.182000
     29 H55         1.7260   -0.8860   -2.7170 ha        1 5FD      0.147000
     30 H44        -0.1800   -0.0960   -2.5060 h2        1 5FD      0.136000
     31 HC2         1.3390    3.0600   -2.3790 ha        1 5FD      0.176000
     32 HN1         3.4360    2.2400   -2.3510 hn        1 5FD      0.237000
     33 HN2         4.6870    0.0820   -2.5120 DU        1 5FD      0.145000
@<TRIPOS>BOND
     1    1    2 1   
     2    1   20 1   
     3    2    3 1   
     4    2    9 1   
     5    2   21 1   
     6    3    4 1   
     7    3    5 1   
     8    3   22 1   
     9    4   23 1   
    10    5    6 1   
    11    5    8 1   
    12    5   24 1   
    13    6    7 1   
    14    6   25 1   
    15    6   26 1   
    16    8    9 1   
    17    9   10 1   
    18    9   27 1   
    19   10   11 1   
    20   10   14 1   
    21   11   12 1   
    22   11   28 1   
    23   13   14 1   
    24   13   18 1   
    25   13   29 1   
    26   14   15 1   
    27   14   30 1   
    28   15   16 1   
    29   16   31 1   
    30   17   18 1   
    31   17   32 1   
    32   18   19 1   
@<TRIPOS>SUBSTRUCTURE
     1 5FD         1 TEMP              0 ****  ****    0 ROOT
