@<TRIPOS>MOLECULE
5FD
   33    35     1     0     0
SMALL
bcc


@<TRIPOS>ATOM
      1 O2'        -0.0120    1.4030    0.6550 oh        1 5FD     -0.562800
      2 C2'         0.9620    0.5740    0.0750 c3        1 5FD      0.147100
      3 C3'         1.7490   -0.2670    1.1100 c3        1 5FD      0.080100
      4 O3'         1.1040   -0.1070    2.3600 oh        1 5FD     -0.585800
      5 C4'         3.1720    0.3280    1.1400 c3        1 5FD      0.065100
      6 C5'         4.2330   -0.6870    0.6830 c3        1 5FD      0.141900
      7 F19         5.4890   -0.3460    1.1410 f         1 5FD     -0.237300
      8 O4'         3.1830    1.4740    0.2830 os        1 5FD     -0.408600
      9 C1'         2.0630    1.4370   -0.6230 c3        1 5FD      0.365300
     10 N9          2.4930    0.8820   -1.8980 nh        1 5FD     -0.765600
     11 C8          3.7150    1.3630   -2.4560 c2        1 5FD      0.569100
     12 N7          3.7820    1.4360   -3.7590 n2        1 5FD     -0.589900
     13 C5          2.4800    1.0330   -4.3080 c3        1 5FD      0.035200
     14 C4          1.5250    0.8030   -3.0340 c3        1 5FD      0.351700
     15 N3          0.3550    1.6440   -2.9320 n2        1 5FD     -0.677900
     16 C2          0.1180    2.5370   -3.8380 c2        1 5FD      0.661100
     17 N1          0.8570    2.8230   -4.9800 nh        1 5FD     -0.881200
     18 C6          1.9740    2.0370   -5.3580 c2        1 5FD      0.635200
     19 N6          2.5970    2.0870   -6.4890 n2        1 5FD     -0.788100
     20 HO2         0.3710    1.8070    1.4460 ho        1 5FD      0.417000
     21 H2'         0.3970   -0.0750   -0.6460 h1        1 5FD      0.110700
     22 H3''        1.7600   -1.3480    0.8120 h1        1 5FD      0.061700
     23 HO3         1.5600   -0.6810    2.9870 ho        1 5FD      0.412000
     24 H4'         3.4330    0.7260    2.1600 h1        1 5FD      0.092700
     25 H5'1        3.9720   -1.7040    1.0900 h1        1 5FD      0.055200
     26 H5'2        4.2550   -0.7300   -0.4410 h1        1 5FD      0.055200
     27 H1'         1.7300    2.5150   -0.7030 h2        1 5FD      0.090700
     28 HC8         4.5570    1.5890   -1.7770 h5        1 5FD      0.078800
     29 H55         2.6040    0.0370   -4.8220 h1        1 5FD      0.105700
     30 H44         1.1560   -0.2670   -3.0500 h2        1 5FD      0.091700
     31 HC2        -0.8020    3.1550   -3.7140 h5        1 5FD      0.046800
     32 HN1         0.5250    3.5270   -5.5960 hn        1 5FD      0.439800
     33 HN2         2.2790    2.7500   -7.1640 hn        1 5FD      0.389400
@<TRIPOS>BOND
     1    1    2 1   
     2    1   20 1   
     3    2    3 1   
     4    2    9 1   
     5    2   21 1   
     6    3    4 1   
     7    3    5 1   
     8    3   22 1   
     9    4   23 1   
    10    5    6 1   
    11    5    8 1   
    12    5   24 1   
    13    6    7 1   
    14    6   25 1   
    15    6   26 1   
    16    8    9 1   
    17    9   10 1   
    18    9   27 1   
    19   10   11 1   
    20   10   14 1   
    21   11   12 2   
    22   11   28 1   
    23   12   13 1   
    24   13   14 1   
    25   13   18 1   
    26   13   29 1   
    27   14   15 1   
    28   14   30 1   
    29   15   16 2   
    30   16   17 1   
    31   16   31 1   
    32   17   18 1   
    33   17   32 1   
    34   18   19 2   
    35   19   33 1   
@<TRIPOS>SUBSTRUCTURE
     1 5FD         1 TEMP              0 ****  ****    0 ROOT
