@<TRIPOS>MOLECULE
5FH
   24    25     1     0     0
SMALL
bcc


@<TRIPOS>ATOM
      1 N1          0.2940   -0.3420    0.0380 n         1 5FH     -0.490900
      2 C1          1.6550   -0.1260    0.4420 c         1 5FH      0.774500
      3 O1          2.6600   -0.3090   -0.2590 o         1 5FH     -0.594500
      4 N2          1.6860    0.4010    1.7640 n         1 5FH     -0.612500
      5 C2          0.3930    0.4440    2.3000 c         1 5FH      0.692500
      6 O2          0.0900    0.8340    3.4300 o         1 5FH     -0.582500
      7 C3         -0.5730   -0.0680    1.1930 c3        1 5FH     -0.017300
      8 C4         -1.4430   -1.2180    1.6930 c3        1 5FH     -0.048100
      9 C5         -0.7320   -2.5200    1.7910 ca        1 5FH     -0.108300
     10 C6          0.5560   -4.1190    3.0770 ca        1 5FH     -0.124000
     11 C7         -0.7140   -3.3990    0.7010 ca        1 5FH     -0.127000
     12 C8         -0.0600   -4.6270    0.7990 ca        1 5FH     -0.124000
     13 C9          0.5770   -4.9870    1.9860 ca        1 5FH     -0.121000
     14 C10        -0.0960   -2.8900    2.9820 ca        1 5FH     -0.127000
     15 H1          0.1350   -1.2100   -0.4300 hn        1 5FH      0.311500
     16 H3         -1.2460    0.7940    0.9070 h1        1 5FH      0.105700
     17 H2          2.5150    0.6930    2.2140 hn        1 5FH      0.359500
     18 H41C       -2.3200   -1.3240    0.9980 hc        1 5FH      0.075200
     19 H42C       -1.8430   -0.9210    2.7010 hc        1 5FH      0.075200
     20 H7         -1.2290   -3.1280   -0.2330 ha        1 5FH      0.137000
     21 H10        -0.1130   -2.2060    3.8450 ha        1 5FH      0.137000
     22 H6          1.0540   -4.4020    4.0170 ha        1 5FH      0.137500
     23 H9          1.0930   -5.9560    2.0620 ha        1 5FH      0.137000
     24 H8         -0.0490   -5.3120   -0.0620 ha        1 5FH      0.137500
@<TRIPOS>BOND
     1    1    2 1   
     2    1    7 1   
     3    1   15 1   
     4    2    3 2   
     5    2    4 1   
     6    4    5 1   
     7    4   17 1   
     8    5    6 2   
     9    5    7 1   
    10    7    8 1   
    11    7   16 1   
    12    8    9 1   
    13    8   18 1   
    14    8   19 1   
    15    9   11 ar  
    16    9   14 ar  
    17   10   13 ar  
    18   10   14 ar  
    19   10   22 1   
    20   11   12 ar  
    21   11   20 1   
    22   12   13 ar  
    23   12   24 1   
    24   13   23 1   
    25   14   21 1   
@<TRIPOS>SUBSTRUCTURE
     1 5FH         1 TEMP              0 ****  ****    0 ROOT
