@<TRIPOS>MOLECULE
5FH
   24    25     1     0     0
SMALL
bcc


@<TRIPOS>ATOM
      1 N1          0.2940   -0.2850    0.0930 ns        1 5FH     -0.490900
      2 C1          1.6450   -0.0590    0.5240 c         1 5FH      0.774500
      3 O1          2.6640   -0.2020   -0.1670 o         1 5FH     -0.594500
      4 N2          1.6470    0.4240    1.8630 ns        1 5FH     -0.612500
      5 C2          0.3450    0.4270    2.3810 c         1 5FH      0.692500
      6 O2          0.0190    0.7730    3.5180 o         1 5FH     -0.582500
      7 C3         -0.5950   -0.0640    1.2420 c3        1 5FH     -0.017300
      8 C4         -1.4520   -1.2460    1.6900 c3        1 5FH     -0.048100
      9 C5         -0.7190   -2.5380    1.7560 ca        1 5FH     -0.108300
     10 C6          0.5770   -4.1550    3.0100 ca        1 5FH     -0.124000
     11 C7         -0.6690   -3.3800    0.6380 ca        1 5FH     -0.127000
     12 C8          0.0040   -4.5980    0.7060 ca        1 5FH     -0.124000
     13 C9          0.6290   -4.9870    1.8910 ca        1 5FH     -0.121000
     14 C10        -0.0950   -2.9360    2.9450 ca        1 5FH     -0.127000
     15 H1          0.1580   -1.1400   -0.4060 hn        1 5FH      0.311500
     16 H3         -1.2790    0.7950    0.9750 h1        1 5FH      0.105700
     17 H2          2.4640    0.7140    2.3360 hn        1 5FH      0.359500
     18 H41C       -2.3170   -1.3430    0.9780 hc        1 5FH      0.075200
     19 H42C       -1.8720   -0.9880    2.7010 hc        1 5FH      0.075200
     20 H7         -1.1760   -3.0860   -0.2940 ha        1 5FH      0.137000
     21 H10        -0.1370   -2.2810    3.8290 ha        1 5FH      0.137000
     22 H6          1.0650   -4.4620    3.9470 ha        1 5FH      0.137500
     23 H9          1.1610   -5.9490    1.9430 ha        1 5FH      0.137000
     24 H8          0.0400   -5.2540   -0.1760 ha        1 5FH      0.137500
@<TRIPOS>BOND
     1    1    2 1   
     2    1    7 1   
     3    1   15 1   
     4    2    3 2   
     5    2    4 1   
     6    4    5 1   
     7    4   17 1   
     8    5    6 2   
     9    5    7 1   
    10    7    8 1   
    11    7   16 1   
    12    8    9 1   
    13    8   18 1   
    14    8   19 1   
    15    9   11 ar  
    16    9   14 ar  
    17   10   13 ar  
    18   10   14 ar  
    19   10   22 1   
    20   11   12 ar  
    21   11   20 1   
    22   12   13 ar  
    23   12   24 1   
    24   13   23 1   
    25   14   21 1   
@<TRIPOS>SUBSTRUCTURE
     1 5FH         1 TEMP              0 ****  ****    0 ROOT
