@<TRIPOS>MOLECULE
5FH
   24    25     1     0     0
SMALL
bcc


@<TRIPOS>ATOM
      1 N1          3.2610   12.5130  -27.1900 n         1 5FH     -0.490900
      2 C1          3.1310   11.3030  -27.9510 c         1 5FH      0.774500
      3 O1          2.1830   11.0070  -28.6930 o         1 5FH     -0.594500
      4 N2          4.2950   10.5010  -27.7810 n         1 5FH     -0.612500
      5 C2          5.1570   11.0870  -26.8450 c         1 5FH      0.692500
      6 O2          6.2370   10.6290  -26.4690 o         1 5FH     -0.582500
      7 C3          4.4970   12.4250  -26.4000 c3        1 5FH     -0.017300
      8 C4          4.3540   12.5030  -24.8810 c3        1 5FH     -0.048100
      9 C5          3.2470   11.6770  -24.3320 ca        1 5FH     -0.108300
     10 C6          2.4460    9.5890  -23.4020 ca        1 5FH     -0.124000
     11 C7          1.9660   12.2220  -24.1840 ca        1 5FH     -0.127000
     12 C8          0.9320   11.4520  -23.6530 ca        1 5FH     -0.124000
     13 C9          1.1700   10.1340  -23.2630 ca        1 5FH     -0.121000
     14 C10         3.4820   10.3560  -23.9330 ca        1 5FH     -0.127000
     15 H1          2.4390   12.7750  -26.6860 hn        1 5FH      0.311500
     16 H3          5.1730   13.2640  -26.7410 h1        1 5FH      0.105700
     17 H2          4.4520    9.6570  -28.2710 hn        1 5FH      0.359500
     18 H41C        5.3350   12.1780  -24.4370 hc        1 5FH      0.075200
     19 H42C        4.1940   13.5790  -24.5990 hc        1 5FH      0.075200
     20 H7          1.7760   13.2670  -24.4730 ha        1 5FH      0.137000
     21 H10         4.4890    9.9240  -24.0400 ha        1 5FH      0.137000
     22 H6          2.6380    8.5510  -23.0910 ha        1 5FH      0.137500
     23 H9          0.3530    9.5280  -22.8450 ha        1 5FH      0.137000
     24 H8         -0.0730   11.8870  -23.5410 ha        1 5FH      0.137500
@<TRIPOS>BOND
     1    1    2 1   
     2    1    7 1   
     3    1   15 1   
     4    2    3 2   
     5    2    4 1   
     6    4    5 1   
     7    4   17 1   
     8    5    6 2   
     9    5    7 1   
    10    7    8 1   
    11    7   16 1   
    12    8    9 1   
    13    8   18 1   
    14    8   19 1   
    15    9   11 ar  
    16    9   14 ar  
    17   10   13 ar  
    18   10   14 ar  
    19   10   22 1   
    20   11   12 ar  
    21   11   20 1   
    22   12   13 ar  
    23   12   24 1   
    24   13   23 1   
    25   14   21 1   
@<TRIPOS>SUBSTRUCTURE
     1 5FH         1 TEMP              0 ****  ****    0 ROOT
