@<TRIPOS>MOLECULE
5FH
   24    23     1     0     0
SMALL
bcc


@<TRIPOS>ATOM
      1 N1          1.7530    0.7140   -1.3430 n         1 5FH     -0.319000
      2 C1          3.1840    0.5490   -1.3310 c2        1 5FH      0.367000
      3 O1          3.8790    0.2790   -2.2890 o         1 5FH     -0.326000
      4 N2          3.6390    0.7140    0.0190 n         1 5FH     -0.393000
      5 C2          2.5220    0.9300    0.8270 c2        1 5FH      0.299000
      6 O2          2.5320    1.4060    1.9390 o         1 5FH     -0.300000
      7 C3          1.2900    0.6380    0.0010 c3        1 5FH     -0.035000
      8 C4          0.6120   -0.7140    0.3510 c3        1 5FH     -0.138000
      9 C5         -0.8970   -0.5620    0.2820 c2        1 5FH     -0.089000
     10 C6         -2.9750    0.1060    1.2960 c1        1 5FH     -0.123000
     11 C7         -1.5880   -1.0260   -0.8300 c1        1 5FH     -0.134000
     12 C8         -2.9790   -0.9250   -0.8810 c1        1 5FH     -0.123000
     13 C9         -3.6690   -0.3620    0.1760 c1        1 5FH     -0.123000
     14 C10        -1.5920    0.0050    1.3460 c2        1 5FH     -0.119000
     15 H1          1.2410    0.8180   -2.0720 hn        1 5FH      0.236000
     16 H3          0.5660    1.2780    0.1780 h1        1 5FH      0.148000
     17 H2          4.5050    0.6690    0.3030 hn        1 5FH      0.273000
     18 H41C        0.8720   -0.9840    1.2540 hc        1 5FH      0.112000
     19 H42C        0.8960   -1.3920   -0.2840 hc        1 5FH      0.112000
     20 H7         -1.0900   -1.4340   -1.5920 ha        1 5FH      0.130000
     21 H10        -1.1080    0.3320    2.1260 ha        1 5FH      0.136000
     22 H6         -3.4640    0.5040    2.0440 ha        1 5FH      0.136000
     23 H9         -4.6620   -0.2900    0.1390 ha        1 5FH      0.136000
     24 H8         -3.4640   -1.2510   -1.6610 ha        1 5FH      0.136000
@<TRIPOS>BOND
     1    1    2 1   
     2    1    7 1   
     3    1   15 1   
     4    2    3 1   
     5    2    4 1   
     6    4    5 1   
     7    4   17 1   
     8    5    6 1   
     9    5    7 1   
    10    7    8 1   
    11    7   16 1   
    12    8    9 1   
    13    8   18 1   
    14    8   19 1   
    15    9   11 1   
    16    9   14 1   
    17   10   14 1   
    18   10   22 1   
    19   11   20 1   
    20   12   13 1   
    21   12   24 1   
    22   13   23 1   
    23   14   21 1   
@<TRIPOS>SUBSTRUCTURE
     1 5FH         1 TEMP              0 ****  ****    0 ROOT
