@<TRIPOS>MOLECULE
5FI
   49    47     1     0     0
SMALL
bcc


@<TRIPOS>ATOM
      1 C4         -0.2260    0.4480   -0.8330 c2        1 5FI      0.042000
      2 C5          0.5160   -0.0120    0.2100 c2        1 5FI     -0.088000
      3 C6         -2.9740   -0.3840    1.8570 c1        1 5FI      0.185000
      4 N1         -2.6310   -0.4650    0.7190 n2        1 5FI     -0.369000
      5 N3         -1.3840   -0.2530   -1.3040 n3        1 5FI     -0.205000
      6 FAB        -7.0820   -8.1420   -4.6640 f         1 5FI     -0.167667
      7 FAC        -7.9990   -6.1810   -4.5450 f         1 5FI     -0.167667
      8 FAD        -7.5790   -7.2970   -2.7320 f         1 5FI     -0.167667
      9 CAU        -5.6410   -6.3670   -3.8730 c2        1 5FI     -0.159000
     10 CAE        -7.0930   -3.5500   -0.5790 c1        1 5FI     -0.163000
     11 CAF        -6.1420   -3.3700   -1.2810 c1        1 5FI     -0.175000
     12 CAI        -5.4050   -5.1050   -3.7020 c1        1 5FI     -0.106000
     13 CAX        -5.1460   -3.8360   -3.5140 c2        1 5FI      0.015000
     14 CAY        -4.9860   -3.1650   -2.1160 c3        1 5FI      0.124000
     15 NAS        -4.7620   -1.7470   -2.4760 n3        1 5FI     -0.312000
     16 NAR        -4.9410   -2.8430   -4.5220 n2        1 5FI     -0.184000
     17 CAV        -4.6890   -1.6990   -3.8860 c2        1 5FI      0.084000
     18 NAZ        -3.1540    0.1930   -4.2290 n3        1 5FI     -0.278000
     19 CAL        -3.1290    1.6330   -4.3530 c3        1 5FI     -0.132000
     20 CAN         0.4230    2.7580   -0.8570 c1        1 5FI     -0.042000
     21 CAK        -2.0400   -0.4470   -4.8960 c3        1 5FI     -0.132000
     22 CAM         0.0760    1.5320   -2.9300 c1        1 5FI     -0.042000
     23 NBA         0.1240    1.6530   -1.5830 n3        1 5FI     -0.149000
     24 CAJ         1.6840    0.6290    0.7750 c2        1 5FI     -0.152000
     25 CAA         2.6050   -0.0480    1.4670 c2        1 5FI     -0.183000
     26 C2         -2.4550   -0.6530   -0.6230 c1        1 5FI      0.091000
     27 H1          0.2170   -0.9620    0.6930 ha        1 5FI      0.149000
     28 H2         -7.9360   -3.7230    0.0410 ha        1 5FI      0.227000
     29 H3         -4.0760   -3.5910   -1.5940 h1        1 5FI      0.120000
     30 H4         -4.8430   -7.1220   -3.9670 ha        1 5FI      0.168000
     31 H7         -5.2680    0.3210   -4.2850 h1        1 5FI      0.110500
     32 H8         -4.5280   -0.5460   -5.7110 h1        1 5FI      0.110500
     33 H10        -3.2770    1.9920   -5.4080 h1        1 5FI      0.079833
     34 H11        -3.9320    2.0740   -3.7070 h1        1 5FI      0.079833
     35 H12        -2.1300    2.0000   -3.9910 h1        1 5FI      0.079833
     36 H13         0.6950    3.6350   -1.4900 ha        1 5FI      0.043500
     37 H14         0.3750    2.4550   -3.4770 ha        1 5FI      0.043500
     38 H15        -1.0820   -0.0330   -4.4740 h1        1 5FI      0.079833
     39 H16        -2.0850   -1.5510   -4.6990 h1        1 5FI      0.079833
     40 H17        -2.0400   -0.2870   -6.0090 h1        1 5FI      0.079833
     41 H18         0.0430   -2.4390   -3.0840 ha        1 5FI      0.000500
     42 H19        -0.2010   -2.0140   -3.5510 ha        1 5FI      0.000500
     43 H20         2.5480   -1.1300    1.6430 ha        1 5FI      0.118500
     44 H21         1.7710    1.7240    0.6420 ha        1 5FI      0.155000
     45 H22         3.4820    0.4500    1.9010 ha        1 5FI      0.118500
     46 H23        -1.4140   -0.4040   -2.3020 hn        1 5FI      0.293000
     47 H5         -4.1140   -1.2240   -1.9210 hn        1 5FI      0.265000
     48 CAO        -4.4410   -0.3810   -4.5960 c3        1 5FI     -0.025000
     49 CBB        -7.0420   -6.9650   -3.9530 c3        1 5FI      0.457000
@<TRIPOS>BOND
     1    1    2 1   
     2    1    5 1   
     3    1   23 1   
     4    2   24 1   
     5    2   27 1   
     6    3    4 1   
     7    4   26 1   
     8    5   26 1   
     9    5   46 1   
    10    6   49 1   
    11    7   49 1   
    12    8   49 1   
    13    9   12 1   
    14    9   30 1   
    15    9   49 1   
    16   10   11 1   
    17   10   28 1   
    18   11   14 1   
    19   12   13 1   
    20   13   14 1   
    21   13   16 1   
    22   14   15 1   
    23   14   29 1   
    24   15   17 1   
    25   15   47 1   
    26   16   17 1   
    27   17   48 1   
    28   18   19 1   
    29   18   21 1   
    30   18   48 1   
    31   19   33 1   
    32   19   34 1   
    33   19   35 1   
    34   20   23 1   
    35   20   36 1   
    36   21   38 1   
    37   21   39 1   
    38   21   40 1   
    39   22   23 1   
    40   22   37 1   
    41   24   25 1   
    42   24   44 1   
    43   25   43 1   
    44   25   45 1   
    45   31   48 1   
    46   32   48 1   
    47   41   42 1   
@<TRIPOS>SUBSTRUCTURE
     1 5FI         1 TEMP              0 ****  ****    0 ROOT
