@<TRIPOS>MOLECULE
5FI
   49    49     1     0     0
SMALL
bcc


@<TRIPOS>ATOM
      1 C4         -0.4180    1.2250   -0.2410 c2        1 5FI      0.175000
      2 C5          0.7270    0.5320   -0.4680 c2        1 5FI     -0.112200
      3 C6          1.0490    1.0210    3.3990 c1        1 5FI      0.500800
      4 N1          0.5660    1.7100    2.5540 n1        1 5FI     -0.770600
      5 N3         -0.4170    2.4470    0.5110 nh        1 5FI     -0.514800
      6 FAB        -5.4840   -6.9500   -5.6080 f         1 5FI     -0.237633
      7 FAC        -6.3570   -6.1250   -7.4160 f         1 5FI     -0.237633
      8 FAD        -7.4970   -7.5050   -6.1930 f         1 5FI     -0.237633
      9 CAU        -7.2440   -5.2650   -5.3170 c2        1 5FI     -0.222300
     10 CAE        -7.3290   -4.0110   -0.9480 c1        1 5FI     -0.102500
     11 CAF        -6.4310   -3.8030   -1.7080 c1        1 5FI     -0.151100
     12 CAI        -6.5250   -4.3640   -4.7240 c1        1 5FI      0.031200
     13 CAX        -5.8200   -3.4560   -4.0980 ce        1 5FI      0.080300
     14 CAY        -5.3400   -3.5740   -2.6210 c3        1 5FI      0.298800
     15 NAS        -4.6660   -2.2720   -2.4120 nh        1 5FI     -0.824200
     16 NAR        -5.3520   -2.2150   -4.6350 ne        1 5FI     -0.595300
     17 CAV        -4.6700   -1.6110   -3.6660 c2        1 5FI      0.592200
     18 NAZ        -2.6000   -0.2910   -3.4480 n3        1 5FI     -0.749600
     19 CAL        -2.0650    1.0350   -3.1730 c3        1 5FI      0.154800
     20 CAN        -2.3530    1.5270   -1.7390 c3        1 5FI      0.135800
     21 CAK        -1.7990   -1.0350   -4.3980 c3        1 5FI      0.148100
     22 CAM        -2.1890   -0.3520   -0.1530 c1        1 5FI     -0.072500
     23 NBA        -1.7100    0.7420   -0.6900 nh        1 5FI     -0.363200
     24 CAJ         0.7800   -0.7750   -1.1580 c3        1 5FI     -0.059200
     25 CAA         2.1770   -1.3420   -1.1980 c3        1 5FI     -0.095100
     26 C2          0.0100    2.6700    1.7560 cg        1 5FI      0.208800
     27 H1          1.6910    0.9300   -0.1050 ha        1 5FI      0.146000
     28 H2         -8.1260   -4.2040   -0.2750 ha        1 5FI      0.170500
     29 H3         -4.6010   -4.4270   -2.5340 h1        1 5FI      0.085700
     30 H4         -8.3470   -5.2620   -5.3040 ha        1 5FI      0.176000
     31 H7         -4.5510    0.4560   -3.1240 h1        1 5FI      0.070700
     32 H8         -4.1610    0.1090   -4.8750 h1        1 5FI      0.070700
     33 H10        -0.9480    1.0150   -3.3270 h1        1 5FI      0.049700
     34 H11        -2.4890    1.8110   -3.8750 h1        1 5FI      0.049700
     35 H12        -2.0130    2.5990   -1.6940 h1        1 5FI      0.057700
     36 H13        -3.4640    1.5110   -1.5480 h1        1 5FI      0.057700
     37 H14        -0.7730   -1.1820   -3.9680 h1        1 5FI      0.043367
     38 H15        -3.1850   -0.6740   -0.5270 ha        1 5FI     -0.010500
     39 H16        -1.7030   -0.5220   -5.3930 h1        1 5FI      0.043367
     40 H17        -2.2690   -2.0410   -4.5610 h1        1 5FI      0.043367
     41 H18         0.3890   -0.6630   -2.2080 hc        1 5FI      0.067700
     42 H19         2.8710   -0.6560   -1.7410 hc        1 5FI      0.039367
     43 H20         2.1740   -2.3280   -1.7210 hc        1 5FI      0.039367
     44 H21         0.0910   -1.4940   -0.6280 hc        1 5FI      0.067700
     45 H22         2.5710   -1.4940   -0.1630 hc        1 5FI      0.039367
     46 H23        -0.8400    3.2370    0.0670 hn        1 5FI      0.457800
     47 H5         -3.8400   -2.2600   -1.8600 hn        1 5FI      0.443800
     48 CAO        -4.0100   -0.2540   -3.8150 c3        1 5FI      0.134500
     49 CBB        -6.6500   -6.4250   -6.1080 c3        1 5FI      0.675100
@<TRIPOS>BOND
     1    1    2 2   
     2    1    5 1   
     3    1   23 1   
     4    2   24 1   
     5    2   27 1   
     6    3    4 3   
     7    4   26 1   
     8    5   26 3   
     9    5   46 1   
    10    6   49 1   
    11    7   49 1   
    12    8   49 1   
    13    9   12 2   
    14    9   30 1   
    15    9   49 1   
    16   10   11 3   
    17   10   28 1   
    18   11   14 1   
    19   12   13 2   
    20   13   14 1   
    21   13   16 1   
    22   14   15 1   
    23   14   29 1   
    24   15   17 1   
    25   15   47 1   
    26   16   17 2   
    27   17   48 1   
    28   18   19 1   
    29   18   21 1   
    30   18   48 1   
    31   19   20 1   
    32   19   33 1   
    33   19   34 1   
    34   20   23 1   
    35   20   35 1   
    36   20   36 1   
    37   21   37 1   
    38   21   39 1   
    39   21   40 1   
    40   22   23 3   
    41   22   38 1   
    42   24   25 1   
    43   24   41 1   
    44   24   44 1   
    45   25   42 1   
    46   25   43 1   
    47   25   45 1   
    48   31   48 1   
    49   32   48 1   
@<TRIPOS>SUBSTRUCTURE
     1 5FI         1 TEMP              0 ****  ****    0 ROOT
