@<TRIPOS>MOLECULE
5FI
   49    52     1     0     0
SMALL
bcc


@<TRIPOS>ATOM
      1 C4          4.9770   -0.2490    0.6240 ca        1 5FI      0.617200
      2 C5          5.8780   -0.8620   -0.3000 ca        1 5FI     -0.281900
      3 C6          7.0120   -1.5000    0.2550 ca        1 5FI      0.424200
      4 N1          7.2670   -1.5440    1.5740 nb        1 5FI     -0.693000
      5 N3          5.2260   -0.2880    1.9720 nb        1 5FI     -0.728000
      6 FAB        -7.0140   -1.8330   -0.7620 f         1 5FI     -0.239300
      7 FAC        -7.4140    0.1630   -1.5030 f         1 5FI     -0.239300
      8 FAD        -7.8350   -0.3320    0.5640 f         1 5FI     -0.239300
      9 CAU        -5.4820   -0.0890   -0.0270 ca        1 5FI     -0.194300
     10 CAE        -5.0540   -0.3530    1.2900 ca        1 5FI     -0.074000
     11 CAF        -3.7800   -0.0170    1.7160 ca        1 5FI     -0.136000
     12 CAI        -4.6610    0.5190   -0.9690 ca        1 5FI     -0.015000
     13 CAX        -3.3640    0.8720   -0.5740 ca        1 5FI      0.055400
     14 CAY        -2.9280    0.5970    0.7880 ca        1 5FI     -0.053200
     15 NAS        -1.6210    1.0690    0.8700 na        1 5FI     -0.262300
     16 NAR        -2.3160    1.4850   -1.2860 nc        1 5FI     -0.560100
     17 CAV        -1.2960    1.5840   -0.4070 cd        1 5FI      0.416800
     18 NAZ         1.1390    1.5380   -0.0360 n3        1 5FI     -0.748600
     19 CAL         2.3020    2.4000    0.1350 c3        1 5FI      0.165300
     20 CAN         3.4830    1.6720    0.8110 c3        1 5FI      0.171300
     21 CAK         1.4710    0.2750   -0.6810 c3        1 5FI      0.165300
     22 CAM         2.6610   -0.4440   -0.0150 c3        1 5FI      0.171300
     23 NBA         3.8200    0.4360    0.1100 nh        1 5FI     -0.724300
     24 CAJ         5.6950   -0.8440   -1.7720 c3        1 5FI     -0.020100
     25 CAA         6.1820    0.4470   -2.3880 c3        1 5FI     -0.088100
     26 C2          6.3510   -0.9240    2.3680 ca        1 5FI      0.636900
     27 H1          7.7500   -1.9970   -0.4030 h4        1 5FI      0.031100
     28 H2         -5.7580   -0.8330    1.9890 ha        1 5FI      0.151000
     29 H3         -3.4520   -0.2230    2.7440 ha        1 5FI      0.146000
     30 H4         -5.0140    0.7230   -1.9920 ha        1 5FI      0.167000
     31 H7          0.1730    2.2770   -1.8160 h1        1 5FI      0.070700
     32 H8         -0.0150    3.2860   -0.3050 h1        1 5FI      0.070700
     33 H10         2.6510    2.8290   -0.8480 h1        1 5FI      0.045700
     34 H11         2.0050    3.2560    0.8040 h1        1 5FI      0.045700
     35 H12         4.3800    2.3490    0.7710 h1        1 5FI      0.054200
     36 H13         3.2210    1.4950    1.8940 h1        1 5FI      0.054200
     37 H14         0.5710   -0.3980   -0.6000 h1        1 5FI      0.045700
     38 H15         1.7010    0.4150   -1.7780 h1        1 5FI      0.045700
     39 H16         2.3330   -0.8440    0.9870 h1        1 5FI      0.054200
     40 H17         2.9470   -1.3170   -0.6650 h1        1 5FI      0.054200
     41 H18         6.2600   -1.7050   -2.2250 hc        1 5FI      0.050700
     42 H19         4.6120   -0.9940   -2.0310 hc        1 5FI      0.050700
     43 H20         6.0370    0.4150   -3.4950 hc        1 5FI      0.040033
     44 H21         5.6150    1.3170   -1.9800 hc        1 5FI      0.040033
     45 H22         7.2680    0.6000   -2.1770 hc        1 5FI      0.040033
     46 H23         6.5440   -0.9450    3.4610 h5        1 5FI      0.056100
     47 H5         -1.0030    0.9810    1.6340 hn        1 5FI      0.321700
     48 CAO         0.0380    2.2270   -0.6950 c3        1 5FI      0.150500
     49 CBB        -6.8930   -0.5060   -0.4220 c3        1 5FI      0.690200
@<TRIPOS>BOND
     1    1    2 ar  
     2    1    5 ar  
     3    1   23 1   
     4    2    3 ar  
     5    2   24 1   
     6    3    4 ar  
     7    3   27 1   
     8    4   26 ar  
     9    5   26 ar  
    10    6   49 1   
    11    7   49 1   
    12    8   49 1   
    13    9   10 ar  
    14    9   12 ar  
    15    9   49 1   
    16   10   11 ar  
    17   10   28 1   
    18   11   14 ar  
    19   11   29 1   
    20   12   13 ar  
    21   12   30 1   
    22   13   14 ar  
    23   13   16 1   
    24   14   15 1   
    25   15   17 1   
    26   15   47 1   
    27   16   17 2   
    28   17   48 1   
    29   18   19 1   
    30   18   21 1   
    31   18   48 1   
    32   19   20 1   
    33   19   33 1   
    34   19   34 1   
    35   20   23 1   
    36   20   35 1   
    37   20   36 1   
    38   21   22 1   
    39   21   37 1   
    40   21   38 1   
    41   22   23 1   
    42   22   39 1   
    43   22   40 1   
    44   24   25 1   
    45   24   41 1   
    46   24   42 1   
    47   25   43 1   
    48   25   44 1   
    49   25   45 1   
    50   26   46 1   
    51   31   48 1   
    52   32   48 1   
@<TRIPOS>SUBSTRUCTURE
     1 5FI         1 TEMP              0 ****  ****    0 ROOT
