@<TRIPOS>MOLECULE
5FI
   49    42     1     0     0
SMALL
bcc


@<TRIPOS>ATOM
      1 C4          3.2950    0.3110    2.0930 c1        1 5FI      0.087000
      2 C5          4.6820    0.2340    2.0840 c1        1 5FI     -0.073500
      3 C6          5.3700    0.2300    3.2580 c1        1 5FI     -0.089500
      4 N1          4.7120    0.3000    4.4210 n1        1 5FI     -0.166000
      5 N3          2.6450    0.3810    3.2440 n1        1 5FI     -0.200000
      6 FAB        -8.0990   -2.7320   -1.5000 f         1 5FI     -0.167667
      7 CBB        -7.8040   -1.8250   -2.4610 c3        1 5FI      0.469000
      8 FAC        -7.5770   -2.4750   -3.6580 f         1 5FI     -0.167667
      9 FAD        -8.8240   -0.9870   -2.5980 f         1 5FI     -0.167667
     10 CAU        -6.5480   -1.0430   -2.0590 c2        1 5FI     -0.187000
     11 CAE        -6.6990    0.0780   -1.2320 c1        1 5FI     -0.074000
     12 CAF        -5.5780    0.7690   -0.7890 c1        1 5FI     -0.089500
     13 CAI        -5.2770   -1.4570   -2.4320 c2        1 5FI     -0.015000
     14 CAX        -4.1450   -0.7490   -1.9770 c1        1 5FI     -0.084000
     15 CAY        -4.2990    0.3480   -1.1670 c1        1 5FI     -0.073500
     16 NAS        -3.0650    0.8310   -0.8830 n1        1 5FI     -0.176000
     17 NAR        -2.8210   -0.9310   -2.1850 n1        1 5FI     -0.176000
     18 CAV        -2.1500    0.0420   -1.5120 c1        1 5FI      0.015000
     19 CAO        -0.6300   -0.0490   -1.7790 c2        1 5FI     -0.010000
     20 NAZ         0.0760    0.0640   -0.5470 n3        1 5FI     -0.275000
     21 CAL         0.8410    1.2740   -0.5440 c3        1 5FI     -0.071500
     22 CAN         1.7340    1.3850    0.6670 c3        1 5FI     -0.066000
     23 CAK         0.9040   -1.1250   -0.3540 c3        1 5FI     -0.071500
     24 CAM         1.7990   -1.0140    0.8560 c3        1 5FI     -0.066000
     25 NBA         2.5620    0.1940    0.8580 n3        1 5FI     -0.216000
     26 CAJ         5.4330    0.2730    0.7720 c2        1 5FI     -0.111000
     27 CAA         6.7630    1.0160    0.9680 c3        1 5FI     -0.216000
     28 C2          3.3450    0.3760    4.4320 c1        1 5FI     -0.029000
     29 H1          6.2980    0.1770    3.2520 ha        1 5FI      0.158500
     30 H2         -7.5810    0.4180   -1.0380 ha        1 5FI      0.151000
     31 H3         -5.6780    1.5280   -0.2310 ha        1 5FI      0.158500
     32 H4         -5.1620   -2.2310   -3.0990 ha        1 5FI      0.167000
     33 H7         -0.4140   -0.9400   -2.2110 h4        1 5FI      0.109500
     34 H8         -0.3570    0.6860   -2.3860 h4        1 5FI      0.109500
     35 H10         1.4170    1.2970   -1.3710 h1        1 5FI      0.085000
     36 H11         0.2020    2.0710   -0.5600 h1        1 5FI      0.085000
     37 H12         1.1820    1.5140    1.4530 h1        1 5FI      0.093500
     38 H13         2.3310    2.1760    0.5580 h1        1 5FI      0.093500
     39 H14         0.3280   -1.8950   -0.2440 h1        1 5FI      0.085000
     40 H15         1.4910   -1.2590   -1.1960 h1        1 5FI      0.085000
     41 H16         2.4280   -1.8020    0.8660 h1        1 5FI      0.093500
     42 H17         1.2220   -1.0430    1.7010 h1        1 5FI      0.093500
     43 H18         4.9210    0.7200    0.1320 ha        1 5FI      0.100000
     44 H19         5.6110   -0.6530    0.4650 ha        1 5FI      0.100000
     45 H20         6.6110    1.8020    1.4700 hc        1 5FI      0.078000
     46 H21         7.3740    0.4550    1.4340 hc        1 5FI      0.078000
     47 H22         7.1340    1.2510    0.1040 hc        1 5FI      0.078000
     48 H23         2.8730    0.4270    5.2700 ha        1 5FI      0.193000
     49 H5         -2.8750    1.5820   -0.3450 DU        1 5FI      0.272000
@<TRIPOS>BOND
     1    1    5 1   
     2    1   25 1   
     3    2    3 1   
     4    3   29 1   
     5    4   28 1   
     6    6    7 1   
     7    7    8 1   
     8    7    9 1   
     9    7   10 1   
    10   10   11 1   
    11   10   13 1   
    12   11   30 1   
    13   12   15 1   
    14   12   31 1   
    15   13   14 1   
    16   13   32 1   
    17   16   18 1   
    18   17   18 1   
    19   19   20 1   
    20   19   33 1   
    21   19   34 1   
    22   20   21 1   
    23   20   23 1   
    24   21   22 1   
    25   21   35 1   
    26   21   36 1   
    27   22   25 1   
    28   22   37 1   
    29   22   38 1   
    30   23   24 1   
    31   23   39 1   
    32   23   40 1   
    33   24   25 1   
    34   24   41 1   
    35   24   42 1   
    36   26   27 1   
    37   26   43 1   
    38   26   44 1   
    39   27   45 1   
    40   27   46 1   
    41   27   47 1   
    42   28   48 1   
@<TRIPOS>SUBSTRUCTURE
     1 5FI         1 TEMP              0 ****  ****    0 ROOT
