@<TRIPOS>MOLECULE
5FI
   49    49     1     0     0
SMALL
bcc


@<TRIPOS>ATOM
      1 C4         -0.3980    1.0970   -0.2680 c2        1 5FI      0.228000
      2 C5          0.4750    0.2270    0.6360 c3        1 5FI     -0.164000
      3 C6          1.8600    0.7700    0.8650 c1        1 5FI     -0.069000
      4 N1          2.1940    1.9140    0.2590 n7        1 5FI     -0.252000
      5 N3          0.0750    2.2110   -0.8220 n2        1 5FI     -0.305000
      6 FAB        -4.9650   -6.8070   -5.7870 f         1 5FI     -0.166333
      7 FAC        -5.7130   -6.0310   -7.6710 f         1 5FI     -0.166333
      8 FAD        -6.8930   -7.4550   -6.5390 f         1 5FI     -0.166333
      9 CAU        -6.8160   -5.2020   -5.6630 c2        1 5FI     -0.155000
     10 CAE        -7.3130   -3.9400   -1.3310 c1        1 5FI     -0.164000
     11 CAF        -6.3670   -3.6890   -2.0170 c1        1 5FI     -0.175000
     12 CAI        -6.1920   -4.2630   -5.0230 c1        1 5FI     -0.095000
     13 CAX        -5.5850   -3.3180   -4.3520 c2        1 5FI      0.008000
     14 CAY        -5.2190   -3.4060   -2.8400 c3        1 5FI      0.116000
     15 NAS        -4.6300   -2.0710   -2.5830 n7        1 5FI     -0.304000
     16 NAR        -5.1370   -2.0570   -4.8580 n2        1 5FI     -0.164000
     17 CAV        -4.5670   -1.4150   -3.8440 c2        1 5FI      0.073000
     18 NAZ        -2.7100    0.0970   -3.2550 n3        1 5FI     -0.301000
     19 CAL        -2.4290    1.4420   -2.7790 c3        1 5FI     -0.073000
     20 CAN        -2.6250    1.5730   -1.2540 c3        1 5FI     -0.091000
     21 CAK        -1.6030   -0.5190   -3.9520 c3        1 5FI     -0.135000
     22 CAM        -2.1540   -0.4510    0.0520 c1        1 5FI     -0.145000
     23 NBA        -1.7580    0.7050   -0.4540 n3        1 5FI     -0.117000
     24 CAJ         0.6070   -1.2030    0.1190 c3        1 5FI     -0.215000
     25 CAA         0.6010   -1.2980   -1.3220 c1        1 5FI     -0.087000
     26 C2          1.3670    2.6210   -0.6220 c1        1 5FI      0.078000
     27 H1         -0.0110    0.1910    1.6590 hc        1 5FI      0.170000
     28 H2         -8.1540   -4.1720   -0.7260 ha        1 5FI      0.228000
     29 H3         -4.4500   -4.2230   -2.6900 h1        1 5FI      0.122000
     30 H4         -7.9150   -5.2530   -5.7390 ha        1 5FI      0.176000
     31 H7         -4.7320    0.6790   -3.4890 h1        1 5FI      0.111000
     32 H8         -3.8820    0.2440   -5.0500 h1        1 5FI      0.111000
     33 H10        -1.3730    1.7390   -3.0390 h1        1 5FI      0.105000
     34 H11        -3.1120    2.2060   -3.2510 h1        1 5FI      0.105000
     35 H12        -3.6910    1.3160   -0.9900 h1        1 5FI      0.113000
     36 H13        -2.4470    2.6510   -0.9800 h1        1 5FI      0.113000
     37 H14        -3.2110   -0.7260   -0.1520 ha        1 5FI      0.064000
     38 H15        -0.7140   -0.5500   -3.2610 h1        1 5FI      0.089000
     39 H16        -1.8900   -1.5690   -4.2250 h1        1 5FI      0.089000
     40 H17        -1.3170    0.0250   -4.8930 h1        1 5FI      0.089000
     41 H18        -1.5870   -2.1270   -1.8490 ha        1 5FI      0.007500
     42 H19        -1.5960   -2.4820   -1.2700 ha        1 5FI      0.007500
     43 H20         1.5090   -1.6770    0.6030 hc        1 5FI      0.159500
     44 H21        -0.3060   -1.7830    0.4770 hc        1 5FI      0.159500
     45 H22         0.8980   -2.2730   -1.7390 ha        1 5FI      0.050000
     46 H23         3.1140    2.2790    0.4020 hn        1 5FI      0.268000
     47 H5         -3.8270   -2.0390   -1.9970 hn        1 5FI      0.228000
     48 CAO        -3.9770   -0.0200   -3.9550 c3        1 5FI     -0.015000
     49 CBB        -6.1050   -6.3370   -6.3910 c3        1 5FI      0.457000
@<TRIPOS>BOND
     1    1    2 1   
     2    1    5 1   
     3    1   23 1   
     4    2    3 1   
     5    2   24 1   
     6    2   27 1   
     7    3    4 1   
     8    4   26 1   
     9    4   46 1   
    10    5   26 1   
    11    6   49 1   
    12    7   49 1   
    13    8   49 1   
    14    9   12 1   
    15    9   30 1   
    16    9   49 1   
    17   10   11 1   
    18   10   28 1   
    19   11   14 1   
    20   12   13 1   
    21   13   14 1   
    22   13   16 1   
    23   14   15 1   
    24   14   29 1   
    25   15   17 1   
    26   15   47 1   
    27   16   17 1   
    28   17   48 1   
    29   18   19 1   
    30   18   21 1   
    31   18   48 1   
    32   19   20 1   
    33   19   33 1   
    34   19   34 1   
    35   20   23 1   
    36   20   35 1   
    37   20   36 1   
    38   21   38 1   
    39   21   39 1   
    40   21   40 1   
    41   22   23 1   
    42   22   37 1   
    43   24   25 1   
    44   24   43 1   
    45   24   44 1   
    46   25   45 1   
    47   31   48 1   
    48   32   48 1   
    49   41   42 1   
@<TRIPOS>SUBSTRUCTURE
     1 5FI         1 TEMP              0 ****  ****    0 ROOT
