@<TRIPOS>MOLECULE
5FN
   27    28     1     0     0
SMALL
bcc


@<TRIPOS>ATOM
      1 F1          1.4970    0.1310   -0.0390 f         1 5FN     -0.223300
      2 C5          0.1240    0.1180    0.0030 c3        1 5FN      0.343100
      3 C6         -0.4060   -0.0620    1.4550 c3        1 5FN      0.131400
      4 O24        -1.7490   -0.4740    1.4470 oh        1 5FN     -0.586800
      5 C4         -0.5290    1.3500   -0.6720 c3        1 5FN      0.109100
      6 O22        -0.2230    2.4800    0.1220 oh        1 5FN     -0.586800
      7 C3          0.0410    1.5200   -2.0850 c3        1 5FN      0.114100
      8 O21        -0.7050    2.5690   -2.6830 oh        1 5FN     -0.606800
      9 O23        -0.2540   -1.0730   -0.6790 os        1 5FN     -0.438600
     10 C1         -0.3150   -1.0810   -2.0770 c3        1 5FN      0.308900
     11 O1          0.7960   -1.9230   -2.4570 os        1 5FN     -0.456400
     12 C7          1.5450   -1.2210   -3.4190 c2        1 5FN      0.603600
     13 C9          2.7250   -1.9600   -3.9250 c3        1 5FN     -0.121400
     14 N1          1.0860   -0.0370   -3.7280 n2        1 5FN     -0.647900
     15 C2         -0.1040    0.2310   -2.9120 c3        1 5FN      0.040500
     16 H61C       -0.3930    0.9370    1.9670 h1        1 5FN      0.078200
     17 H62C        0.2470   -0.7990    1.9900 h1        1 5FN      0.078200
     18 H4         -1.6420    1.1870   -0.7000 h1        1 5FN      0.082700
     19 H24        -1.7800   -1.3510    1.0400 ho        1 5FN      0.416000
     20 H22        -0.5820    3.2470   -0.3480 ho        1 5FN      0.429000
     21 H3          1.1230    1.8290   -1.9950 h1        1 5FN      0.083700
     22 H21        -0.2780    2.7690   -3.5260 ho        1 5FN      0.423000
     23 H2         -0.9880    0.3550   -3.6020 h1        1 5FN      0.097700
     24 H1         -1.2600   -1.6330   -2.3390 h2        1 5FN      0.104700
     25 H91C        3.1250   -1.4830   -4.8530 hc        1 5FN      0.074367
     26 H92C        2.4370   -3.0180   -4.1400 hc        1 5FN      0.074367
     27 H93C        3.5180   -1.9560   -3.1350 hc        1 5FN      0.074367
@<TRIPOS>BOND
     1    1    2 1   
     2    2    3 1   
     3    2    5 1   
     4    2    9 1   
     5    3    4 1   
     6    3   16 1   
     7    3   17 1   
     8    4   19 1   
     9    5    6 1   
    10    5    7 1   
    11    5   18 1   
    12    6   20 1   
    13    7    8 1   
    14    7   15 1   
    15    7   21 1   
    16    8   22 1   
    17    9   10 1   
    18   10   11 1   
    19   10   15 1   
    20   10   24 1   
    21   11   12 1   
    22   12   13 1   
    23   12   14 2   
    24   13   25 1   
    25   13   26 1   
    26   13   27 1   
    27   14   15 1   
    28   15   23 1   
@<TRIPOS>SUBSTRUCTURE
     1 5FN         1 TEMP              0 ****  ****    0 ROOT
