@<TRIPOS>MOLECULE
5FN
   27    27     1     0     0
SMALL
bcc


@<TRIPOS>ATOM
      1 F1          3.1490    0.4280    0.0050 f         1 5FN     -0.120000
      2 C5          1.8060    0.4280    0.0050 c3        1 5FN      0.213000
      3 C6          1.3380    0.4280    1.3770 c3        1 5FN     -0.042000
      4 O24         2.4350    0.2590    2.2490 oh        1 5FN     -0.311000
      5 C4          1.2730   -0.9470   -0.7440 c3        1 5FN     -0.009000
      6 O22         1.6390   -2.0420    0.0150 oh        1 5FN     -0.312000
      7 C3         -0.1720   -0.9550   -0.9180 c3        1 5FN      0.006000
      8 O21        -0.5390   -2.1010   -1.7430 oh        1 5FN     -0.332000
      9 O23         1.3480    1.6100   -0.6390 os        1 5FN     -0.283000
     10 C1         -0.1330    1.6310   -0.8690 c3        1 5FN      0.126000
     11 O1         -0.9890    1.8390    0.2500 os        1 5FN     -0.274000
     12 C7         -2.0370    0.9980   -0.0310 c2        1 5FN      0.102000
     13 C9         -2.8150    0.3470    1.1020 c3        1 5FN     -0.166000
     14 N1         -1.8490    0.3090   -1.2430 n1        1 5FN     -0.232000
     15 C2         -0.6930    0.3070   -1.5790 c2        1 5FN     -0.129000
     16 H61C        0.7050   -0.3030    1.5050 h1        1 5FN      0.107500
     17 H62C        0.8970    1.2780    1.5710 h1        1 5FN      0.107500
     18 H4          1.6970   -1.0140   -1.6210 h1        1 5FN      0.121000
     19 H24         2.1970    0.4870    3.0730 ho        1 5FN      0.221000
     20 H22         2.1790   -2.5640   -0.4590 ho        1 5FN      0.224000
     21 H3         -0.5940   -1.0480   -0.0430 h1        1 5FN      0.116000
     22 H21        -1.0140   -2.6740   -1.2600 ho        1 5FN      0.220000
     23 H2         -0.5800    0.3110   -2.5490 ha        1 5FN      0.142000
     24 H1         -0.3000    2.3690   -1.4850 h2        1 5FN      0.156000
     25 H91C       -2.7980    0.9280    1.8850 hc        1 5FN      0.115667
     26 H92C       -2.4080   -0.5120    1.3250 hc        1 5FN      0.115667
     27 H93C       -3.7400    0.2050    0.8220 hc        1 5FN      0.115667
@<TRIPOS>BOND
     1    1    2 1   
     2    2    3 1   
     3    2    5 1   
     4    2    9 1   
     5    3    4 1   
     6    3   16 1   
     7    3   17 1   
     8    4   19 1   
     9    5    6 1   
    10    5    7 1   
    11    5   18 1   
    12    6   20 1   
    13    7    8 1   
    14    7   15 1   
    15    7   21 1   
    16    8   22 1   
    17    9   10 1   
    18   10   11 1   
    19   10   15 1   
    20   10   24 1   
    21   11   12 1   
    22   12   13 1   
    23   12   14 1   
    24   13   25 1   
    25   13   26 1   
    26   13   27 1   
    27   15   23 1   
@<TRIPOS>SUBSTRUCTURE
     1 5FN         1 TEMP              0 ****  ****    0 ROOT
