@<TRIPOS>MOLECULE
5FN
   27    28     1     0     0
SMALL
bcc


@<TRIPOS>ATOM
      1 F1          0.3530    0.7270    1.5120 f         1 5FN     -0.222300
      2 C5          1.1160    0.5510    0.3830 c3        1 5FN      0.308100
      3 C6          2.4590    1.3250    0.4980 c3        1 5FN      0.115400
      4 O24         3.3380    0.9460   -0.5320 oh        1 5FN     -0.598800
      5 C4          1.3480   -0.9320   -0.0010 c3        1 5FN      0.070100
      6 O22         2.2030   -1.5830    0.9150 oh        1 5FN     -0.588800
      7 C3          0.0200   -1.7010    0.0100 c3        1 5FN      0.163100
      8 O21         0.1810   -2.9200   -0.6990 oh        1 5FN     -0.595800
      9 O23         0.3980    1.1830   -0.6700 os        1 5FN     -0.436600
     10 C1         -0.7540    0.5430   -1.1540 c3        1 5FN      0.298900
     11 O1         -1.8270    1.3290   -0.5960 os        1 5FN     -0.459400
     12 C7         -2.6630    0.4500    0.1220 c2        1 5FN      0.593600
     13 C9         -3.8060    1.1140    0.7920 c3        1 5FN     -0.118400
     14 N1         -2.3140   -0.8070    0.0810 n2        1 5FN     -0.625900
     15 C2         -1.0930   -0.9320   -0.7240 c3        1 5FN      0.075500
     16 H61C        2.2520    2.4260    0.4840 h1        1 5FN      0.078700
     17 H62C        2.9640    1.0300    1.4560 h1        1 5FN      0.078700
     18 H4          1.7990   -0.9450   -1.0340 h1        1 5FN      0.074700
     19 H24         2.9810    1.2980   -1.3580 ho        1 5FN      0.419000
     20 H22         3.0870   -1.2130    0.7780 ho        1 5FN      0.424000
     21 H3         -0.2620   -1.9140    1.0810 h1        1 5FN      0.089700
     22 H21         0.8010   -3.4540   -0.1840 ho        1 5FN      0.421000
     23 H2         -1.3510   -1.5170   -1.6560 h1        1 5FN      0.110700
     24 H1         -0.7530    0.7070   -2.2640 h2        1 5FN      0.108700
     25 H91C       -3.4330    1.6360    1.7090 hc        1 5FN      0.072700
     26 H92C       -4.2520    1.8720    0.1020 hc        1 5FN      0.072700
     27 H93C       -4.5830    0.3670    1.0830 hc        1 5FN      0.072700
@<TRIPOS>BOND
     1    1    2 1   
     2    2    3 1   
     3    2    5 1   
     4    2    9 1   
     5    3    4 1   
     6    3   16 1   
     7    3   17 1   
     8    4   19 1   
     9    5    6 1   
    10    5    7 1   
    11    5   18 1   
    12    6   20 1   
    13    7    8 1   
    14    7   15 1   
    15    7   21 1   
    16    8   22 1   
    17    9   10 1   
    18   10   11 1   
    19   10   15 1   
    20   10   24 1   
    21   11   12 1   
    22   12   13 1   
    23   12   14 2   
    24   13   25 1   
    25   13   26 1   
    26   13   27 1   
    27   14   15 1   
    28   15   23 1   
@<TRIPOS>SUBSTRUCTURE
     1 5FN         1 TEMP              0 ****  ****    0 ROOT
