@<TRIPOS>MOLECULE
5FN
   27    28     1     0     0
SMALL
bcc


@<TRIPOS>ATOM
      1 F1          1.5320    0.2600   -0.0820 f         1 5FN     -0.223300
      2 C5          0.1630    0.1870    0.0020 c3        1 5FN      0.343100
      3 C6         -0.3170    0.0500    1.4760 c3        1 5FN      0.131400
      4 O24        -1.6390   -0.4220    1.5270 oh        1 5FN     -0.586800
      5 C4         -0.5650    1.3570   -0.7060 c3        1 5FN      0.109100
      6 O22        -0.2890    2.5350    0.0280 oh        1 5FN     -0.586800
      7 C3         -0.0440    1.4880   -2.1420 c3        1 5FN      0.114100
      8 O21        -0.8540    2.4740   -2.7630 oh        1 5FN     -0.606800
      9 O23        -0.1790   -1.0500   -0.6150 os        1 5FN     -0.438600
     10 C1         -0.2800   -1.1230   -2.0090 c3        1 5FN      0.308900
     11 O1          0.8580   -1.9310   -2.3850 os        1 5FN     -0.456400
     12 C7          1.5460   -1.2400   -3.3990 c2        1 5FN      0.603600
     13 C9          2.7450   -1.9480   -3.9070 c3        1 5FN     -0.121400
     14 N1          1.0250   -0.0940   -3.7450 n2        1 5FN     -0.647900
     15 C2         -0.1530    0.1570   -2.9060 c3        1 5FN      0.040500
     16 H61C       -0.3360    1.0710    1.9430 h1        1 5FN      0.078200
     17 H62C        0.3840   -0.6320    2.0230 h1        1 5FN      0.078200
     18 H4         -1.6700    1.1430   -0.6930 h1        1 5FN      0.082700
     19 H24        -1.6410   -1.3170    1.1600 ho        1 5FN      0.416000
     20 H22        -0.6950    3.2620   -0.4650 ho        1 5FN      0.429000
     21 H3          1.0250    1.8480   -2.0990 h1        1 5FN      0.083700
     22 H21        -0.4600    2.6550   -3.6260 ho        1 5FN      0.423000
     23 H2         -1.0600    0.2100   -3.5740 h1        1 5FN      0.097700
     24 H1         -1.2040   -1.7280   -2.2170 h2        1 5FN      0.104700
     25 H91C        3.0830   -1.5090   -4.8770 hc        1 5FN      0.074367
     26 H92C        3.5660   -1.8550   -3.1520 hc        1 5FN      0.074367
     27 H93C        2.5060   -3.0310   -4.0480 hc        1 5FN      0.074367
@<TRIPOS>BOND
     1    1    2 1   
     2    2    3 1   
     3    2    5 1   
     4    2    9 1   
     5    3    4 1   
     6    3   16 1   
     7    3   17 1   
     8    4   19 1   
     9    5    6 1   
    10    5    7 1   
    11    5   18 1   
    12    6   20 1   
    13    7    8 1   
    14    7   15 1   
    15    7   21 1   
    16    8   22 1   
    17    9   10 1   
    18   10   11 1   
    19   10   15 1   
    20   10   24 1   
    21   11   12 1   
    22   12   13 1   
    23   12   14 2   
    24   13   25 1   
    25   13   26 1   
    26   13   27 1   
    27   14   15 1   
    28   15   23 1   
@<TRIPOS>SUBSTRUCTURE
     1 5FN         1 TEMP              0 ****  ****    0 ROOT
