@<TRIPOS>MOLECULE
5FN
   27    28     1     0     0
SMALL
bcc


@<TRIPOS>ATOM
      1 F1          1.5290    0.2270   -0.2470 f         1 5FN     -0.222300
      2 C5          0.1680    0.1890   -0.0650 c3        1 5FN      0.345100
      3 C6         -0.2100    0.0920    1.4420 c3        1 5FN      0.131400
      4 O24        -1.5380   -0.3430    1.5920 oh        1 5FN     -0.587800
      5 C4         -0.5840    1.3580   -0.7450 c3        1 5FN      0.072100
      6 O22        -0.2380    2.5440   -0.0530 oh        1 5FN     -0.584800
      7 C3         -0.2080    1.4710   -2.2280 c3        1 5FN      0.112100
      8 O21        -1.0720    2.3950   -2.8600 oh        1 5FN     -0.583800
      9 O23        -0.2570   -1.0440   -0.6330 os        1 5FN     -0.439600
     10 C1         -0.3450   -1.1560   -2.0260 c3        1 5FN      0.300900
     11 O1          0.8020   -1.9620   -2.3700 os        1 5FN     -0.457400
     12 C7          1.5300   -1.2600   -3.3500 c2        1 5FN      0.598600
     13 C9          2.7610   -1.9510   -3.8010 c3        1 5FN     -0.120400
     14 N1          1.0110   -0.1200   -3.7180 n2        1 5FN     -0.627900
     15 C2         -0.2170    0.1110   -2.9460 c3        1 5FN      0.050500
     16 H61C       -0.1700    1.1210    1.8890 h1        1 5FN      0.079200
     17 H62C        0.5090   -0.6000    1.9520 h1        1 5FN      0.079200
     18 H4         -1.6870    1.1630   -0.6210 h1        1 5FN      0.068700
     19 H24        -1.5860   -1.2470    1.2540 ho        1 5FN      0.415000
     20 H22        -0.5250    3.2830   -0.6090 ho        1 5FN      0.426000
     21 H3          0.8090    1.9640   -2.3060 h1        1 5FN      0.125700
     22 H21        -1.9600    2.0160   -2.8730 ho        1 5FN      0.400000
     23 H2         -1.0810    0.1020   -3.6730 h1        1 5FN      0.088700
     24 H1         -1.2630   -1.7730   -2.2260 h2        1 5FN      0.105700
     25 H91C        3.5510   -1.8240   -3.0190 hc        1 5FN      0.074367
     26 H92C        2.5510   -3.0420   -3.9280 hc        1 5FN      0.074367
     27 H93C        3.1240   -1.5230   -4.7670 hc        1 5FN      0.074367
@<TRIPOS>BOND
     1    1    2 1   
     2    2    3 1   
     3    2    5 1   
     4    2    9 1   
     5    3    4 1   
     6    3   16 1   
     7    3   17 1   
     8    4   19 1   
     9    5    6 1   
    10    5    7 1   
    11    5   18 1   
    12    6   20 1   
    13    7    8 1   
    14    7   15 1   
    15    7   21 1   
    16    8   22 1   
    17    9   10 1   
    18   10   11 1   
    19   10   15 1   
    20   10   24 1   
    21   11   12 1   
    22   12   13 1   
    23   12   14 2   
    24   13   25 1   
    25   13   26 1   
    26   13   27 1   
    27   14   15 1   
    28   15   23 1   
@<TRIPOS>SUBSTRUCTURE
     1 5FN         1 TEMP              0 ****  ****    0 ROOT
