@<TRIPOS>MOLECULE
5FO
   57    54     1     0     0
SMALL
bcc


@<TRIPOS>ATOM
      1 CAA         1.6390   -0.2080   -1.5160 c3        1 5FO     -0.061900
      2 CAB         5.1360    1.9140   -1.4330 c3        1 5FO     -0.091100
      3 OAD         8.1430   -2.4710    1.1130 o         1 5FO     -0.663500
      4 OAE         5.7340   -0.7470    6.6020 o         1 5FO     -0.557900
      5 OAF         6.6200   -1.9020    4.8040 o         1 5FO     -0.557900
      6 FAG         8.3340   -0.3390   -0.6970 f         1 5FO     -0.143500
      7 CAH         1.9490   -0.8470    4.7150 ca        1 5FO     -0.102000
      8 CAI         1.7370   -0.8590    3.3390 ca        1 5FO     -0.175000
      9 CAJ         4.3530   -0.7090    4.3730 ca        1 5FO     -0.051500
     10 CAK         1.1850   -1.2970   -0.6340 c2        1 5FO     -0.195200
     11 CAL         6.3810    1.8050   -0.5870 c3        1 5FO     -0.031200
     12 CAM         1.6510   -1.5450    0.5980 c2        1 5FO     -0.013900
     13 CAN         8.3100   -3.5230    6.5080 cx        1 5FO      0.122300
     14 CAO         6.2360   -2.2860   10.4670 c1        1 5FO     -0.184500
     15 CAP         9.7850   -4.2610    3.0890 c1        1 5FO      0.231300
     16 CAQ         5.9160   -1.5780    9.5560 c1        1 5FO     -0.184500
     17 NAR         5.3300    0.5090    1.2350 nc        1 5FO     -0.600300
     18 NAS         6.2290   -1.5850    2.0140 ns        1 5FO     -0.455400
     19 OAT         2.6910   -0.7600    1.0970 os        1 5FO     -0.243200
     20 CAU         3.2450   -0.7820    5.2210 ca        1 5FO     -0.107000
     21 CAV         2.8400   -0.7910    2.4780 ca        1 5FO      0.134100
     22 CAW         6.3550    0.5980    0.3050 cc        1 5FO      0.152400
     23 CAX         7.3270   -0.3890    0.2000 cd        1 5FO     -0.033700
     24 CAY         4.1500   -0.6980    2.9890 ca        1 5FO     -0.112900
     25 CAZ         5.2870   -0.5570    2.0320 cd        1 5FO      0.545500
     26 CBA         7.3000   -1.5520    1.1100 c         1 5FO      0.686700
     27 NBB         7.0820   -3.1560    7.2400 ny        1 5FO     -0.857000
     28 NBC        10.0710   -4.7160    4.1180 n1        1 5FO     -0.453800
     29 HAA         2.3410    0.4860   -0.9870 hc        1 5FO      0.047700
     30 HAAA        0.7620    0.3820   -1.8810 hc        1 5FO      0.047700
     31 HAAB        2.1680   -0.6330   -2.4060 hc        1 5FO      0.047700
     32 HAB         4.2270    2.0360   -0.7940 hc        1 5FO      0.043367
     33 HABA        5.2190    2.8000   -2.1080 hc        1 5FO      0.043367
     34 HABB        5.0030    1.0010   -2.0610 hc        1 5FO      0.043367
     35 HAC         6.4650   -4.3480    5.5030 hx        1 5FO      0.130950
     36 HACA        7.0360   -5.3540    6.9670 hx        1 5FO      0.130950
     37 HACB        7.0590   -3.2190    8.2490 hn        1 5FO      0.496300
     38 HAH         1.0890   -0.8890    5.4000 ha        1 5FO      0.135000
     39 HAI         0.7190   -0.9070    2.9270 ha        1 5FO      0.144000
     40 HAJ         3.4150   -0.7870    6.3130 ha        1 5FO      0.162000
     41 HAK         1.3050   -2.3640    1.2450 h4        1 5FO      0.139000
     42 HAKA        0.4090   -1.9640   -1.0460 ha        1 5FO      0.129000
     43 HAL         6.4850    2.7240    0.0520 hc        1 5FO      0.062200
     44 HALA        7.2870    1.7460   -1.2480 hc        1 5FO      0.062200
     45 HAM         2.4100    2.2460    0.6720 ha        1 5FO      0.002250
     46 HAMA        2.6330    1.6710    0.9530 ha        1 5FO      0.002250
     47 HAN         5.2200   -3.7700    3.8900 ha        1 5FO      0.002250
     48 HANA        5.4150   -4.3040    3.5210 ha        1 5FO      0.002250
     49 HAO         6.5290   -2.3320    6.8710 hn        1 5FO      0.496300
     50 HAOA        6.5050   -2.8910   11.2960 ha        1 5FO      0.187500
     51 HAP         9.5020   -3.8250    2.1450 ha        1 5FO      0.220500
     52 HAPA        9.1950   -3.8300    7.1040 hx        1 5FO      0.130950
     53 HAQ         8.5580   -2.8600    5.6410 hx        1 5FO      0.130950
     54 HAQA        5.6340   -0.9480    8.7340 ha        1 5FO      0.187500
     55 HNAS        6.2250   -2.2800    2.7450 hn        1 5FO      0.379500
     56 SBD         5.9460   -0.5510    5.0900 s4        1 5FO      0.275300
     57 CAC         7.0930   -4.3860    6.4280 cx        1 5FO      0.122300
@<TRIPOS>BOND
     1    1   10 1   
     2    1   29 1   
     3    1   30 1   
     4    1   31 1   
     5    2   11 1   
     6    2   32 1   
     7    2   33 1   
     8    2   34 1   
     9    3   26 2   
    10    4   56 1   
    11    5   56 1   
    12    6   23 1   
    13    7    8 ar  
    14    7   20 ar  
    15    7   38 1   
    16    8   21 ar  
    17    8   39 1   
    18    9   20 ar  
    19    9   24 ar  
    20    9   56 1   
    21   10   12 2   
    22   10   42 1   
    23   11   22 1   
    24   11   43 1   
    25   11   44 1   
    26   12   19 1   
    27   12   41 1   
    28   13   27 1   
    29   13   52 1   
    30   13   53 1   
    31   13   57 1   
    32   14   16 3   
    33   14   50 1   
    34   15   28 3   
    35   15   51 1   
    36   16   54 1   
    37   17   22 1   
    38   17   25 2   
    39   18   25 1   
    40   18   26 1   
    41   18   55 1   
    42   19   21 1   
    43   20   40 1   
    44   21   24 ar  
    45   22   23 2   
    46   23   26 1   
    47   24   25 1   
    48   27   37 1   
    49   27   49 1   
    50   27   57 1   
    51   35   57 1   
    52   36   57 1   
    53   45   46 1   
    54   47   48 1   
@<TRIPOS>SUBSTRUCTURE
     1 5FO         1 TEMP              0 ****  ****    0 ROOT
