@<TRIPOS>MOLECULE
5FO
   57    53     1     0     0
SMALL
bcc


@<TRIPOS>ATOM
      1 CAA         0.0580    1.7300    1.2560 c3        1 5FO     -0.062900
      2 CAB         5.4340   -3.6230   -1.5990 c1        1 5FO     -0.072500
      3 OAD         9.3010    0.6340   -0.0710 o         1 5FO     -0.589500
      4 OAE         7.7520    0.2930    6.7650 o         1 5FO     -0.652800
      5 OAF         6.4260    0.9510    8.6690 o         1 5FO     -0.652800
      6 FAG         8.3350   -1.4160   -1.7300 f         1 5FO     -0.122500
      7 CAH         5.1660    0.5350    5.1580 cc        1 5FO      0.127000
      8 CAI         4.0060    0.8930    4.3200 cc        1 5FO     -0.284000
      9 CAJ         6.2150    0.0400    4.2120 cc        1 5FO     -0.100000
     10 CAK         1.3440    1.0100    1.2880 c2        1 5FO     -0.166200
     11 CAL         5.9300   -2.7480   -0.9500 cg        1 5FO     -0.171300
     12 CAM         2.3910    1.4350    2.0070 c2        1 5FO     -0.029900
     13 CAN         5.9170   -3.4640    6.6470 c2        1 5FO      0.030000
     14 CAO         4.2530   -4.4080    2.8670 c1        1 5FO     -0.169000
     15 CAP         6.6840   -2.4050    7.0240 c2        1 5FO     -0.090000
     16 CAQ         4.0320   -5.3750    3.5370 c1        1 5FO     -0.169000
     17 NAR         5.8530   -1.3320    0.9880 nc        1 5FO     -0.588300
     18 NAS         7.5510    0.3340    1.3760 n         1 5FO     -0.470400
     19 OAT         3.6050    0.7410    1.8660 os        1 5FO     -0.215200
     20 CAU         5.2600    0.6090    6.4880 cf        1 5FO     -0.409100
     21 CAV         4.3210    0.6100    3.0170 cd        1 5FO      0.167100
     22 CAW         6.5080   -1.7060   -0.1880 cc        1 5FO      0.279900
     23 CAX         7.6790   -1.0830   -0.6040 cd        1 5FO      0.021300
     24 CAY         5.7100    0.0740    2.9490 cd        1 5FO     -0.153600
     25 CAZ         6.3770   -0.3470    1.7060 cd        1 5FO      0.557200
     26 CBA         8.2640    0.0130    0.2080 c         1 5FO      0.675700
     27 NBB         6.3670   -4.5730    5.9370 nh        1 5FO     -0.727000
     28 NBC         6.2300   -1.3650    7.8430 nh        1 5FO     -0.774900
     29 HAA         0.0590    2.6250    1.9250 hc        1 5FO      0.049033
     30 HAAA       -0.7670    1.0460    1.5810 hc        1 5FO      0.049033
     31 HAAB       -0.1630    2.0700    0.2130 hc        1 5FO      0.049033
     32 HAB         0.8020   -1.8620   -0.4680 ha        1 5FO      0.000750
     33 HABA        1.4210   -1.7590   -0.7220 ha        1 5FO      0.000750
     34 HABB        5.0030   -4.3980   -2.1810 ha        1 5FO      0.174500
     35 HAC         7.8570   -3.6790    4.6780 h1        1 5FO      0.040033
     36 HACA        7.8550   -5.5010    4.8060 h1        1 5FO      0.040033
     37 HACB        8.4410   -4.4830    6.2030 h1        1 5FO      0.040033
     38 HAH         4.3810    1.0210    7.0240 h4        1 5FO      0.183000
     39 HAI         3.0790    1.2920    4.7210 ha        1 5FO      0.169000
     40 HAJ         7.2120   -0.2710    4.5480 ha        1 5FO      0.198000
     41 HAK         2.4250    2.3130    2.6650 h4        1 5FO      0.148000
     42 HAKA        1.4150    0.1010    0.6640 ha        1 5FO      0.151000
     43 HAL         2.7020   -2.1770   -2.5110 ha        1 5FO      0.000750
     44 HALA        3.2880   -2.4860   -2.3650 ha        1 5FO      0.000750
     45 HAM         3.3790   -0.0490   -0.4180 ha        1 5FO      0.000750
     46 HAMA        3.2790   -0.4780   -0.9330 ha        1 5FO      0.000750
     47 HAN         9.0930   -1.4840    5.0720 ha        1 5FO      0.000750
     48 HANA        9.2710   -0.9340    5.4260 ha        1 5FO      0.000750
     49 HAO         4.4490   -3.5490    2.2700 ha        1 5FO      0.170000
     50 HAOA        5.6730   -4.9380    5.3130 hn        1 5FO      0.407800
     51 HAP         4.8600   -3.5550    6.9680 h4        1 5FO      0.139000
     52 HAPA        7.7430   -2.2990    6.7120 h4        1 5FO      0.159000
     53 HAQ         3.8250   -6.2370    4.1180 ha        1 5FO      0.170000
     54 HAQA        5.6680   -1.6390    8.6130 hn        1 5FO      0.454800
     55 HNAS        7.8870    1.0690    1.9620 hn        1 5FO      0.350500
     56 SBD         6.5480    0.1810    7.4940 sy        1 5FO      1.501800
     57 CAC         7.6870   -4.5480    5.3730 c3        1 5FO      0.163100
@<TRIPOS>BOND
     1    1   10 1   
     2    1   29 1   
     3    1   30 1   
     4    1   31 1   
     5    2   11 3   
     6    2   34 1   
     7    3   26 2   
     8    4   56 2   
     9    5   56 2   
    10    6   23 1   
    11    7    8 1   
    12    7    9 1   
    13    7   20 2   
    14    8   21 2   
    15    8   39 1   
    16    9   24 2   
    17    9   40 1   
    18   10   12 2   
    19   10   42 1   
    20   11   22 1   
    21   12   19 1   
    22   12   41 1   
    23   13   15 2   
    24   13   27 1   
    25   13   51 1   
    26   14   16 3   
    27   14   49 1   
    28   15   28 1   
    29   15   52 1   
    30   16   53 1   
    31   17   22 1   
    32   17   25 2   
    33   18   25 1   
    34   18   26 1   
    35   18   55 1   
    36   19   21 1   
    37   20   38 1   
    38   20   56 1   
    39   21   24 1   
    40   22   23 2   
    41   23   26 1   
    42   24   25 1   
    43   27   50 1   
    44   27   57 1   
    45   28   54 1   
    46   28   56 1   
    47   32   33 1   
    48   35   57 1   
    49   36   57 1   
    50   37   57 1   
    51   43   44 1   
    52   45   46 1   
    53   47   48 1   
@<TRIPOS>SUBSTRUCTURE
     1 5FO         1 TEMP              0 ****  ****    0 ROOT
