@<TRIPOS>MOLECULE
5FO
   57    55     1     0     0
SMALL
bcc


@<TRIPOS>ATOM
      1 CAA        -6.2980   -0.9090    0.1890 c3        1 5FO     -0.211000
      2 CAB         1.8840   -6.3010    2.6330 c3        1 5FO     -0.207000
      3 CAC         3.6990    6.6830   -1.2540 c3        1 5FO     -0.120000
      4 OAD         0.2680   -5.6160   -2.5890 o         1 5FO     -0.322000
      5 OAE         0.9890    2.3870   -2.4450 o         1 5FO     -0.930000
      6 OAF         2.6640    1.3800   -1.3820 o         1 5FO     -0.930000
      7 FAG         0.7590   -7.1110   -0.3240 f         1 5FO     -0.072000
      8 CAH        -0.9550    1.2550    0.1530 c1        1 5FO     -0.082000
      9 CAI        -1.8990    0.3360    0.6020 c1        1 5FO     -0.082000
     10 CAJ         0.4770   -0.5570   -0.5460 c1        1 5FO      0.018000
     11 CAK        -4.8510   -0.7320   -0.2760 c3        1 5FO     -0.193000
     12 CAL         0.4260   -5.9290    2.3260 c3        1 5FO     -0.115000
     13 CAM        -3.9450   -1.7090    0.4860 c3        1 5FO     -0.017000
     14 CAN         3.6240    4.6030   -0.1740 c3        1 5FO     -0.080000
     15 CAO         1.6520    5.5480   -1.1110 c3        1 5FO     -0.080000
     16 CAP         2.7810    3.5600    0.5480 c3        1 5FO     -0.015000
     17 CAQ         0.8090    4.5050   -0.3880 c3        1 5FO     -0.015000
     18 NAR         0.1190   -3.7170    1.0780 n1        1 5FO     -0.162000
     19 NAS        -0.0650   -3.6540   -1.4560 n         1 5FO     -0.317000
     20 OAT        -2.9120   -0.9830    1.1460 os        1 5FO     -0.215000
     21 CAU         0.2330    0.8090   -0.4210 c1        1 5FO     -0.832000
     22 CAV        -1.6560   -1.0300    0.4770 c1        1 5FO      0.169000
     23 CAW         0.3690   -5.1170    1.0300 c1        1 5FO      0.004000
     24 CAX         0.4650   -5.8010   -0.2720 c2        1 5FO     -0.055000
     25 CAY        -0.4680   -1.4770   -0.0970 c1        1 5FO     -0.125000
     26 CAZ        -0.1630   -2.9780   -0.1570 c2        1 5FO      0.153000
     27 CBA         0.2470   -5.0430   -1.5160 c2        1 5FO      0.312000
     28 NBB         2.8930    5.8000   -0.4480 n3        1 5FO     -0.256000
     29 NBC         1.5410    3.3080   -0.1150 n3        1 5FO     -0.839000
     30 SBD         1.3860    1.9900   -1.1190 s6        1 5FO      2.849000
     31 HAA        -6.8990   -0.4090   -0.4090 hc        1 5FO      0.079000
     32 HAAA       -6.5340   -1.8620    0.1690 hc        1 5FO      0.079000
     33 HAAB       -6.3910   -0.5670    1.1060 hc        1 5FO      0.079000
     34 HAB         2.2980   -6.6920    1.8340 hc        1 5FO      0.083333
     35 HABA        1.9080   -6.9540    3.3680 hc        1 5FO      0.083333
     36 HABB        2.3800   -5.4920    2.8970 hc        1 5FO      0.083333
     37 HAC         3.8020    6.3020   -2.1540 h1        1 5FO      0.074667
     38 HACA        3.2590    7.5610   -1.3190 h1        1 5FO      0.074667
     39 HACB        4.5840    6.7890   -0.8400 h1        1 5FO      0.074667
     40 HAH        -1.1260    2.2160    0.2410 ha        1 5FO      0.161500
     41 HAI        -2.7360    0.6500    1.0070 ha        1 5FO      0.161500
     42 HAJ         1.3130   -0.8710   -0.9500 ha        1 5FO      0.159000
     43 HAK        -4.7930   -0.9140   -1.2410 hc        1 5FO      0.091500
     44 HAKA       -4.5610    0.1890   -0.0990 hc        1 5FO      0.091500
     45 HAL         0.0620   -5.3940    3.0650 hc        1 5FO      0.105000
     46 HALA       -0.1060   -6.7500    2.2230 hc        1 5FO      0.105000
     47 HAM        -4.4780   -2.1990    1.1510 h1        1 5FO      0.100500
     48 HAMA       -3.5460   -2.3450   -0.1460 h1        1 5FO      0.100500
     49 HAN         4.4040    4.8260    0.3860 h1        1 5FO      0.082000
     50 HANA        3.9410    4.2220   -1.0240 h1        1 5FO      0.082000
     51 HAO         1.8380    5.2300   -2.0230 h1        1 5FO      0.082000
     52 HAOA        1.1420    6.3900   -1.1640 h1        1 5FO      0.082000
     53 HAP         2.5950    3.8780    1.4610 h1        1 5FO      0.098750
     54 HAPA        3.2900    2.7200    0.6010 h1        1 5FO      0.098750
     55 HAQ         0.0310    4.2820   -0.9470 h1        1 5FO      0.098750
     56 HAQA        0.4920    4.8860    0.4620 h1        1 5FO      0.098750
     57 HNAS       -0.2410   -3.1900   -2.2290 hn        1 5FO      0.259000
@<TRIPOS>BOND
     1    1   11 1   
     2    1   31 1   
     3    1   32 1   
     4    1   33 1   
     5    2   12 1   
     6    2   34 1   
     7    2   35 1   
     8    2   36 1   
     9    3   28 1   
    10    3   37 1   
    11    3   38 1   
    12    3   39 1   
    13    4   27 1   
    14    5   30 1   
    15    6   30 1   
    16    7   24 1   
    17    8    9 1   
    18    8   40 1   
    19    9   41 1   
    20   10   21 1   
    21   10   42 1   
    22   11   13 1   
    23   11   43 1   
    24   11   44 1   
    25   12   23 1   
    26   12   45 1   
    27   12   46 1   
    28   13   20 1   
    29   13   47 1   
    30   13   48 1   
    31   14   16 1   
    32   14   28 1   
    33   14   49 1   
    34   14   50 1   
    35   15   17 1   
    36   15   28 1   
    37   15   51 1   
    38   15   52 1   
    39   16   29 1   
    40   16   53 1   
    41   16   54 1   
    42   17   29 1   
    43   17   55 1   
    44   17   56 1   
    45   18   26 1   
    46   19   26 1   
    47   19   27 1   
    48   19   57 1   
    49   20   22 1   
    50   21   30 1   
    51   22   25 1   
    52   23   24 1   
    53   24   27 1   
    54   25   26 1   
    55   29   30 1   
@<TRIPOS>SUBSTRUCTURE
     1 5FO         1 TEMP              0 ****  ****    0 ROOT
