@<TRIPOS>MOLECULE
5FO
   57    59     1     0     0
SMALL
bcc


@<TRIPOS>ATOM
      1 CAA         3.3550    5.9620    1.2610 c3        1 5FO     -0.095100
      2 CAB         2.2730   -3.7670   -2.0410 c3        1 5FO     -0.088100
      3 OAD         5.3760   -0.2960    1.4900 o         1 5FO     -0.605500
      4 OAE        -2.7060   -1.8650    1.5580 o         1 5FO     -0.649300
      5 OAF        -3.9910    0.1430    1.9310 o         1 5FO     -0.649300
      6 FAG         5.5150   -2.0790   -0.6840 f         1 5FO     -0.136500
      7 CAH        -1.6690    1.7240    1.3710 ca        1 5FO      0.037000
      8 CAI        -0.5120    2.4910    1.3440 ca        1 5FO     -0.241000
      9 CAJ        -0.4210   -0.2310    0.7340 ca        1 5FO      0.064000
     10 CAK         3.2800    4.4770    1.0180 c3        1 5FO     -0.089400
     11 CAL         3.1440   -2.5580   -2.2820 c3        1 5FO     -0.033200
     12 CAM         1.8530    3.9870    1.1940 c3        1 5FO      0.129400
     13 CAN        -2.6310   -1.0230   -2.6750 c3        1 5FO      0.151300
     14 CAO        -3.9530    0.9740   -2.2920 c3        1 5FO      0.151300
     15 CAP        -3.1470   -1.6130   -1.3450 c3        1 5FO      0.226300
     16 CAQ        -4.4630    0.3740   -0.9650 c3        1 5FO      0.226300
     17 NAR         2.0100   -0.9920   -0.7420 nc        1 5FO     -0.626300
     18 NAS         3.1490    0.0540    1.0990 n         1 5FO     -0.457400
     19 OAT         1.9020    2.5690    0.9550 os        1 5FO     -0.336900
     20 CAU        -1.6450    0.3590    1.0630 ca        1 5FO     -0.418500
     21 CAV         0.7130    1.8900    1.0050 ca        1 5FO      0.215100
     22 CAW         3.1830   -1.6470   -1.0890 cc        1 5FO      0.147400
     23 CAX         4.3560   -1.4650   -0.3710 cd        1 5FO     -0.016700
     24 CAY         0.7620    0.5090    0.6980 ca        1 5FO     -0.211900
     25 CAZ         2.0240   -0.1750    0.3110 cd        1 5FO      0.557500
     26 CBA         4.3810   -0.5500    0.7920 c         1 5FO      0.677700
     27 NBB        -3.5390   -0.0420   -3.2500 n3        1 5FO     -0.728600
     28 NBC        -3.5770   -0.6120   -0.4010 n3        1 5FO     -0.815500
     29 HAA         2.7040    6.5160    0.5420 hc        1 5FO      0.041367
     30 HAAA        3.0260    6.2120    2.2990 hc        1 5FO      0.041367
     31 HAAB        4.4060    6.3150    1.1300 hc        1 5FO      0.041367
     32 HAB         2.6320   -4.3430   -1.1540 hc        1 5FO      0.042367
     33 HABA        1.2130   -3.4660   -1.8630 hc        1 5FO      0.042367
     34 HABB        2.3070   -4.4360   -2.9350 hc        1 5FO      0.042367
     35 HAC        -2.8180   -0.2990   -5.1990 h1        1 5FO      0.034700
     36 HACA       -3.8130    1.2020   -4.9120 h1        1 5FO      0.034700
     37 HACB       -2.0860    1.1270   -4.3310 h1        1 5FO      0.034700
     38 HAH        -2.6290    2.1950    1.6570 ha        1 5FO      0.163000
     39 HAI        -0.5630    3.5600    1.5930 ha        1 5FO      0.152000
     40 HAJ        -0.3910   -1.3150    0.5100 ha        1 5FO      0.171000
     41 HAK         3.6310    4.2340   -0.0190 hc        1 5FO      0.062700
     42 HAKA        3.9520    3.9320    1.7320 hc        1 5FO      0.062700
     43 HAL         4.1920   -2.8860   -2.5190 hc        1 5FO      0.064700
     44 HALA        2.7600   -1.9850   -3.1690 hc        1 5FO      0.064700
     45 HAM         1.4850    4.1710    2.2370 h1        1 5FO      0.049200
     46 HAMA        1.1630    4.4660    0.4520 h1        1 5FO      0.049200
     47 HAN        -1.6000   -0.5930   -2.5090 h1        1 5FO      0.039700
     48 HANA       -2.5360   -1.8710   -3.4090 h1        1 5FO      0.039700
     49 HAO        -4.8000    1.5530   -2.7530 h1        1 5FO      0.039700
     50 HAOA       -3.1190    1.7010   -2.0670 h1        1 5FO      0.039700
     51 HAP        -4.0140   -2.3000   -1.5670 h1        1 5FO      0.061200
     52 HAPA       -2.3200   -2.2270   -0.8850 h1        1 5FO      0.061200
     53 HAQ        -4.6040    1.2140   -0.2260 h1        1 5FO      0.061200
     54 HAQA       -5.4690   -0.1040   -1.1490 h1        1 5FO      0.061200
     55 HNAS        3.1110    0.7300    1.8320 hn        1 5FO      0.348500
     56 SBD        -3.0620   -0.5670    1.1360 sy        1 5FO      1.511200
     57 CAC        -3.0290    0.5310   -4.4750 c3        1 5FO      0.156100
@<TRIPOS>BOND
     1    1   10 1   
     2    1   29 1   
     3    1   30 1   
     4    1   31 1   
     5    2   11 1   
     6    2   32 1   
     7    2   33 1   
     8    2   34 1   
     9    3   26 2   
    10    4   56 2   
    11    5   56 2   
    12    6   23 1   
    13    7    8 ar  
    14    7   20 ar  
    15    7   38 1   
    16    8   21 ar  
    17    8   39 1   
    18    9   20 ar  
    19    9   24 ar  
    20    9   40 1   
    21   10   12 1   
    22   10   41 1   
    23   10   42 1   
    24   11   22 1   
    25   11   43 1   
    26   11   44 1   
    27   12   19 1   
    28   12   45 1   
    29   12   46 1   
    30   13   15 1   
    31   13   27 1   
    32   13   47 1   
    33   13   48 1   
    34   14   16 1   
    35   14   27 1   
    36   14   49 1   
    37   14   50 1   
    38   15   28 1   
    39   15   51 1   
    40   15   52 1   
    41   16   28 1   
    42   16   53 1   
    43   16   54 1   
    44   17   22 1   
    45   17   25 2   
    46   18   25 1   
    47   18   26 1   
    48   18   55 1   
    49   19   21 1   
    50   20   56 1   
    51   21   24 ar  
    52   22   23 2   
    53   23   26 1   
    54   24   25 1   
    55   27   57 1   
    56   28   56 1   
    57   35   57 1   
    58   36   57 1   
    59   37   57 1   
@<TRIPOS>SUBSTRUCTURE
     1 5FO         1 TEMP              0 ****  ****    0 ROOT
