@<TRIPOS>MOLECULE
5FR
   77    80     1     0     0
SMALL
bcc


@<TRIPOS>ATOM
      1 C26         0.9400   -2.2040   -0.7200 c3        1 5FR     -0.184000
      2 C17         2.3570   -1.7960   -0.6240 c2        1 5FR      0.014000
      3 C12         3.0290   -1.5350    0.6900 c2        1 5FR     -0.116000
      4 C13         2.4280   -1.5520    1.8980 c2        1 5FR      0.004000
      5 C11         4.4290   -1.2330    0.2920 c2        1 5FR     -0.295000
      6 C10         5.4250   -1.0440    1.1590 c1        1 5FR      0.195000
      7 C9          4.1120   -1.5010    3.5770 c2        1 5FR      0.074000
      8 C61         7.1370    1.1760   -2.1510 c3        1 5FR     -0.104000
      9 C68         6.1590    0.4090   -1.3530 c2        1 5FR     -0.069000
     10 C62         7.0160    1.0320   -3.6170 c2        1 5FR      0.023000
     11 C63         6.1400    0.1450   -4.1770 c2        1 5FR     -0.145000
     12 C69         6.1120   -0.1050   -5.6500 c3        1 5FR     -0.125000
     13 C70         7.0930   -1.1860   -6.0680 c3        1 5FR     -0.189000
     14 C71         6.9070   -2.4860   -5.3050 c2        1 5FR      0.310000
     15 O73         6.4560   -2.4990   -4.1260 o         1 5FR     -0.441000
     16 N72         7.2670   -3.6550   -5.8970 n         1 5FR     -0.383000
     17 C66         5.2660   -0.6240   -3.3630 c2        1 5FR      0.269000
     18 C67         5.2890   -0.4900   -1.9240 c2        1 5FR     -0.020000
     19 N15         4.4720   -1.3850   -1.1640 na        1 5FR     -0.057000
     20 N16         3.1970   -1.6310   -1.6340 n2        1 5FR     -0.060000
     21 N14         2.9130   -1.2280    3.1510 n2        1 5FR     -0.211000
     22 N8          4.5820   -1.1680    4.8600 n3        1 5FR     -0.210000
     23 C57         3.9110   -0.6070    5.9010 c2        1 5FR      0.203000
     24 C56         2.4620   -0.2140    5.8330 c3        1 5FR     -0.196000
     25 C55         1.8390    0.3150    7.0290 c1        1 5FR     -0.076000
     26 C52         4.5930   -0.3990    7.1440 c2        1 5FR     -0.134000
     27 O53         5.9100   -0.8420    7.2290 os        1 5FR     -0.229000
     28 C54         6.8610    0.1890    7.5140 c3        1 5FR     -0.084000
     29 C51         3.9460    0.0850    8.2710 c2        1 5FR      0.100000
     30 C50         2.5740    0.4410    8.2180 c2        1 5FR     -0.317000
     31 C41         1.8630    0.9270    9.3420 c2        1 5FR      0.313000
     32 O40         2.4920    1.0090   10.4980 os        1 5FR     -0.138000
     33 N42         1.1580    3.5570   10.3630 n3        1 5FR     -0.387000
     34 C43         1.7540    3.0940   11.6020 c3        1 5FR     -0.050000
     35 C44         3.1770    3.6130   11.8400 c3        1 5FR     -0.172000
     36 C49         3.7600    3.0250   13.1210 c3        1 5FR     -0.077000
     37 N47         3.7790    1.5680   13.1090 n3        1 5FR     -0.261000
     38 C48         4.4330    1.0070   14.2720 c3        1 5FR     -0.125000
     39 C46         2.4630    0.9950   12.8860 c3        1 5FR     -0.076000
     40 C45         1.7500    1.5460   11.6450 c3        1 5FR      0.026000
     41 H126        0.6150   -2.3500   -1.7810 hc        1 5FR      0.122000
     42 H226        0.7940   -3.1690   -0.1690 hc        1 5FR      0.122000
     43 H326        0.2940   -1.4180   -0.2530 hc        1 5FR      0.122000
     44 H13         1.3380   -1.7830    1.9490 h4        1 5FR      0.194000
     45 H10         4.8970   -2.0750    3.0150 h5        1 5FR      0.179000
     46 H68         6.1820    0.6020   -0.2620 ha        1 5FR      0.186000
     47 H62         8.1780    0.8010   -1.8670 h1        1 5FR      0.214000
     48 H169        7.6880    1.6540   -4.2400 ha        1 5FR      0.194000
     49 H269        6.3680    0.8400   -6.2030 hc        1 5FR      0.125000
     50 H170        5.0730   -0.4010   -5.9630 hc        1 5FR      0.125000
     51 H270        8.1470   -0.8420   -5.8850 hc        1 5FR      0.129500
     52 H172        6.9780   -1.3510   -7.1740 hc        1 5FR      0.129500
     53 H272        7.1750   -4.5090   -5.3980 hn        1 5FR      0.249000
     54 H66         4.5240   -1.2970   -3.8480 ha        1 5FR      0.221000
     55 HN8         5.5430   -1.4240    5.0300 hn        1 5FR      0.287000
     56 H56         2.3140    0.5590    5.0140 hc        1 5FR      0.202500
     57 H55         1.8340   -1.1080    5.5180 hc        1 5FR      0.202500
     58 H154        6.6180    0.6910    8.4810 h1        1 5FR      0.096000
     59 H254        6.8880    0.9320    6.6820 h1        1 5FR      0.096000
     60 H354        7.8300   -0.3680    7.5900 h1        1 5FR      0.096000
     61 H51         4.5130    0.1920    9.2160 ha        1 5FR      0.181000
     62 HN42        0.7920    1.2080    9.2440 h4        1 5FR      0.209000
     63 H43         1.7160    4.2610    9.9250 hn        1 5FR      0.175000
     64 H144        1.1240    3.4030   12.4940 h1        1 5FR      0.110000
     65 H244        3.1610    4.7290   11.9380 hc        1 5FR      0.103000
     66 H149        3.8310    3.3490   10.9680 hc        1 5FR      0.103000
     67 H249        3.1820    3.4280   14.0040 h1        1 5FR      0.092500
     68 H148        4.8260    3.3770   13.2230 h1        1 5FR      0.092500
     69 H248        5.4750    1.4190   14.3280 h1        1 5FR      0.087333
     70 H348        4.4920   -0.1060   14.1550 h1        1 5FR      0.087333
     71 H146        3.9010    1.2410   15.2350 h1        1 5FR      0.087333
     72 H246        1.7580    1.1740   13.7530 h1        1 5FR      0.104500
     73 H145        2.5920   -0.1180   12.7620 h1        1 5FR      0.104500
     74 H245        0.7010    1.1430   11.6000 h1        1 5FR      0.119000
     75 H723        7.6330   -3.6780   -6.8160 hn        1 5FR      0.249000
     76 H422        0.2330    3.9070   10.5140 hn        1 5FR      0.175000
     77 CL          7.1080    2.8700   -1.6910 cl        1 5FR      0.029000
@<TRIPOS>BOND
     1    1    2 1   
     2    1   41 1   
     3    1   42 1   
     4    1   43 1   
     5    2    3 1   
     6    2   20 1   
     7    3    4 1   
     8    3    5 1   
     9    4   21 1   
    10    4   44 1   
    11    5    6 1   
    12    5   19 1   
    13    7   21 1   
    14    7   22 1   
    15    7   45 1   
    16    8    9 1   
    17    8   10 1   
    18    8   47 1   
    19    8   77 1   
    20    9   18 1   
    21    9   46 1   
    22   10   11 1   
    23   10   48 1   
    24   11   12 1   
    25   11   17 1   
    26   12   13 1   
    27   12   49 1   
    28   12   50 1   
    29   13   14 1   
    30   13   51 1   
    31   13   52 1   
    32   14   15 1   
    33   14   16 1   
    34   16   53 1   
    35   16   75 1   
    36   17   18 1   
    37   17   54 1   
    38   18   19 1   
    39   19   20 1   
    40   22   23 1   
    41   22   55 1   
    42   23   24 1   
    43   23   26 1   
    44   24   25 1   
    45   24   56 1   
    46   24   57 1   
    47   25   30 1   
    48   26   27 1   
    49   26   29 1   
    50   27   28 1   
    51   28   58 1   
    52   28   59 1   
    53   28   60 1   
    54   29   30 1   
    55   29   61 1   
    56   30   31 1   
    57   31   32 1   
    58   31   62 1   
    59   32   40 1   
    60   33   34 1   
    61   33   63 1   
    62   33   76 1   
    63   34   35 1   
    64   34   40 1   
    65   34   64 1   
    66   35   36 1   
    67   35   65 1   
    68   35   66 1   
    69   36   37 1   
    70   36   67 1   
    71   36   68 1   
    72   37   38 1   
    73   37   39 1   
    74   38   69 1   
    75   38   70 1   
    76   38   71 1   
    77   39   40 1   
    78   39   72 1   
    79   39   73 1   
    80   40   74 1   
@<TRIPOS>SUBSTRUCTURE
     1 5FR         1 TEMP              0 ****  ****    0 ROOT
