@<TRIPOS>MOLECULE
5FR
   78    79     1     0     0
SMALL
bcc


@<TRIPOS>ATOM
      1 C26        50.8560 -154.5660 -253.0130 c3        1 5FR     -0.171000
      2 C17        51.0590 -153.3220 -252.2480 c2        1 5FR     -0.038000
      3 C12        51.1540 -153.1730 -250.8370 c2        1 5FR     -0.131000
      4 C13        51.0440 -154.0470 -249.6880 c2        1 5FR      0.054000
      5 C11        51.3460 -151.7580 -250.5970 c2        1 5FR     -0.163000
      6 C10        51.4040 -151.2080 -249.3170 c1        1 5FR     -0.077000
      7 C9         51.5520 -152.2490 -248.2330 c3        1 5FR     -0.077000
      8 C61        50.1040 -148.1230 -250.9830 c2        1 5FR     -0.053000
      9 C68        51.2540 -148.8290 -251.0430 c2        1 5FR     -0.177000
     10 C62        51.6580 -147.0220 -252.4930 c1        1 5FR      0.298000
     11 C63        52.0930 -147.8430 -253.4850 c2        1 5FR     -0.389000
     12 C69        52.6810 -147.3540 -254.7060 c2        1 5FR      0.126000
     13 C70        52.7850 -146.0380 -255.0290 c2        1 5FR     -0.329000
     14 C71        53.3940 -145.6640 -256.2890 c2        1 5FR      0.306000
     15 O73        53.8830 -146.3570 -257.1710 o         1 5FR     -0.181000
     16 N72        53.4380 -144.1710 -256.5800 n4        1 5FR     -0.143000
     17 C66        51.9660 -149.2880 -253.3340 c2        1 5FR     -0.041000
     18 C67        51.5260 -149.7750 -252.1400 c2        1 5FR      0.004000
     19 N15        51.3410 -151.1630 -251.8820 na        1 5FR      0.044000
     20 N16        51.1910 -152.0700 -252.8340 n2        1 5FR     -0.004000
     21 N14        51.1700 -153.6390 -248.4650 n2        1 5FR     -0.191000
     22 N8         50.9120 -151.6810 -246.9710 n4        1 5FR      0.059000
     23 C57        51.3200 -152.3770 -245.7560 c2        1 5FR     -0.209000
     24 C56        50.3890 -153.4010 -245.1890 c3        1 5FR     -0.191000
     25 C55        50.7960 -154.0620 -243.9650 c1        1 5FR      0.005000
     26 C52        52.5330 -152.1240 -245.1550 c2        1 5FR      0.111000
     27 O53        53.3560 -151.2060 -245.7600 os        1 5FR     -0.243000
     28 C54        54.5500 -150.8260 -245.0620 c3        1 5FR     -0.080000
     29 C51        52.9060 -152.8210 -243.9390 c2        1 5FR     -0.035000
     30 C50        52.0750 -153.7550 -243.3970 c2        1 5FR     -0.195000
     31 C41        52.4570 -154.4960 -242.1620 c2        1 5FR      0.228000
     32 O40        53.5430 -154.3110 -241.6140 o         1 5FR     -0.257000
     33 N42      -127.0430  406.7620  694.1680 n3        1 5FR     -0.357000
     34 C43      -126.2770  407.7810  693.4820 c3        1 5FR     -0.007000
     35 C44      -124.9730  408.0650  694.2570 c3        1 5FR     -0.204000
     36 C49      -124.3040  409.3250  693.8550 c2        1 5FR      0.116000
     37 N47      -124.8500  410.2650  693.1220 n3        1 5FR     -0.078000
     38 C48      -124.1490  411.4880  692.7640 c3        1 5FR     -0.144000
     39 C46      -126.2160  410.1390  692.6000 c3        1 5FR     -0.083000
     40 C45      -127.0530  409.0970  693.3290 c3        1 5FR     -0.198000
     41 H126       50.7550 -155.4290 -252.3100 hc        1 5FR      0.120333
     42 H226       49.9300 -154.4990 -253.6390 hc        1 5FR      0.120333
     43 H326       51.7250 -154.7550 -253.6940 hc        1 5FR      0.120333
     44 H13        50.8300 -155.1270 -249.8480 h4        1 5FR      0.207000
     45 H10        52.6840 -152.2630 -248.0150 hx        1 5FR      0.206000
     46 H68        52.0220 -148.7860 -250.2480 ha        1 5FR      0.192000
     47 H62        49.2950 -148.2110 -251.7290 h4        1 5FR      0.175000
     48 H169       52.9250 -145.0230 -251.7610 ha        1 5FR      0.005500
     49 H269       53.0580 -148.1280 -255.4090 ha        1 5FR      0.174000
     50 H170       53.2010 -145.1360 -252.3710 ha        1 5FR      0.005500
     51 H270       52.4190 -145.2440 -254.3580 ha        1 5FR      0.173000
     52 H172       52.4870 -143.7900 -256.5970 hn        1 5FR      0.266667
     53 H272       53.8830 -144.0090 -257.4930 hn        1 5FR      0.266667
     54 H66        52.2220 -149.9250 -254.1970 ha        1 5FR      0.182000
     55 HN8        51.2060 -150.6920 -246.9270 hn        1 5FR      0.261500
     56 H56        49.3700 -152.9500 -244.9840 hc        1 5FR      0.190500
     57 H55        50.2200 -154.2390 -245.9400 hc        1 5FR      0.190500
     58 H154       55.2450 -151.6960 -244.9870 h1        1 5FR      0.114000
     59 H254       54.9780 -150.0290 -245.7250 h1        1 5FR      0.114000
     60 H354       54.3000 -150.4130 -244.0550 h1        1 5FR      0.114000
     61 H51        53.8780 -152.5880 -243.4640 ha        1 5FR      0.191000
     62 HN42       51.6900 -155.2100 -241.7940 h4        1 5FR      0.157000
     63 H43      -126.6890  405.8490  693.9710 hn        1 5FR      0.180500
     64 H144     -125.9720  407.4470  692.4400 h1        1 5FR      0.073000
     65 H244     -124.2490  407.2140  694.1160 hc        1 5FR      0.170500
     66 H149     -125.1810  408.1330  695.3680 hc        1 5FR      0.170500
     67 H249     -123.2610  409.4760  694.2250 h4        1 5FR      0.197000
     68 H148     -124.1990  411.6230  691.6490 h1        1 5FR      0.141333
     69 H248     -123.0740  411.4420  693.0860 h1        1 5FR      0.141333
     70 H348     -124.6520  412.3590  693.2680 h1        1 5FR      0.141333
     71 H146     -126.1280  409.8740  691.5050 h1        1 5FR      0.144500
     72 H246     -126.7130  411.1490  692.6840 h1        1 5FR      0.144500
     73 H145     -127.9870  408.9330  692.7270 hc        1 5FR      0.134500
     74 H245     -127.3660  409.4800  694.3370 hc        1 5FR      0.134500
     75 H723       53.9760 -143.6890 -255.8550 hn        1 5FR      0.266667
     76 H82        49.8910 -151.7280 -247.0530 hn        1 5FR      0.261500
     77 H422     -128.0160  406.8190  693.9520 hn        1 5FR      0.180500
     78 CL         49.7530 -147.0530 -249.7410 cl        1 5FR      0.066000
@<TRIPOS>BOND
     1    1    2 1   
     2    1   41 1   
     3    1   42 1   
     4    1   43 1   
     5    2    3 1   
     6    2   20 1   
     7    3    4 1   
     8    3    5 1   
     9    4   21 1   
    10    4   44 1   
    11    5    6 1   
    12    5   19 1   
    13    6    7 1   
    14    7   21 1   
    15    7   22 1   
    16    7   45 1   
    17    8    9 1   
    18    8   47 1   
    19    8   78 1   
    20    9   18 1   
    21    9   46 1   
    22   10   11 1   
    23   11   12 1   
    24   11   17 1   
    25   12   13 1   
    26   12   49 1   
    27   13   14 1   
    28   13   51 1   
    29   14   15 1   
    30   14   16 1   
    31   16   52 1   
    32   16   53 1   
    33   16   75 1   
    34   17   18 1   
    35   17   54 1   
    36   18   19 1   
    37   19   20 1   
    38   22   23 1   
    39   22   55 1   
    40   22   76 1   
    41   23   24 1   
    42   23   26 1   
    43   24   25 1   
    44   24   56 1   
    45   24   57 1   
    46   25   30 1   
    47   26   27 1   
    48   26   29 1   
    49   27   28 1   
    50   28   58 1   
    51   28   59 1   
    52   28   60 1   
    53   29   30 1   
    54   29   61 1   
    55   30   31 1   
    56   31   32 1   
    57   31   62 1   
    58   33   34 1   
    59   33   63 1   
    60   33   77 1   
    61   34   35 1   
    62   34   40 1   
    63   34   64 1   
    64   35   36 1   
    65   35   65 1   
    66   35   66 1   
    67   36   37 1   
    68   36   67 1   
    69   37   38 1   
    70   37   39 1   
    71   38   68 1   
    72   38   69 1   
    73   38   70 1   
    74   39   40 1   
    75   39   71 1   
    76   39   72 1   
    77   40   73 1   
    78   40   74 1   
    79   48   50 1   
@<TRIPOS>SUBSTRUCTURE
     1 5FR         1 TEMP              0 ****  ****    0 ROOT
