@<TRIPOS>MOLECULE
5FR
   77    81     1     0     0
SMALL
bcc


@<TRIPOS>ATOM
      1 C26         0.3250   -2.3300    3.2400 c3        1 5FR     -0.127400
      2 C17         1.6440   -1.8780    2.7570 cc        1 5FR      0.425900
      3 C12         2.6870   -1.2870    3.5940 ca        1 5FR     -0.329200
      4 C13         2.8420   -0.9690    4.9480 ca        1 5FR      0.523200
      5 C11         3.7850   -1.0230    2.6880 ca        1 5FR      0.010800
      6 C10         4.9790   -0.4770    3.1790 ca        1 5FR     -0.252300
      7 C9          5.0120   -0.1980    4.5710 ca        1 5FR      0.479800
      8 C61         5.5830   -0.1130   -1.3520 c3        1 5FR      0.084900
      9 C68         4.8620   -0.2550   -0.0620 c2        1 5FR     -0.198200
     10 C62         4.8690   -0.7980   -2.5240 c3        1 5FR      0.191300
     11 C63         4.1610   -2.0600   -2.1400 c2        1 5FR     -0.168400
     12 C69         3.8460   -3.0330   -3.2220 c3        1 5FR     -0.020000
     13 C70         4.5690   -2.7810   -4.4910 c2        1 5FR     -0.096200
     14 C71         5.5260   -1.8350   -4.5460 c2        1 5FR      0.074100
     15 O73         5.9410   -1.0630   -3.4770 os        1 5FR     -0.330900
     16 N72         6.3220   -1.4860   -5.7240 nz        1 5FR     -0.708400
     17 C66         3.7490   -2.2760   -0.8770 ce        1 5FR     -0.059000
     18 C67         4.0210   -1.2920    0.1790 ce        1 5FR      0.069900
     19 N15         3.3580   -1.4690    1.4230 na        1 5FR      0.138700
     20 N16         2.0840   -1.9570    1.4840 nd        1 5FR     -0.493100
     21 N14         3.9680   -0.4390    5.4320 nb        1 5FR     -0.720000
     22 N8          6.2170    0.3760    5.0780 nu        1 5FR     -0.321900
     23 C57         6.5520    0.6970    6.3410 ce        1 5FR      0.462600
     24 C56         5.6580    0.4760    7.5120 c3        1 5FR     -0.181500
     25 C55         6.1950    0.8440    8.8290 c2        1 5FR      0.014800
     26 C52         7.8590    1.2920    6.6000 ce        1 5FR     -0.102500
     27 O53         8.6320    1.4760    5.4630 os        1 5FR     -0.356900
     28 C54         9.8620    2.1810    5.6350 c3        1 5FR      0.113700
     29 C51         8.2710    1.6110    7.8680 cf        1 5FR     -0.003000
     30 C50         7.4310    1.3840    9.0010 cf        1 5FR     -0.236200
     31 C41         7.9270    1.7520   10.3490 c         1 5FR      0.574100
     32 O40         7.2490    1.5840   11.3600 o         1 5FR     -0.478100
     33 N42         3.8190    2.8780    9.0500 n8        1 5FR     -0.931800
     34 C43         2.5460    2.3210    8.6140 c3        1 5FR      0.212700
     35 C44         1.3120    3.1460    9.0280 c3        1 5FR     -0.134400
     36 C49         0.0260    2.4530    8.5870 c3        1 5FR      0.193800
     37 N47        -0.0720    1.0460    8.9400 nh        1 5FR     -0.656400
     38 C48        -1.2560    0.6590    9.6670 c3        1 5FR      0.179100
     39 C46         1.1150    0.3900    9.2530 c2        1 5FR      0.084000
     40 C45         2.3510    0.9070    9.0690 c2        1 5FR     -0.323200
     41 H126        0.0350   -1.7430    4.1460 hc        1 5FR      0.076033
     42 H226       -0.4660   -2.2030    2.4590 hc        1 5FR      0.076033
     43 H326        0.3760   -3.4160    3.5140 hc        1 5FR      0.076033
     44 H13         2.0320   -1.1430    5.6860 h4        1 5FR      0.065100
     45 H10         5.8390   -0.2930    2.5220 ha        1 5FR      0.163000
     46 H68         5.0760    0.5250    0.6870 ha        1 5FR      0.167000
     47 H62         6.6220   -0.5380   -1.2500 h1        1 5FR      0.111700
     48 H169        4.1380   -0.0980   -3.0260 h1        1 5FR      0.100700
     49 H269        4.0920   -4.0800   -2.8760 hc        1 5FR      0.111200
     50 H170        2.7360   -3.0140   -3.4330 hc        1 5FR      0.111200
     51 H270        4.2730   -3.3950   -5.3580 ha        1 5FR      0.177000
     52 H172        7.3080   -1.7200   -5.5430 hn        1 5FR      0.476133
     53 H272        6.2540   -0.4720   -5.8930 hn        1 5FR      0.476133
     54 H66         3.1890   -3.1910   -0.6130 ha        1 5FR      0.181000
     55 HN8         6.9030    0.5720    4.3630 hn        1 5FR      0.334700
     56 H56         4.6880    1.0700    7.3720 hc        1 5FR      0.181200
     57 H55         5.3310   -0.6120    7.5520 hc        1 5FR      0.181200
     58 H154        9.6790    3.1930    6.0710 h1        1 5FR      0.066700
     59 H254       10.5630    1.5870    6.2710 h1        1 5FR      0.066700
     60 H354       10.2520    2.2620    4.5870 h1        1 5FR      0.066700
     61 H51         9.2690    2.0560    8.0420 ha        1 5FR      0.178000
     62 HN42        8.9490    2.1870   10.3760 h4        1 5FR      0.027200
     63 H43         3.9320    2.7540   10.0390 hn        1 5FR      0.355800
     64 H144        2.5830    2.3220    7.4790 h1        1 5FR      0.041700
     65 H244        1.3480    4.1590    8.5520 hc        1 5FR      0.057700
     66 H149        1.3070    3.2880   10.1400 hc        1 5FR      0.057700
     67 H249       -0.0490    2.5080    7.4630 h1        1 5FR      0.053200
     68 H148       -0.8490    3.0190    9.0170 h1        1 5FR      0.053200
     69 H248       -1.2940    1.1080   10.6970 h1        1 5FR      0.047033
     70 H348       -1.2930   -0.4580    9.7600 h1        1 5FR      0.047033
     71 H146       -2.1550    1.0040    9.0910 h1        1 5FR      0.047033
     72 H246        0.9840   -0.6480    9.6160 h4        1 5FR      0.143000
     73 H145        3.2420    0.2940    9.2490 ha        1 5FR      0.120000
     74 H245        5.5220    0.6780    9.6940 ha        1 5FR      0.199000
     75 H723        5.9870   -2.0020   -6.5430 hn        1 5FR      0.476133
     76 H422        3.8400    3.8610    8.8530 hn        1 5FR      0.355800
     77 Cl          5.8150    1.5950   -1.7200 cl        1 5FR     -0.130400
@<TRIPOS>BOND
     1    1    2 1   
     2    1   41 1   
     3    1   42 1   
     4    1   43 1   
     5    2    3 1   
     6    2   20 2   
     7    3    4 ar  
     8    3    5 ar  
     9    4   21 ar  
    10    4   44 1   
    11    5    6 ar  
    12    5   19 1   
    13    6    7 ar  
    14    6   45 1   
    15    7   21 ar  
    16    7   22 1   
    17    8    9 1   
    18    8   10 1   
    19    8   47 1   
    20    8   77 1   
    21    9   18 2   
    22    9   46 1   
    23   10   11 1   
    24   10   15 1   
    25   10   48 1   
    26   11   12 1   
    27   11   17 2   
    28   12   13 1   
    29   12   49 1   
    30   12   50 1   
    31   13   14 2   
    32   13   51 1   
    33   14   15 1   
    34   14   16 1   
    35   16   52 1   
    36   16   53 1   
    37   16   75 1   
    38   17   18 1   
    39   17   54 1   
    40   18   19 1   
    41   19   20 1   
    42   22   23 2   
    43   22   55 1   
    44   23   24 1   
    45   23   26 1   
    46   24   25 1   
    47   24   56 1   
    48   24   57 1   
    49   25   30 2   
    50   25   74 1   
    51   26   27 1   
    52   26   29 2   
    53   27   28 1   
    54   28   58 1   
    55   28   59 1   
    56   28   60 1   
    57   29   30 1   
    58   29   61 1   
    59   30   31 1   
    60   31   32 2   
    61   31   62 1   
    62   33   34 1   
    63   33   63 1   
    64   33   76 1   
    65   34   35 1   
    66   34   40 1   
    67   34   64 1   
    68   35   36 1   
    69   35   65 1   
    70   35   66 1   
    71   36   37 1   
    72   36   67 1   
    73   36   68 1   
    74   37   38 1   
    75   37   39 1   
    76   38   69 1   
    77   38   70 1   
    78   38   71 1   
    79   39   40 2   
    80   39   72 1   
    81   40   73 1   
@<TRIPOS>SUBSTRUCTURE
     1 5FR         1 TEMP              0 ****  ****    0 ROOT
