@<TRIPOS>MOLECULE
5FR
   75    79     1     0     0
SMALL
bcc


@<TRIPOS>ATOM
      1 C26         2.7940    4.9780    0.5450 c3        1 5FR     -0.109400
      2 C17         2.9610    3.5130    0.5940 cc        1 5FR      0.391900
      3 C12         1.8670    2.5490    0.6320 ca        1 5FR     -0.377200
      4 C13         0.4670    2.5770    0.6070 ca        1 5FR      0.505200
      5 C11         2.5180    1.2590    0.6890 ca        1 5FR      0.027800
      6 C10         1.7580    0.0880    0.6990 ca        1 5FR     -0.316300
      7 C9          0.3420    0.2420    0.6830 ca        1 5FR      0.665200
      8 C61         5.7680   -1.5070    1.7520 ca        1 5FR      0.032400
      9 C68         4.7470   -0.5620    1.6460 ca        1 5FR     -0.152000
     10 C62         6.9780   -1.3500    1.0720 ca        1 5FR     -0.128000
     11 C63         7.1730   -0.2230    0.2680 ca        1 5FR     -0.059300
     12 C69         8.4660   -0.0290   -0.4440 c3        1 5FR     -0.034100
     13 C70         8.3120   -0.2460   -1.9370 c3        1 5FR     -0.148400
     14 C71         9.6390   -0.0580   -2.6460 c         1 5FR      0.655100
     15 O73        10.7130    0.1030   -2.0300 o         1 5FR     -0.612100
     16 N72         9.6370   -0.0810   -4.0200 n         1 5FR     -0.680000
     17 C66         6.1610    0.7320    0.1380 ca        1 5FR     -0.125000
     18 C67         4.9380    0.5630    0.8180 ca        1 5FR      0.049800
     19 N15         3.9020    1.5240    0.6710 na        1 5FR      0.146800
     20 N16         4.1440    2.8620    0.6240 nd        1 5FR     -0.507100
     21 N14        -0.2830    1.4760    0.6310 nb        1 5FR     -0.728000
     22 N8         -0.4300   -0.9340    0.7860 nh        1 5FR     -0.701300
     23 C57        -1.8250   -0.9390    0.5600 ca        1 5FR      0.130600
     24 C56        -2.6940   -0.1510    1.3370 ca        1 5FR     -0.097000
     25 C55        -4.0740   -0.2130    1.1570 ca        1 5FR     -0.123000
     26 C52        -2.4090   -1.8200   -0.4000 ca        1 5FR      0.077100
     27 O53        -1.5180   -2.5790   -1.1420 os        1 5FR     -0.346900
     28 C54        -2.0830   -3.6360   -1.9110 c3        1 5FR      0.116700
     29 C51        -3.7920   -1.8860   -0.5660 ca        1 5FR     -0.138000
     30 C50        -4.6260   -1.0700    0.2060 ca        1 5FR     -0.123600
     31 C41        -6.0980   -1.1830   -0.0150 c         1 5FR      0.676700
     32 O40        -6.6280   -2.2760   -0.3030 o         1 5FR     -0.612100
     33 N42        -6.8430   -0.0280    0.0990 n         1 5FR     -0.566900
     34 C43        -8.2710    0.0100   -0.1140 c3        1 5FR      0.098700
     35 C44        -8.6640    0.8780   -1.3210 c3        1 5FR     -0.092900
     36 C49       -10.1770    0.8500   -1.5180 c3        1 5FR      0.170300
     37 N47       -10.9210    1.2570   -0.3340 n3        1 5FR     -0.734600
     38 C48       -12.3500    1.2390   -0.5510 c3        1 5FR      0.158100
     39 C46       -10.5320    0.5140    0.8570 c3        1 5FR      0.170300
     40 C45        -9.0290    0.5340    1.1180 c3        1 5FR     -0.092900
     41 H126        2.8350    5.3980    1.5830 hc        1 5FR      0.057033
     42 H226        3.5960    5.4640   -0.0640 hc        1 5FR      0.057033
     43 H326        1.8000    5.2260    0.0970 hc        1 5FR      0.057033
     44 H13        -0.0850    3.5340    0.5560 h4        1 5FR      0.028100
     45 H10         2.2290   -0.9030    0.7120 ha        1 5FR      0.157000
     46 H68         3.8120   -0.6930    2.2140 ha        1 5FR      0.162000
     47 H62         7.7750   -2.1020    1.1730 ha        1 5FR      0.155000
     48 H169        8.8480    1.0120   -0.2590 hc        1 5FR      0.074200
     49 H269        9.2470   -0.7330   -0.0480 hc        1 5FR      0.074200
     50 H170        7.9420   -1.2870   -2.1360 hc        1 5FR      0.066200
     51 H270        7.5540    0.4720   -2.3480 hc        1 5FR      0.066200
     52 H172        8.8010   -0.2000   -4.5280 hn        1 5FR      0.311500
     53 H272       10.4860    0.0360   -4.5130 hn        1 5FR      0.311500
     54 H66         6.3360    1.6190   -0.4910 ha        1 5FR      0.159000
     55 HN8         0.0330   -1.7360    0.4010 hn        1 5FR      0.433800
     56 H56        -2.2850    0.5290    2.1020 ha        1 5FR      0.159000
     57 H55        -4.7180    0.4100    1.7970 ha        1 5FR      0.139000
     58 H154       -2.7000   -4.3110   -1.2710 h1        1 5FR      0.049033
     59 H254       -2.6940   -3.2210   -2.7490 h1        1 5FR      0.049033
     60 H354       -1.1850   -4.1750   -2.3090 h1        1 5FR      0.049033
     61 H51        -4.2490   -2.5770   -1.2920 ha        1 5FR      0.162000
     62 HN42       -6.3850    0.8340    0.2720 hn        1 5FR      0.311500
     63 H43        -8.6140   -1.0510   -0.3150 h1        1 5FR      0.089700
     64 H144       -8.3180    1.9330   -1.1660 hc        1 5FR      0.052200
     65 H244       -8.1800    0.4880   -2.2530 hc        1 5FR      0.052200
     66 H149      -10.4430    1.5670   -2.3460 h1        1 5FR      0.033700
     67 H249      -10.4740   -0.1870   -1.8580 h1        1 5FR      0.033700
     68 H148      -12.7580    0.2110   -0.7570 h1        1 5FR      0.032033
     69 H248      -12.8580    1.6470    0.3620 h1        1 5FR      0.032033
     70 H348      -12.5910    1.9000   -1.4240 h1        1 5FR      0.032033
     71 H146      -11.0540    0.9890    1.7350 h1        1 5FR      0.033700
     72 H246      -10.8710   -0.5640    0.8010 h1        1 5FR      0.033700
     73 H145       -8.8180   -0.1140    2.0070 hc        1 5FR      0.052200
     74 H245       -8.6970    1.5760    1.3600 hc        1 5FR      0.052200
     75 CL          5.5320   -2.8720    2.7390 cl        1 5FR     -0.085400
@<TRIPOS>BOND
     1    1    2 1   
     2    1   41 1   
     3    1   42 1   
     4    1   43 1   
     5    2    3 1   
     6    2   20 2   
     7    3    4 ar  
     8    3    5 ar  
     9    4   21 ar  
    10    4   44 1   
    11    5    6 ar  
    12    5   19 1   
    13    6    7 ar  
    14    6   45 1   
    15    7   21 ar  
    16    7   22 1   
    17    8    9 ar  
    18    8   10 ar  
    19    8   75 1   
    20    9   18 ar  
    21    9   46 1   
    22   10   11 ar  
    23   10   47 1   
    24   11   12 1   
    25   11   17 ar  
    26   12   13 1   
    27   12   48 1   
    28   12   49 1   
    29   13   14 1   
    30   13   50 1   
    31   13   51 1   
    32   14   15 2   
    33   14   16 1   
    34   16   52 1   
    35   16   53 1   
    36   17   18 ar  
    37   17   54 1   
    38   18   19 1   
    39   19   20 1   
    40   22   23 1   
    41   22   55 1   
    42   23   24 ar  
    43   23   26 ar  
    44   24   25 ar  
    45   24   56 1   
    46   25   30 ar  
    47   25   57 1   
    48   26   27 1   
    49   26   29 ar  
    50   27   28 1   
    51   28   58 1   
    52   28   59 1   
    53   28   60 1   
    54   29   30 ar  
    55   29   61 1   
    56   30   31 1   
    57   31   32 2   
    58   31   33 1   
    59   33   34 1   
    60   33   62 1   
    61   34   35 1   
    62   34   40 1   
    63   34   63 1   
    64   35   36 1   
    65   35   64 1   
    66   35   65 1   
    67   36   37 1   
    68   36   66 1   
    69   36   67 1   
    70   37   38 1   
    71   37   39 1   
    72   38   68 1   
    73   38   69 1   
    74   38   70 1   
    75   39   40 1   
    76   39   71 1   
    77   39   72 1   
    78   40   73 1   
    79   40   74 1   
@<TRIPOS>SUBSTRUCTURE
     1 5FR         1 TEMP              0 ****  ****    0 ROOT
