@<TRIPOS>MOLECULE
5FR
   75    70     1     0     0
SMALL
bcc


@<TRIPOS>ATOM
      1 C26        -4.6160   -0.5440   -4.0510 c3        1 5FR     -0.153000
      2 C17        -3.0670   -0.5440   -4.0170 c2        1 5FR     -0.054000
      3 C12        -2.2010   -0.5300   -2.9270 c1        1 5FR     -0.227000
      4 C13        -2.4340   -0.5530   -1.5320 c1        1 5FR      0.040000
      5 C11        -0.9290   -0.4880   -3.4050 c1        1 5FR      0.072000
      6 C10         0.1500   -0.4690   -2.5130 c1        1 5FR     -0.251000
      7 C9         -0.0820   -0.4910   -1.1340 c1        1 5FR      0.142000
      8 CL          2.5440    2.5980   -6.8220 cl        1 5FR     -0.008000
      9 C61         1.4930    1.2020   -6.8840 c2        1 5FR     -0.046000
     10 C68         0.6530    0.9160   -5.8110 c2        1 5FR     -0.152000
     11 C62         1.4630    0.4130   -8.0140 c1        1 5FR     -0.132000
     12 C63         0.5930   -0.6700   -8.0830 c1        1 5FR     -0.052000
     13 C69         0.5270   -1.5210   -9.3610 c3        1 5FR     -0.121000
     14 C70         1.8860   -2.1170   -9.6430 c3        1 5FR     -0.177000
     15 C71         1.8890   -2.7500  -11.0930 c2        1 5FR      0.299000
     16 O73         0.8450   -2.8960  -11.6920 o         1 5FR     -0.373000
     17 N72         3.1520   -3.1220  -11.7270 n         1 5FR     -0.440000
     18 C66        -0.2430   -0.9550   -7.0180 c1        1 5FR     -0.121000
     19 C67        -0.2110   -0.1580   -5.8780 c1        1 5FR      0.095000
     20 N15        -0.9930   -0.4750   -4.7940 n1        1 5FR     -0.123000
     21 N16        -2.3140   -0.5100   -5.1570 n2        1 5FR     -0.040000
     22 N14        -1.3690   -0.5330   -0.6540 n1        1 5FR     -0.200000
     23 N8          1.0630   -0.3480   -0.2250 n3        1 5FR     -0.222000
     24 C57         0.8510   -0.2580    1.1730 c2        1 5FR      0.049000
     25 C56         0.5910    0.9820    1.7610 c2        1 5FR     -0.097000
     26 C55         0.4550    1.0830    3.1340 c1        1 5FR     -0.123000
     27 C52         0.9730   -1.3910    1.9710 c1        1 5FR      0.034000
     28 O53         1.1600   -2.6600    1.3740 os        1 5FR     -0.230000
     29 C54         2.3090   -3.3820    1.8760 c3        1 5FR     -0.072000
     30 C51         0.8350   -1.2860    3.3520 c1        1 5FR     -0.140000
     31 C50         0.5770   -0.0510    3.9330 c1        1 5FR     -0.102000
     32 C41         0.3730    0.0540    5.4430 c2        1 5FR      0.350000
     33 O40         0.4780   -0.9190    6.1250 o         1 5FR     -0.373000
     34 N42        -0.0580    1.3210    6.0370 n         1 5FR     -0.377000
     35 C43        -0.3670    1.3930    7.4950 c3        1 5FR      0.022000
     36 C44        -1.6750    2.0700    7.6830 c3        1 5FR     -0.171500
     37 C49        -1.9800    2.3500    9.1670 c3        1 5FR     -0.066500
     38 N47        -0.8720    3.0570    9.8510 n3        1 5FR     -0.260000
     39 C48        -1.1790    3.1570   11.3260 c3        1 5FR     -0.118000
     40 C46         0.4300    2.3900    9.6660 c3        1 5FR     -0.066500
     41 C45         0.7450    2.1080    8.1850 c3        1 5FR     -0.171500
     42 H126       -4.9610   -1.3860   -3.6230 hc        1 5FR      0.096333
     43 H226       -4.9230   -0.5010   -4.9870 hc        1 5FR      0.096333
     44 H326       -4.9560    0.2400   -3.5560 hc        1 5FR      0.096333
     45 H13        -3.3650   -0.5820   -1.1830 ha        1 5FR      0.166000
     46 H10         1.0640   -0.4370   -2.8550 ha        1 5FR      0.156000
     47 H68         0.6750    1.4650   -5.0260 ha        1 5FR      0.162000
     48 H62         2.0080    0.6510   -8.7910 ha        1 5FR      0.153000
     49 H169        0.2610   -0.9670  -10.1020 hc        1 5FR      0.113500
     50 H269       -0.1120   -2.2250   -9.2430 hc        1 5FR      0.113500
     51 H170        2.5580   -1.4250   -9.5900 hc        1 5FR      0.105500
     52 H270        2.0820   -2.8110   -8.9840 hc        1 5FR      0.105500
     53 H172        3.1530   -3.4810  -12.5950 hn        1 5FR      0.225000
     54 H272        3.9400   -2.9670  -11.2980 hn        1 5FR      0.225000
     55 H66        -0.8570   -1.7180   -7.0670 ha        1 5FR      0.161000
     56 HN8         1.9000   -0.2760   -0.5600 hn        1 5FR      0.228000
     57 H56         0.5050    1.7810    1.2020 ha        1 5FR      0.159000
     58 H55         0.2740    1.9500    3.5430 ha        1 5FR      0.138000
     59 H154        2.1280   -3.6890    2.7900 h1        1 5FR      0.088333
     60 H254        3.0970   -2.7860    1.8790 h1        1 5FR      0.088333
     61 H354        2.4840   -4.1500    1.3040 h1        1 5FR      0.088333
     62 H51         0.9220   -2.0920    3.9220 ha        1 5FR      0.162000
     63 HN42       -0.2020    2.0330    5.5150 hn        1 5FR      0.225000
     64 H43        -0.4300    0.4850    7.8510 h1        1 5FR      0.130000
     65 H144       -2.3710    1.5120    7.3210 hc        1 5FR      0.091500
     66 H244       -1.6650    2.9300    7.1920 hc        1 5FR      0.091500
     67 H149       -2.8090    2.9080    9.2270 h1        1 5FR      0.072750
     68 H249       -2.1370    1.5020    9.6220 h1        1 5FR      0.072750
     69 H148       -1.4370    2.2740   11.6670 h1        1 5FR      0.071333
     70 H248       -1.9010    3.7780   11.4630 h1        1 5FR      0.071333
     71 H348       -0.4020    3.4630   11.7920 h1        1 5FR      0.071333
     72 H146        1.1500    2.9760   10.0450 h1        1 5FR      0.072750
     73 H246        0.4230    1.5380   10.1570 h1        1 5FR      0.072750
     74 H145        0.9080    2.9710    7.7200 hc        1 5FR      0.091500
     75 H245        1.5480    1.5650    8.1320 hc        1 5FR      0.091500
@<TRIPOS>BOND
     1    1    2 1   
     2    1   42 1   
     3    1   43 1   
     4    1   44 1   
     5    2    3 1   
     6    2   21 1   
     7    3    4 1   
     8    4   45 1   
     9    5    6 1   
    10    6   46 1   
    11    7   22 1   
    12    7   23 1   
    13    8    9 1   
    14    9   10 1   
    15    9   11 1   
    16   10   19 1   
    17   10   47 1   
    18   11   48 1   
    19   12   13 1   
    20   12   18 1   
    21   13   14 1   
    22   13   49 1   
    23   13   50 1   
    24   14   15 1   
    25   14   51 1   
    26   14   52 1   
    27   15   16 1   
    28   15   17 1   
    29   17   53 1   
    30   17   54 1   
    31   18   55 1   
    32   20   21 1   
    33   23   24 1   
    34   23   56 1   
    35   24   25 1   
    36   24   27 1   
    37   25   26 1   
    38   25   57 1   
    39   26   58 1   
    40   27   28 1   
    41   28   29 1   
    42   29   59 1   
    43   29   60 1   
    44   29   61 1   
    45   30   31 1   
    46   30   62 1   
    47   31   32 1   
    48   32   33 1   
    49   32   34 1   
    50   34   35 1   
    51   34   63 1   
    52   35   36 1   
    53   35   41 1   
    54   35   64 1   
    55   36   37 1   
    56   36   65 1   
    57   36   66 1   
    58   37   38 1   
    59   37   67 1   
    60   37   68 1   
    61   38   39 1   
    62   38   40 1   
    63   39   69 1   
    64   39   70 1   
    65   39   71 1   
    66   40   41 1   
    67   40   72 1   
    68   40   73 1   
    69   41   74 1   
    70   41   75 1   
@<TRIPOS>SUBSTRUCTURE
     1 5FR         1 TEMP              0 ****  ****    0 ROOT
