@<TRIPOS>MOLECULE
5FU
   32    33     1     0     0
SMALL
bcc


@<TRIPOS>ATOM
      1 F5         -1.7500    4.5890   -2.2040 f         1 5FU     -0.190500
      2 C5         -1.3640    4.0960   -0.9940 ce        1 5FU     -0.292800
      3 C4         -2.1180    4.5460    0.1640 c         1 5FU      0.648300
      4 O4         -3.0740    5.3600    0.2050 o         1 5FU     -0.701100
      5 N3         -1.7160    3.9860    1.4020 n         1 5FU     -0.584500
      6 C2         -0.6620    3.0750    1.5140 c         1 5FU      0.702100
      7 O2         -0.4070    2.5780    2.6520 o         1 5FU     -0.736100
      8 C6         -0.2950    3.2020   -0.9000 c1        1 5FU     -0.036900
      9 N1          0.0540    2.7280    0.3360 n         1 5FU     -0.323400
     10 C1'         1.2160    1.8770    0.5580 c3        1 5FU      0.302500
     11 O4'         2.2700    2.0870   -0.3880 os        1 5FU     -0.399600
     12 C2'         0.8920    0.3470    0.5790 c3        1 5FU      0.069100
     13 O2'         0.8150   -0.1180    1.9140 oh        1 5FU     -0.619800
     14 C3'         2.1000   -0.3120   -0.1160 c3        1 5FU      0.111100
     15 O3'         3.0220   -0.8500    0.8110 oh        1 5FU     -0.588800
     16 C4'         2.7290    0.8340   -0.9340 c3        1 5FU      0.084100
     17 C5'         2.3920    0.7690   -2.4320 c3        1 5FU      0.180400
     18 O5'         3.4770    0.2470   -3.1380 os        1 5FU     -0.586200
     19 P           3.2730   -1.2100   -3.8800 p5        1 5FU      1.427800
     20 O1P         4.5980   -1.6460   -4.3710 o         1 5FU     -0.843500
     21 O2P         2.5390   -0.6750   -5.2420 oh        1 5FU     -0.779400
     22 O3P         2.3170   -2.0000   -3.0760 o         1 5FU     -0.843500
     23 HO'2        0.2400    0.5040    2.3880 ho        1 5FU      0.429000
     24 H2'        -0.0570    0.1090    0.0340 h1        1 5FU      0.073700
     25 H1'         1.6560    2.1690    1.5650 h2        1 5FU      0.055700
     26 H4'         3.8450    0.8500   -0.8000 h1        1 5FU      0.074700
     27 H5'1        2.2050    1.8200   -2.7920 h1        1 5FU      0.053700
     28 H5'2        1.4740    0.1420   -2.6050 h1        1 5FU      0.053700
     29 H3'         1.8100   -1.1810   -0.7730 h1        1 5FU      0.146700
     30 H3T         3.0890   -0.2240    1.5420 ho        1 5FU      0.391000
     31 H6          3.1740   -0.4330   -5.9050 ho        1 5FU      0.418000
     32 H3         -2.2090    4.2230    2.2310 hn        1 5FU      0.305500
@<TRIPOS>BOND
     1    1    2 1   
     2    2    3 1   
     3    2    8 2   
     4    3    4 2   
     5    3    5 1   
     6    5    6 1   
     7    5   32 1   
     8    6    7 2   
     9    6    9 1   
    10    8    9 2   
    11    9   10 1   
    12   10   11 1   
    13   10   12 1   
    14   10   25 1   
    15   11   16 1   
    16   12   13 1   
    17   12   14 1   
    18   12   24 1   
    19   13   23 1   
    20   14   15 1   
    21   14   16 1   
    22   14   29 1   
    23   15   30 1   
    24   16   17 1   
    25   16   26 1   
    26   17   18 1   
    27   17   27 1   
    28   17   28 1   
    29   18   19 1   
    30   19   20 1   
    31   19   21 1   
    32   19   22 1   
    33   21   31 1   
@<TRIPOS>SUBSTRUCTURE
     1 5FU         1 TEMP              0 ****  ****    0 ROOT
