@<TRIPOS>MOLECULE
5FU
   32    32     1     0     0
SMALL
bcc


@<TRIPOS>ATOM
      1 F5          3.9550    1.5590    0.5270 f         1 5FU     -0.077000
      2 C5          2.8560    1.6380    1.2390 c2        1 5FU     -0.131000
      3 C4          2.0610    2.9590    1.0330 c2        1 5FU      0.344000
      4 O4          1.1130    3.0860    1.7960 o         1 5FU     -0.372000
      5 N3          1.6840    3.1650   -0.1830 n         1 5FU     -0.373000
      6 C2          1.2670    1.9420   -0.9290 c2        1 5FU      0.393000
      7 O2          0.4920    2.0410   -1.8920 o         1 5FU     -0.389000
      8 C6          2.1420    0.6040    1.0630 c1        1 5FU      0.051000
      9 N1          1.3960    0.5760   -0.1610 n2        1 5FU     -0.249000
     10 C1'         1.2270   -0.6900   -0.8840 c3        1 5FU      0.119000
     11 O4'         0.2130   -0.6290   -1.6560 os        1 5FU     -0.290000
     12 C2'         0.9150   -1.8450    0.1150 c3        1 5FU     -0.010000
     13 O2'         1.6940   -2.9480   -0.1690 oh        1 5FU     -0.341000
     14 C3'        -0.5320   -2.1680   -0.0830 c3        1 5FU      0.017000
     15 O3'        -0.6840   -3.4920   -0.8080 oh        1 5FU     -0.410000
     16 C4'        -1.0050   -1.1760   -0.8260 c3        1 5FU     -0.063000
     17 C5'        -1.5770   -0.0700    0.0710 c3        1 5FU      0.080000
     18 O5'        -2.5140    0.7110   -0.6650 os        1 5FU     -0.714000
     19 P          -3.8790    1.0260   -0.0030 p5        1 5FU      1.568500
     20 O1P        -4.6860   -0.2350    0.1050 o         1 5FU     -0.928167
     21 O2P        -4.6310    2.0310   -0.8440 o         1 5FU     -0.928167
     22 O3P        -3.6470    1.5930    1.3760 o         1 5FU     -0.928167
     23 HO'2        2.1380   -3.1830    0.5450 ho        1 5FU      0.231000
     24 H2'         1.0770   -1.5390    1.0580 h1        1 5FU      0.103000
     25 H1'         2.0300   -0.8960   -1.3960 h2        1 5FU      0.144000
     26 H4'        -1.7120   -1.5170   -1.4400 h1        1 5FU      0.122000
     27 H5'1       -2.0430   -0.4920    0.8660 h1        1 5FU      0.037500
     28 H5'2       -0.8330    0.5180    0.3920 h1        1 5FU      0.037500
     29 H3'        -0.9860   -2.1960    0.7630 h1        1 5FU      0.158000
     30 H3T        -1.0380   -4.0950   -0.2530 ho        1 5FU      0.316000
     31 H6          2.2770   -0.2170    1.6070 ha        1 5FU      0.236000
     32 H3          1.2300    3.9400   -0.3640 hn        1 5FU      0.249000
@<TRIPOS>BOND
     1    1    2 1   
     2    2    3 1   
     3    2    8 1   
     4    3    4 1   
     5    3    5 1   
     6    5    6 1   
     7    5   32 1   
     8    6    7 1   
     9    6    9 1   
    10    8   31 1   
    11    9   10 1   
    12   10   11 1   
    13   10   12 1   
    14   10   25 1   
    15   11   16 1   
    16   12   13 1   
    17   12   14 1   
    18   12   24 1   
    19   13   23 1   
    20   14   15 1   
    21   14   16 1   
    22   14   29 1   
    23   15   30 1   
    24   16   17 1   
    25   16   26 1   
    26   17   18 1   
    27   17   27 1   
    28   17   28 1   
    29   18   19 1   
    30   19   20 1   
    31   19   21 1   
    32   19   22 1   
@<TRIPOS>SUBSTRUCTURE
     1 5FU         1 TEMP              0 ****  ****    0 ROOT
