@<TRIPOS>MOLECULE
5FW
   32    30     1     0     0
SMALL
bcc


@<TRIPOS>ATOM
      1 CAI        -4.0120   -0.0510    1.7290 c3        1 5FW     -0.212000
      2 CAG        -2.4310   -0.0290    2.0100 c3        1 5FW     -0.022000
      3 CAJ        -2.1460    0.8810    3.1610 c3        1 5FW     -0.212000
      4 NAD        -1.7220    0.4490    0.8080 n3        1 5FW     -0.301000
      5 CAF        -0.6900   -0.5000    0.4510 c3        1 5FW     -0.064000
      6 CAE        -0.3890   -0.3910   -1.0990 c3        1 5FW      0.065000
      7 OAA        -0.8690   -1.5060   -1.7460 oh        1 5FW     -0.331000
      8 CAH         1.1150   -0.2880   -1.3170 c2        1 5FW     -0.124000
      9 CAK         1.6590    0.8740   -1.6640 c2        1 5FW     -0.159000
     10 CAL         1.9130   -1.3940   -1.1120 c1        1 5FW     -0.113000
     11 CAN         3.2340   -1.3050   -1.2600 c1        1 5FW     -0.135000
     12 CAO         3.8040   -0.1120   -1.6170 c1        1 5FW      0.072000
     13 OAC         5.1650   -0.0100   -1.7350 o         1 5FW     -0.247000
     14 CAM         3.0190    0.9770   -1.8190 c2        1 5FW     -0.007000
     15 OAB         3.6150    2.2600   -2.1320 oh        1 5FW     -0.271000
     16 HAI1       -4.2110   -0.6550    0.8940 hc        1 5FW      0.077500
     17 HAI2       -4.4260   -0.3750    2.4290 hc        1 5FW      0.077500
     18 HAI3       -4.3380    0.8810    1.5520 hc        1 5FW      0.077500
     19 HAG        -2.1330   -0.9050    2.2210 h1        1 5FW      0.057000
     20 HAJ1       -2.0540    1.7810    2.8410 hc        1 5FW      0.077500
     21 HAJ2       -1.2740    0.5880    3.6210 hc        1 5FW      0.077500
     22 HAJ3       -2.9610    0.8340    3.8730 hc        1 5FW      0.077500
     23 HAD        -2.3160    0.5250    0.1140 hn        1 5FW      0.166000
     24 HAF1       -1.0160   -1.4730    0.6840 h1        1 5FW      0.081500
     25 HAF2        0.0900   -0.3090    0.9320 h1        1 5FW      0.081500
     26 HAE        -0.8170    0.3900   -1.4500 h1        1 5FW      0.093000
     27 HAA        -1.0430   -1.3000   -2.6190 ho        1 5FW      0.206000
     28 HAK         1.0970    1.6460   -1.8080 ha        1 5FW      0.140000
     29 HAL         1.5380   -2.1820   -0.8780 ha        1 5FW      0.150000
     30 HAN         3.7930   -2.0910   -1.1140 ha        1 5FW      0.156000
     31 HAC         5.3800   -0.1000   -2.5310 ho        1 5FW      0.237000
     32 HAB         3.4230    2.8870   -1.4180 ho        1 5FW      0.229000
@<TRIPOS>BOND
     1    1    2 1   
     2    1   16 1   
     3    1   17 1   
     4    1   18 1   
     5    2    3 1   
     6    2    4 1   
     7    2   19 1   
     8    3   20 1   
     9    3   21 1   
    10    3   22 1   
    11    4    5 1   
    12    4   23 1   
    13    5    6 1   
    14    5   24 1   
    15    5   25 1   
    16    6    7 1   
    17    6    8 1   
    18    6   26 1   
    19    7   27 1   
    20    8    9 1   
    21    8   10 1   
    22    9   14 1   
    23    9   28 1   
    24   10   29 1   
    25   11   12 1   
    26   11   30 1   
    27   12   14 1   
    28   13   31 1   
    29   14   15 1   
    30   15   32 1   
@<TRIPOS>SUBSTRUCTURE
     1 5FW         1 TEMP              0 ****  ****    0 ROOT
