@<TRIPOS>MOLECULE
5FW
   33    33     1     0     0
SMALL
bcc


@<TRIPOS>ATOM
      1 CAI        -0.0670   -0.0490    0.2130 c3        1 5FW     -0.133100
      2 CAG         1.4470   -0.0130    0.0480 c3        1 5FW      0.132500
      3 CAJ         2.1210    0.0990    1.4080 c3        1 5FW     -0.133100
      4 NAD         1.9270   -1.2300   -0.7090 n4        1 5FW     -0.763000
      5 CAF         3.2440   -1.0190   -1.3720 c3        1 5FW      0.096800
      6 CAE         3.7560   -2.3030   -2.0700 c3        1 5FW      0.193400
      7 OAA         3.6760   -3.3340   -1.0950 oh        1 5FW     -0.637800
      8 CAH         5.1390   -2.0530   -2.5780 ca        1 5FW     -0.176300
      9 CAK         5.3130   -1.6910   -3.9180 ca        1 5FW     -0.120000
     10 CAL         6.2420   -2.1900   -1.7300 ca        1 5FW     -0.115000
     11 CAN         7.5320   -1.9680   -2.2090 ca        1 5FW     -0.166000
     12 CAO         7.7180   -1.6000   -3.5440 ca        1 5FW      0.082100
     13 OAC         8.9440   -1.3530   -4.1090 oh        1 5FW     -0.498100
     14 CAM         6.6030   -1.4590   -4.4080 ca        1 5FW      0.126100
     15 OAB         6.7160   -1.0930   -5.7220 oh        1 5FW     -0.480100
     16 HAI1       -0.3850    0.8920    0.7290 hc        1 5FW      0.078200
     17 HAI2       -0.5900   -0.0950   -0.7730 hc        1 5FW      0.078200
     18 HAI3       -0.3900   -0.9150    0.8410 hc        1 5FW      0.078200
     19 HAG         1.7280    0.8830   -0.5840 hx        1 5FW      0.104700
     20 HAJ1        1.7630    1.0400    1.8990 hc        1 5FW      0.078200
     21 HAJ2        1.8540   -0.7620    2.0690 hc        1 5FW      0.078200
     22 HAJ3        3.2320    0.1570    1.3160 hc        1 5FW      0.078200
     23 HAD         2.0180   -2.0250   -0.0600 hn        1 5FW      0.456800
     24 HAF1        3.1440   -0.2010   -2.1390 hx        1 5FW      0.112700
     25 HAF2        3.9860   -0.7050   -0.5840 hx        1 5FW      0.112700
     26 HAE         3.0670   -2.5750   -2.9230 h1        1 5FW      0.067700
     27 HAA         4.3280   -4.0120   -1.3200 ho        1 5FW      0.457000
     28 HAK         4.4590   -1.5930   -4.6050 ha        1 5FW      0.158000
     29 HAL         6.0950   -2.4810   -0.6790 ha        1 5FW      0.142000
     30 HAN         8.3990   -2.0830   -1.5420 ha        1 5FW      0.156000
     31 HAC         9.6300   -1.5300   -3.4470 ho        1 5FW      0.446000
     32 HAB         7.6600   -1.0100   -5.9390 ho        1 5FW      0.454000
     33 HAD2        1.2300   -1.4830   -1.4170 hn        1 5FW      0.456800
@<TRIPOS>BOND
     1    1    2 1   
     2    1   16 1   
     3    1   17 1   
     4    1   18 1   
     5    2    3 1   
     6    2    4 1   
     7    2   19 1   
     8    3   20 1   
     9    3   21 1   
    10    3   22 1   
    11    4    5 1   
    12    4   23 1   
    13    4   33 1   
    14    5    6 1   
    15    5   24 1   
    16    5   25 1   
    17    6    7 1   
    18    6    8 1   
    19    6   26 1   
    20    7   27 1   
    21    8    9 ar  
    22    8   10 ar  
    23    9   14 ar  
    24    9   28 1   
    25   10   11 ar  
    26   10   29 1   
    27   11   12 ar  
    28   11   30 1   
    29   12   13 1   
    30   12   14 ar  
    31   13   31 1   
    32   14   15 1   
    33   15   32 1   
@<TRIPOS>SUBSTRUCTURE
     1 5FW         1 TEMP              0 ****  ****    0 ROOT
