@<TRIPOS>MOLECULE
5FW
   33    33     1     0     0
SMALL
bcc


@<TRIPOS>ATOM
      1 CAI        -0.0570   -0.0150    0.2130 c3        1 5FW     -0.133100
      2 CAG         1.4580    0.0030    0.0530 c3        1 5FW      0.132500
      3 CAJ         2.1280    0.0900    1.4170 c3        1 5FW     -0.133100
      4 NAD         1.9240   -1.2110   -0.7170 ny        1 5FW     -0.763000
      5 CAF         3.2460   -1.0100   -1.3730 c3        1 5FW      0.096800
      6 CAE         3.7420   -2.2930   -2.0840 c3        1 5FW      0.193400
      7 OAA         3.6440   -3.3350   -1.1230 oh        1 5FW     -0.637800
      8 CAH         5.1310   -2.0570   -2.5840 ca        1 5FW     -0.176300
      9 CAK         5.3150   -1.6800   -3.9190 ca        1 5FW     -0.120000
     10 CAL         6.2280   -2.2200   -1.7340 ca        1 5FW     -0.115000
     11 CAN         7.5230   -2.0110   -2.2060 ca        1 5FW     -0.166000
     12 CAO         7.7190   -1.6280   -3.5350 ca        1 5FW      0.082100
     13 OAC         8.9510   -1.3910   -4.0920 oh        1 5FW     -0.498100
     14 CAM         6.6090   -1.4600   -4.4010 ca        1 5FW      0.126100
     15 OAB         6.7330   -1.0790   -5.7100 oh        1 5FW     -0.480100
     16 HAI1       -0.3640    0.9250    0.7390 hc        1 5FW      0.078200
     17 HAI2       -0.5780   -0.0410   -0.7750 hc        1 5FW      0.078200
     18 HAI3       -0.3940   -0.8830    0.8300 hc        1 5FW      0.078200
     19 HAG         1.7530    0.9030   -0.5680 hx        1 5FW      0.104700
     20 HAJ1        1.7820    1.0290    1.9180 hc        1 5FW      0.078200
     21 HAJ2        1.8480   -0.7750    2.0660 hc        1 5FW      0.078200
     22 HAJ3        3.2410    0.1340    1.3280 hc        1 5FW      0.078200
     23 HAD         2.0020   -2.0150   -0.0770 hn        1 5FW      0.456800
     24 HAF1        3.1600   -0.1820   -2.1300 hx        1 5FW      0.112700
     25 HAF2        3.9900   -0.7170   -0.5780 hx        1 5FW      0.112700
     26 HAE         3.0530   -2.5450   -2.9430 h1        1 5FW      0.067700
     27 HAA         4.2870   -4.0200   -1.3540 ho        1 5FW      0.457000
     28 HAK         4.4650   -1.5610   -4.6070 ha        1 5FW      0.158000
     29 HAL         6.0740   -2.5230   -0.6870 ha        1 5FW      0.142000
     30 HAN         8.3860   -2.1470   -1.5370 ha        1 5FW      0.156000
     31 HAC         9.6320   -1.5870   -3.4300 ho        1 5FW      0.446000
     32 HAB         7.6790   -1.0060   -5.9230 ho        1 5FW      0.454000
     33 HAD2        1.2260   -1.4460   -1.4300 hn        1 5FW      0.456800
@<TRIPOS>BOND
     1    1    2 1   
     2    1   16 1   
     3    1   17 1   
     4    1   18 1   
     5    2    3 1   
     6    2    4 1   
     7    2   19 1   
     8    3   20 1   
     9    3   21 1   
    10    3   22 1   
    11    4    5 1   
    12    4   23 1   
    13    4   33 1   
    14    5    6 1   
    15    5   24 1   
    16    5   25 1   
    17    6    7 1   
    18    6    8 1   
    19    6   26 1   
    20    7   27 1   
    21    8    9 ar  
    22    8   10 ar  
    23    9   14 ar  
    24    9   28 1   
    25   10   11 ar  
    26   10   29 1   
    27   11   12 ar  
    28   11   30 1   
    29   12   13 1   
    30   12   14 ar  
    31   13   31 1   
    32   14   15 1   
    33   15   32 1   
@<TRIPOS>SUBSTRUCTURE
     1 5FW         1 TEMP              0 ****  ****    0 ROOT
