@<TRIPOS>MOLECULE
5FW
   33    33     1     0     0
SMALL
bcc


@<TRIPOS>ATOM
      1 CAI        -0.0530   -0.0320    0.2320 c3        1 5FW     -0.133100
      2 CAG         1.4600   -0.0050    0.0620 c3        1 5FW      0.132500
      3 CAJ         2.1390    0.0970    1.4200 c3        1 5FW     -0.133100
      4 NAD         1.9310   -1.2210   -0.7030 n4        1 5FW     -0.763000
      5 CAF         3.2470   -1.0150   -1.3690 c3        1 5FW      0.096800
      6 CAE         3.7480   -2.2990   -2.0740 c3        1 5FW      0.193400
      7 OAA         3.6640   -3.3350   -1.1050 oh        1 5FW     -0.637800
      8 CAH         5.1320   -2.0560   -2.5850 ca        1 5FW     -0.176300
      9 CAK         5.3040   -1.6870   -3.9240 ca        1 5FW     -0.120000
     10 CAL         6.2360   -2.2060   -1.7420 ca        1 5FW     -0.115000
     11 CAN         7.5260   -1.9900   -2.2240 ca        1 5FW     -0.166000
     12 CAO         7.7100   -1.6150   -3.5570 ca        1 5FW      0.082100
     13 OAC         8.9370   -1.3730   -4.1240 oh        1 5FW     -0.498100
     14 CAM         6.5940   -1.4610   -4.4160 ca        1 5FW      0.126100
     15 OAB         6.7060   -1.0880   -5.7290 oh        1 5FW     -0.480100
     16 HAI1       -0.3800   -0.8990    0.8560 hc        1 5FW      0.078200
     17 HAI2       -0.5790   -0.0700   -0.7530 hc        1 5FW      0.078200
     18 HAI3       -0.3630    0.9090    0.7530 hc        1 5FW      0.078200
     19 HAG         1.7460    0.8930   -0.5670 hx        1 5FW      0.104700
     20 HAJ1        1.7890    1.0370    1.9170 hc        1 5FW      0.078200
     21 HAJ2        1.8690   -0.7660    2.0780 hc        1 5FW      0.078200
     22 HAJ3        3.2510    0.1480    1.3240 hc        1 5FW      0.078200
     23 HAD         1.2300   -1.4660   -1.4100 hn        1 5FW      0.456800
     24 HAF1        3.1500   -0.1930   -2.1310 hx        1 5FW      0.112700
     25 HAF2        3.9940   -0.7110   -0.5820 hx        1 5FW      0.112700
     26 HAE         3.0550   -2.5620   -2.9270 h1        1 5FW      0.067700
     27 HAA         4.3110   -4.0160   -1.3360 ho        1 5FW      0.457000
     28 HAK         4.4490   -1.5800   -4.6070 ha        1 5FW      0.158000
     29 HAL         6.0900   -2.5020   -0.6920 ha        1 5FW      0.142000
     30 HAN         8.3940   -2.1150   -1.5590 ha        1 5FW      0.156000
     31 HAC         9.6240   -1.5590   -3.4650 ho        1 5FW      0.446000
     32 HAB         7.6500   -1.0100   -5.9480 ho        1 5FW      0.454000
     33 HAD2        2.0190   -2.0200   -0.0580 hn        1 5FW      0.456800
@<TRIPOS>BOND
     1    1    2 1   
     2    1   16 1   
     3    1   17 1   
     4    1   18 1   
     5    2    3 1   
     6    2    4 1   
     7    2   19 1   
     8    3   20 1   
     9    3   21 1   
    10    3   22 1   
    11    4    5 1   
    12    4   23 1   
    13    4   33 1   
    14    5    6 1   
    15    5   24 1   
    16    5   25 1   
    17    6    7 1   
    18    6    8 1   
    19    6   26 1   
    20    7   27 1   
    21    8    9 ar  
    22    8   10 ar  
    23    9   14 ar  
    24    9   28 1   
    25   10   11 ar  
    26   10   29 1   
    27   11   12 ar  
    28   11   30 1   
    29   12   13 1   
    30   12   14 ar  
    31   13   31 1   
    32   14   15 1   
    33   15   32 1   
@<TRIPOS>SUBSTRUCTURE
     1 5FW         1 TEMP              0 ****  ****    0 ROOT
