@<TRIPOS>MOLECULE
5FW
   32    32     1     0     0
SMALL
bcc


@<TRIPOS>ATOM
      1 CAI         5.3020   -1.1260    0.0040 c3        1 5FW     -0.109600
      2 CAG         3.9940   -0.6100    0.6090 c3        1 5FW      0.173500
      3 CAJ         4.3170    0.6010    1.4880 c3        1 5FW     -0.109600
      4 NAD         2.9990   -0.3800   -0.4310 n3        1 5FW     -0.822200
      5 CAF         1.6500   -0.2090    0.0630 c3        1 5FW      0.137800
      6 CAE         0.6990    0.3550   -1.0160 c3        1 5FW      0.178400
      7 OAA         1.1190    1.6510   -1.4090 oh        1 5FW     -0.592800
      8 CAH        -0.7200    0.3210   -0.5240 ca        1 5FW     -0.112300
      9 CAK        -1.2950   -0.9180   -0.2200 ca        1 5FW     -0.129000
     10 CAL        -1.4750    1.4900   -0.4000 ca        1 5FW     -0.121000
     11 CAN        -2.7960    1.4410    0.0440 ca        1 5FW     -0.168000
     12 CAO        -3.3700    0.2090    0.3640 ca        1 5FW      0.042100
     13 OAC        -4.6650    0.0640    0.8170 oh        1 5FW     -0.516100
     14 CAM        -2.6190   -0.9790    0.2280 ca        1 5FW      0.113100
     15 OAB        -3.1300   -2.2210    0.5210 oh        1 5FW     -0.494100
     16 HAI1        6.0060   -1.3850    0.8300 hc        1 5FW      0.038367
     17 HAI2        5.1200   -2.0380   -0.6130 hc        1 5FW      0.038367
     18 HAI3        5.7770   -0.3480   -0.6400 hc        1 5FW      0.038367
     19 HAG         3.5800   -1.4220    1.2800 h1        1 5FW      0.053700
     20 HAJ1        4.7330    1.4370    0.8750 hc        1 5FW      0.038367
     21 HAJ2        3.4070    0.9680    2.0190 hc        1 5FW      0.038367
     22 HAJ3        5.0760    0.3130    2.2530 hc        1 5FW      0.038367
     23 HAD         3.2640    0.3970   -1.0100 hn        1 5FW      0.368800
     24 HAF1        1.2750   -1.2220    0.3840 h1        1 5FW      0.038200
     25 HAF2        1.5940    0.4730    0.9620 h1        1 5FW      0.038200
     26 HAE         0.7750   -0.2490   -1.9680 h1        1 5FW      0.101700
     27 HAA         1.1340    2.2040   -0.6190 ho        1 5FW      0.397000
     28 HAK        -0.7270   -1.8530   -0.3330 ha        1 5FW      0.158000
     29 HAL        -1.0370    2.4630   -0.6720 ha        1 5FW      0.142000
     30 HAN        -3.3840    2.3650    0.1390 ha        1 5FW      0.137000
     31 HAC        -5.0790    0.9390    0.8150 ho        1 5FW      0.430000
     32 HAB        -4.0540   -2.1080    0.7910 ho        1 5FW      0.438000
@<TRIPOS>BOND
     1    1    2 1   
     2    1   16 1   
     3    1   17 1   
     4    1   18 1   
     5    2    3 1   
     6    2    4 1   
     7    2   19 1   
     8    3   20 1   
     9    3   21 1   
    10    3   22 1   
    11    4    5 1   
    12    4   23 1   
    13    5    6 1   
    14    5   24 1   
    15    5   25 1   
    16    6    7 1   
    17    6    8 1   
    18    6   26 1   
    19    7   27 1   
    20    8    9 ar  
    21    8   10 ar  
    22    9   14 ar  
    23    9   28 1   
    24   10   11 ar  
    25   10   29 1   
    26   11   12 ar  
    27   11   30 1   
    28   12   13 1   
    29   12   14 ar  
    30   13   31 1   
    31   14   15 1   
    32   15   32 1   
@<TRIPOS>SUBSTRUCTURE
     1 5FW         1 TEMP              0 ****  ****    0 ROOT
