@<TRIPOS>MOLECULE
5FX
   19    18     1     0     0
SMALL
bcc


@<TRIPOS>ATOM
      1 C1         -0.1390    0.0270   -0.1960 c3        1 5FX      0.036400
      2 O1          1.1400   -0.4730   -0.5170 oh        1 5FX     -0.583800
      3 C2         -0.4650   -0.1070    1.2700 c         1 5FX      0.511100
      4 O2          0.4160   -0.2520    2.1200 o         1 5FX     -0.506100
      5 C3         -1.9330   -0.0540    1.6470 c3        1 5FX      0.057100
      6 O3         -2.1370   -0.4570    2.9830 oh        1 5FX     -0.578800
      7 C4         -2.5040    1.3560    1.4080 c3        1 5FX      0.081100
      8 O4         -1.8330    2.2250    2.3030 oh        1 5FX     -0.598800
      9 C5         -4.0220    1.3470    1.6730 c3        1 5FX      0.121900
     10 F          -4.5400    2.6240    1.5950 f         1 5FX     -0.244300
     11 H11C       -0.8540   -0.5700   -0.8240 h1        1 5FX      0.069700
     12 H12C       -0.2060    1.1150   -0.4790 h1        1 5FX      0.069700
     13 H1          1.7460   -0.2100    0.1900 ho        1 5FX      0.422000
     14 H3         -2.5100   -0.7990    1.0280 h1        1 5FX      0.097700
     15 HA         -1.5370    0.0670    3.5360 ho        1 5FX      0.434000
     16 H4         -2.3040    1.6820    0.3490 h1        1 5FX      0.051700
     17 HB         -2.3260    3.0570    2.3170 ho        1 5FX      0.425000
     18 H51C       -4.2110    0.9350    2.7040 h1        1 5FX      0.067700
     19 H52C       -4.5310    0.6960    0.9120 h1        1 5FX      0.067700
@<TRIPOS>BOND
     1    1    2 1   
     2    1    3 1   
     3    1   11 1   
     4    1   12 1   
     5    2   13 1   
     6    3    4 2   
     7    3    5 1   
     8    5    6 1   
     9    5    7 1   
    10    5   14 1   
    11    6   15 1   
    12    7    8 1   
    13    7    9 1   
    14    7   16 1   
    15    8   17 1   
    16    9   10 1   
    17    9   18 1   
    18    9   19 1   
@<TRIPOS>SUBSTRUCTURE
     1 5FX         1 TEMP              0 ****  ****    0 ROOT
