@<TRIPOS>MOLECULE
5FX
   19    18     1     0     0
SMALL
bcc


@<TRIPOS>ATOM
      1 C1         -1.9270   -1.0480   -0.8420 c3        1 5FX      0.038400
      2 O1         -3.3320   -1.1480   -0.8790 oh        1 5FX     -0.580800
      3 C2         -1.4540    0.1660   -0.0840 c         1 5FX      0.509100
      4 O2         -2.1690    0.7360    0.7450 o         1 5FX     -0.513100
      5 C3         -0.0540    0.6610   -0.3830 c3        1 5FX      0.014100
      6 O3          0.1750    1.9490    0.1560 oh        1 5FX     -0.590800
      7 C4          1.0110   -0.3110    0.1690 c3        1 5FX      0.089100
      8 O4          1.2910   -0.0090    1.5180 oh        1 5FX     -0.577800
      9 C5          2.2780   -0.2230   -0.7050 c3        1 5FX      0.131900
     10 F           3.2460   -1.1100   -0.2860 f         1 5FX     -0.230300
     11 H11C       -1.4880   -1.9670   -0.3600 h1        1 5FX      0.072700
     12 H12C       -1.6090   -0.9990   -1.9180 h1        1 5FX      0.072700
     13 H1         -3.6670   -0.9360    0.0050 ho        1 5FX      0.422000
     14 H3          0.0640    0.7870   -1.4980 h1        1 5FX      0.096700
     15 HA         -0.2850    1.9990    1.0080 ho        1 5FX      0.431000
     16 H4          0.6280   -1.3690    0.1890 h1        1 5FX      0.091700
     17 HB          1.7180    0.8600    1.5390 ho        1 5FX      0.415000
     18 H51C        2.0090   -0.4590   -1.7720 h1        1 5FX      0.053700
     19 H52C        2.6900    0.8230   -0.6520 h1        1 5FX      0.053700
@<TRIPOS>BOND
     1    1    2 1   
     2    1    3 1   
     3    1   11 1   
     4    1   12 1   
     5    2   13 1   
     6    3    4 2   
     7    3    5 1   
     8    5    6 1   
     9    5    7 1   
    10    5   14 1   
    11    6   15 1   
    12    7    8 1   
    13    7    9 1   
    14    7   16 1   
    15    8   17 1   
    16    9   10 1   
    17    9   18 1   
    18    9   19 1   
@<TRIPOS>SUBSTRUCTURE
     1 5FX         1 TEMP              0 ****  ****    0 ROOT
