@<TRIPOS>MOLECULE
5FX
   19    18     1     0     0
SMALL
bcc


@<TRIPOS>ATOM
      1 C1          1.7000   -0.2340   -1.7010 c3        1 5FX      0.035400
      2 O1          3.1100   -0.2340   -1.7010 oh        1 5FX     -0.583800
      3 C2          1.1960   -0.2340   -0.2740 c         1 5FX      0.503100
      4 O2          1.9720   -0.0680    0.6450 o         1 5FX     -0.512100
      5 C3         -0.2750   -0.4430    0.0080 c3        1 5FX      0.012100
      6 O3         -0.4590   -1.6860    0.6430 oh        1 5FX     -0.576800
      7 C4         -0.7780    0.6610    0.9080 c3        1 5FX      0.083100
      8 O4         -0.3510    0.4220    2.2280 oh        1 5FX     -0.580800
      9 C5         -2.2890    0.6980    0.8660 c3        1 5FX      0.124900
     10 F          -2.7830   -0.2390    1.6910 f         1 5FX     -0.241300
     11 H11C        1.3740   -1.0310   -2.1610 h1        1 5FX      0.072200
     12 H12C        1.3740    0.5630   -2.1610 h1        1 5FX      0.072200
     13 H1          3.4060   -0.2410   -2.5370 ho        1 5FX      0.422000
     14 H3         -0.7730   -0.4300   -0.8320 h1        1 5FX      0.104700
     15 HA         -0.5820   -2.3170    0.0300 ho        1 5FX      0.429000
     16 H4         -0.4220    1.5180    0.6020 h1        1 5FX      0.095700
     17 HB         -0.2280    1.1960    2.6450 ho        1 5FX      0.425000
     18 H51C       -2.5930    0.5230   -0.0450 h1        1 5FX      0.058200
     19 H52C       -2.6010    1.5790    1.1490 h1        1 5FX      0.058200
@<TRIPOS>BOND
     1    1    2 1   
     2    1    3 1   
     3    1   11 1   
     4    1   12 1   
     5    2   13 1   
     6    3    4 2   
     7    3    5 1   
     8    5    6 1   
     9    5    7 1   
    10    5   14 1   
    11    6   15 1   
    12    7    8 1   
    13    7    9 1   
    14    7   16 1   
    15    8   17 1   
    16    9   10 1   
    17    9   18 1   
    18    9   19 1   
@<TRIPOS>SUBSTRUCTURE
     1 5FX         1 TEMP              0 ****  ****    0 ROOT
