@<TRIPOS>MOLECULE
5FX
   19    18     1     0     0
SMALL
bcc


@<TRIPOS>ATOM
      1 C1         -0.1300    0.0220   -0.1840 c3        1 5FX      0.036400
      2 O1          1.1580   -0.4600   -0.4960 oh        1 5FX     -0.583800
      3 C2         -0.4500   -0.0800    1.2860 c         1 5FX      0.511100
      4 O2          0.4360   -0.1840    2.1370 o         1 5FX     -0.506100
      5 C3         -1.9170   -0.0480    1.6660 c3        1 5FX      0.057100
      6 O3         -2.1100   -0.4190    3.0130 oh        1 5FX     -0.578800
      7 C4         -2.5190    1.3430    1.3910 c3        1 5FX      0.081100
      8 O4         -1.8630    2.2500    2.2600 oh        1 5FX     -0.598800
      9 C5         -4.0350    1.3090    1.6620 c3        1 5FX      0.121900
     10 F          -4.5810    2.5730    1.5510 f         1 5FX     -0.244300
     11 H11C       -0.2210    1.1000   -0.4950 h1        1 5FX      0.069700
     12 H12C       -0.8340   -0.6060   -0.7940 h1        1 5FX      0.069700
     13 H1          1.7610   -0.1650    0.2030 ho        1 5FX      0.422000
     14 H3         -2.4800   -0.8210    1.0690 h1        1 5FX      0.097700
     15 HA         -1.5190    0.1310    3.5500 ho        1 5FX      0.434000
     16 H4         -2.3280    1.6450    0.3240 h1        1 5FX      0.051700
     17 HB         -2.3740    3.0710    2.2540 ho        1 5FX      0.425000
     18 H51C       -4.2130    0.9210    2.7040 h1        1 5FX      0.067700
     19 H52C       -4.5330    0.6280    0.9200 h1        1 5FX      0.067700
@<TRIPOS>BOND
     1    1    2 1   
     2    1    3 1   
     3    1   11 1   
     4    1   12 1   
     5    2   13 1   
     6    3    4 2   
     7    3    5 1   
     8    5    6 1   
     9    5    7 1   
    10    5   14 1   
    11    6   15 1   
    12    7    8 1   
    13    7    9 1   
    14    7   16 1   
    15    8   17 1   
    16    9   10 1   
    17    9   18 1   
    18    9   19 1   
@<TRIPOS>SUBSTRUCTURE
     1 5FX         1 TEMP              0 ****  ****    0 ROOT
