@<TRIPOS>MOLECULE
5G0
   45    46     1     0     0
SMALL
bcc


@<TRIPOS>ATOM
      1 OAR        -0.4500    0.4590   -0.2670 o         1 5G0     -0.541000
      2 CAP         0.6490   -0.0650   -0.0690 c         1 5G0      0.769100
      3 NAO         1.2760   -0.5150    1.0600 n         1 5G0     -0.410100
      4 CAS         0.8820   -0.1460    2.3710 ca        1 5G0      0.029600
      5 CAT         1.8290   -0.2700    3.4130 ca        1 5G0     -0.148500
      6 CAU         1.4620    0.0320    4.7200 ca        1 5G0     -0.101500
      7 CAV         0.1680    0.4640    5.0120 ca        1 5G0     -0.126000
      8 CAW        -0.7650    0.5920    3.9860 ca        1 5G0     -0.101500
      9 CAX        -0.4230    0.2910    2.6690 ca        1 5G0     -0.148500
     10 OAQ         1.5080   -0.3320   -1.2050 os        1 5G0     -0.199600
     11 NAY         0.9280   -0.3080   -2.3790 n2        1 5G0     -0.442200
     12 CAA         1.6800   -0.2620   -3.4460 c2        1 5G0      0.521600
     13 OAL         3.0580   -0.1540   -3.4500 os        1 5G0     -0.399400
     14 CAE         3.7340   -1.1180   -4.2830 c3        1 5G0      0.100100
     15 CAF         5.2060   -0.6740   -4.2700 c3        1 5G0      0.145400
     16 OAM         5.7670   -0.8940   -3.0000 oh        1 5G0     -0.577800
     17 CAD         3.1720   -1.1650   -5.7080 c3        1 5G0      0.090100
     18 OAK         3.4720    0.0600   -6.3450 oh        1 5G0     -0.571800
     19 CAC         1.6440   -1.3770   -5.6540 c3        1 5G0      0.084100
     20 CAB         1.0510   -0.2060   -4.8320 c3        1 5G0      0.082200
     21 NAI        -0.4450   -0.2060   -4.8400 n4        1 5G0     -0.675800
     22 CAG        -1.0370    1.0940   -4.2840 c         1 5G0      0.577100
     23 OAN        -0.6130    2.1150   -4.7980 o         1 5G0     -0.408100
     24 CAH        -2.0460    0.9320   -3.2060 c3        1 5G0     -0.196100
     25 OAJ         1.0580   -1.2890   -6.9410 oh        1 5G0     -0.619800
     26 HAO         2.2060   -0.8690    0.9580 hn        1 5G0      0.345500
     27 HAT         2.8570   -0.6090    3.2060 ha        1 5G0      0.149500
     28 HAX        -1.1770    0.4030    1.8730 ha        1 5G0      0.149500
     29 HAU         2.2040   -0.0700    5.5270 ha        1 5G0      0.147500
     30 HAV        -0.1130    0.7030    6.0490 ha        1 5G0      0.149000
     31 HAW        -1.7880    0.9340    4.2100 ha        1 5G0      0.147500
     32 HAB         1.3920    0.7710   -5.3150 hx        1 5G0      0.173700
     33 HAE         3.6220   -2.1300   -3.8050 h1        1 5G0      0.082700
     34 HAF1        5.7880   -1.3270   -4.9740 h1        1 5G0      0.080700
     35 HAF2        5.2790    0.4000   -4.5840 h1        1 5G0      0.080700
     36 HAD         3.6430   -2.0250   -6.2630 h1        1 5G0      0.079700
     37 HAM         5.4270   -0.2090   -2.4100 ho        1 5G0      0.417000
     38 HAK         3.2200   -0.0300   -7.2750 ho        1 5G0      0.426000
     39 HAC         1.4040   -2.3690   -5.1820 h1        1 5G0      0.075700
     40 HAJ         1.4390   -1.9910   -7.4870 ho        1 5G0      0.449000
     41 HAI        -0.8000   -1.0010   -4.2990 hn        1 5G0      0.467800
     42 HAH1       -1.5230    0.8080   -2.2120 hc        1 5G0      0.126700
     43 HAH2       -2.6640    1.8690   -3.1590 hc        1 5G0      0.126700
     44 HAH3       -2.7200    0.0570   -3.3720 hc        1 5G0      0.126700
     45 HAI2       -0.7370   -0.3160   -5.8230 hn        1 5G0      0.467800
@<TRIPOS>BOND
     1    1    2 2   
     2    2    3 1   
     3    2   10 1   
     4    3    4 1   
     5    3   26 1   
     6    4    5 ar  
     7    4    9 ar  
     8    5    6 ar  
     9    5   27 1   
    10    6    7 ar  
    11    6   29 1   
    12    7    8 ar  
    13    7   30 1   
    14    8    9 ar  
    15    8   31 1   
    16    9   28 1   
    17   10   11 1   
    18   11   12 2   
    19   12   13 1   
    20   12   20 1   
    21   13   14 1   
    22   14   15 1   
    23   14   17 1   
    24   14   33 1   
    25   15   16 1   
    26   15   34 1   
    27   15   35 1   
    28   16   37 1   
    29   17   18 1   
    30   17   19 1   
    31   17   36 1   
    32   18   38 1   
    33   19   20 1   
    34   19   25 1   
    35   19   39 1   
    36   20   21 1   
    37   20   32 1   
    38   21   22 1   
    39   21   41 1   
    40   21   45 1   
    41   22   23 2   
    42   22   24 1   
    43   24   42 1   
    44   24   43 1   
    45   24   44 1   
    46   25   40 1   
@<TRIPOS>SUBSTRUCTURE
     1 5G0         1 TEMP              0 ****  ****    0 ROOT
