@<TRIPOS>MOLECULE
5G0
   45    46     1     0     0
SMALL
bcc


@<TRIPOS>ATOM
      1 OAR        -0.4570    0.4440   -0.2680 o         1 5G0     -0.541000
      2 CAP         0.6470   -0.0700   -0.0690 c         1 5G0      0.769100
      3 NAO         1.2770   -0.5140    1.0600 ns        1 5G0     -0.410100
      4 CAS         0.8790   -0.1490    2.3710 ca        1 5G0      0.029600
      5 CAT         1.8270   -0.2640    3.4130 ca        1 5G0     -0.148500
      6 CAU         1.4560    0.0360    4.7200 ca        1 5G0     -0.101500
      7 CAV         0.1580    0.4560    5.0110 ca        1 5G0     -0.126000
      8 CAW        -0.7760    0.5750    3.9850 ca        1 5G0     -0.101500
      9 CAX        -0.4300    0.2770    2.6680 ca        1 5G0     -0.148500
     10 OAQ         1.5080   -0.3290   -1.2050 os        1 5G0     -0.199600
     11 NAY         0.9290   -0.3110   -2.3790 n2        1 5G0     -0.442200
     12 CAA         1.6810   -0.2580   -3.4450 c2        1 5G0      0.521600
     13 OAL         3.0570   -0.1370   -3.4480 os        1 5G0     -0.399400
     14 CAE         3.7440   -1.0940   -4.2810 c3        1 5G0      0.100100
     15 CAF         5.2110   -0.6360   -4.2680 c3        1 5G0      0.145400
     16 OAM         5.7740   -0.8500   -2.9980 oh        1 5G0     -0.577800
     17 CAD         3.1820   -1.1470   -5.7070 c3        1 5G0      0.090100
     18 OAK         3.4710    0.0810   -6.3440 oh        1 5G0     -0.571800
     19 CAC         1.6560   -1.3730   -5.6540 c3        1 5G0      0.084100
     20 CAB         1.0520   -0.2080   -4.8320 c3        1 5G0      0.082200
     21 NAI        -0.4440   -0.2230   -4.8400 ny        1 5G0     -0.675800
     22 CAG        -1.0490    1.0710   -4.2850 c         1 5G0      0.577100
     23 OAN        -0.6350    2.0960   -4.7990 o         1 5G0     -0.408100
     24 CAH        -2.0570    0.9000   -3.2080 c3        1 5G0     -0.196100
     25 OAJ         1.0700   -1.2910   -6.9410 oh        1 5G0     -0.619800
     26 HAO         2.2100   -0.8600    0.9590 hn        1 5G0      0.345500
     27 HAT         2.8570   -0.5930    3.2070 ha        1 5G0      0.149500
     28 HAX        -1.1840    0.3820    1.8720 ha        1 5G0      0.149500
     29 HAU         2.1990   -0.0590    5.5270 ha        1 5G0      0.147500
     30 HAV        -0.1250    0.6930    6.0480 ha        1 5G0      0.149000
     31 HAW        -1.8010    0.9080    4.2090 ha        1 5G0      0.147500
     32 HAB         1.3830    0.7720   -5.3150 hx        1 5G0      0.173700
     33 HAE         3.6410   -2.1070   -3.8030 h1        1 5G0      0.082700
     34 HAF1        5.8000   -1.2840   -4.9720 h1        1 5G0      0.080700
     35 HAF2        5.2730    0.4390   -4.5820 h1        1 5G0      0.080700
     36 HAD         3.6620   -2.0030   -6.2610 h1        1 5G0      0.079700
     37 HAM         5.4270   -0.1680   -2.4080 ho        1 5G0      0.417000
     38 HAK         3.2200   -0.0120   -7.2740 ho        1 5G0      0.426000
     39 HAC         1.4260   -2.3680   -5.1820 h1        1 5G0      0.075700
     40 HAJ         1.4590   -1.9900   -7.4860 ho        1 5G0      0.449000
     41 HAI        -0.7920   -1.0210   -4.3000 hn        1 5G0      0.467800
     42 HAH1       -2.7220    0.0180   -3.3740 hc        1 5G0      0.126700
     43 HAH2       -2.6840    1.8300   -3.1610 hc        1 5G0      0.126700
     44 HAH3       -1.5330    0.7810   -2.2140 hc        1 5G0      0.126700
     45 HAI2       -0.7340   -0.3350   -5.8240 hn        1 5G0      0.467800
@<TRIPOS>BOND
     1    1    2 2   
     2    2    3 1   
     3    2   10 1   
     4    3    4 1   
     5    3   26 1   
     6    4    5 ar  
     7    4    9 ar  
     8    5    6 ar  
     9    5   27 1   
    10    6    7 ar  
    11    6   29 1   
    12    7    8 ar  
    13    7   30 1   
    14    8    9 ar  
    15    8   31 1   
    16    9   28 1   
    17   10   11 1   
    18   11   12 2   
    19   12   13 1   
    20   12   20 1   
    21   13   14 1   
    22   14   15 1   
    23   14   17 1   
    24   14   33 1   
    25   15   16 1   
    26   15   34 1   
    27   15   35 1   
    28   16   37 1   
    29   17   18 1   
    30   17   19 1   
    31   17   36 1   
    32   18   38 1   
    33   19   20 1   
    34   19   25 1   
    35   19   39 1   
    36   20   21 1   
    37   20   32 1   
    38   21   22 1   
    39   21   41 1   
    40   21   45 1   
    41   22   23 2   
    42   22   24 1   
    43   24   42 1   
    44   24   43 1   
    45   24   44 1   
    46   25   40 1   
@<TRIPOS>SUBSTRUCTURE
     1 5G0         1 TEMP              0 ****  ****    0 ROOT
