@<TRIPOS>MOLECULE
5G8
   35    36     1     0     0
SMALL
bcc


@<TRIPOS>ATOM
      1 C1         -0.0790   -0.0110    0.0690 ca        1 5G8      0.139100
      2 C2          1.3310   -0.0290   -0.0370 ca        1 5G8     -0.006600
      3 C3          2.1100   -0.0210    1.1210 ca        1 5G8     -0.091000
      4 C4          1.4940    0.0050    2.3760 ca        1 5G8     -0.012600
      5 C5          0.1020    0.0230    2.4840 ca        1 5G8     -0.087000
      6 C6         -0.6820    0.0150    1.3340 ca        1 5G8     -0.194000
      7 C7         -2.2100    0.0010   -1.0080 c3        1 5G8      0.129400
      8 C8         -2.7240   -0.0120   -2.4380 c3        1 5G8     -0.086400
      9 Cl2         2.1170   -0.0610   -1.5410 cl        1 5G8     -0.063400
     10 Cl4         2.4520    0.0160    3.7790 cl        1 5G8     -0.085400
     11 O1         -0.7800   -0.0220   -1.1170 os        1 5G8     -0.314900
     12 C9         -4.2370    0.0050   -2.4480 c3        1 5G8     -0.078400
     13 C10        -4.7620   -0.0060   -3.8670 c3        1 5G8     -0.102400
     14 C11        -6.2930    0.0090   -3.8520 c3        1 5G8      0.040300
     15 N12        -6.9060   -0.0060   -5.1450 na        1 5G8     -0.209900
     16 C16        -7.1570   -1.1330   -5.9350 cc        1 5G8     -0.256600
     17 C15        -7.7100   -0.6530   -7.1360 cd        1 5G8      0.290200
     18 N14        -7.7930    0.7390   -7.1030 nd        1 5G8     -0.666000
     19 C13        -7.2980    1.1100   -5.9040 cc        1 5G8      0.386400
     20 H1          3.2090   -0.0340    1.0430 ha        1 5G8      0.163000
     21 H2         -0.3800    0.0440    3.4740 ha        1 5G8      0.151000
     22 H3         -1.7770    0.0290    1.4350 ha        1 5G8      0.145000
     23 H4         -2.5310    0.9320   -0.4710 h1        1 5G8      0.041700
     24 H5         -2.5580   -0.9040   -0.4440 h1        1 5G8      0.041700
     25 H6         -2.3200    0.8790   -2.9860 hc        1 5G8      0.064200
     26 H7         -2.3410   -0.9260   -2.9620 hc        1 5G8      0.064200
     27 H8         -4.6280   -0.8870   -1.8910 hc        1 5G8      0.042700
     28 H9         -4.6080    0.9200   -1.9140 hc        1 5G8      0.042700
     29 H10        -4.3730    0.8860   -4.4240 hc        1 5G8      0.058700
     30 H11        -4.3930   -0.9200   -4.4020 hc        1 5G8      0.058700
     31 H12        -6.6430    0.9350   -3.3100 h1        1 5G8      0.059200
     32 H13        -6.6590   -0.8910   -3.2780 h1        1 5G8      0.059200
     33 H14        -6.9410   -2.1430   -5.5950 h4        1 5G8      0.175000
     34 H15        -8.0480   -1.2230   -8.0000 h4        1 5G8      0.042100
     35 H16        -7.2140    2.1350   -5.5330 h5        1 5G8      0.059100
@<TRIPOS>BOND
     1    1    2 ar  
     2    1    6 ar  
     3    1   11 1   
     4    2    3 ar  
     5    2    9 1   
     6    3    4 ar  
     7    3   20 1   
     8    4    5 ar  
     9    4   10 1   
    10    5    6 ar  
    11    5   21 1   
    12    6   22 1   
    13    7    8 1   
    14    7   11 1   
    15    7   23 1   
    16    7   24 1   
    17    8   12 1   
    18    8   25 1   
    19    8   26 1   
    20   12   13 1   
    21   12   27 1   
    22   12   28 1   
    23   13   14 1   
    24   13   29 1   
    25   13   30 1   
    26   14   15 1   
    27   14   31 1   
    28   14   32 1   
    29   15   16 1   
    30   15   19 1   
    31   16   17 2   
    32   16   33 1   
    33   17   18 1   
    34   17   34 1   
    35   18   19 2   
    36   19   35 1   
@<TRIPOS>SUBSTRUCTURE
     1 5G8         1 TEMP              0 ****  ****    0 ROOT
