@<TRIPOS>MOLECULE
5G9
   34    37     1     0     0
SMALL
bcc


@<TRIPOS>ATOM
      1 N1         -0.0040   -0.5410    0.0990 nb        1 5G9     -0.631000
      2 N3          4.6840   -0.5800   -3.8290 nh        1 5G9     -0.890500
      3 C4         -1.8890   -0.2870    3.7780 ca        1 5G9      0.411200
      4 C5          1.2080    0.0040   -0.0160 ca        1 5G9      0.508800
      5 C6          1.9150   -0.0720   -1.2860 cc        1 5G9     -0.275900
      6 C7          3.5090   -0.4200   -3.0970 cc        1 5G9      0.617300
      7 C8          1.3940    0.1110   -2.5690 cd        1 5G9      0.466800
      8 C10        -0.7100   -0.1970   -3.8460 ca        1 5G9     -0.086000
      9 C13        -1.8680    1.9820   -2.5280 ca        1 5G9     -0.127000
     10 C15         1.2600    0.7470    2.2960 ca        1 5G9     -0.126300
     11 C11        -2.0190    0.1950   -4.1370 ca        1 5G9      0.010400
     12 C12        -2.6050    1.2830   -3.4830 ca        1 5G9     -0.117000
     13 C14        -0.5630    1.5990   -2.2230 ca        1 5G9     -0.100000
     14 C9          0.0190    0.5060   -2.8790 ca        1 5G9     -0.104500
     15 N2          2.2990   -0.1020   -3.6040 nd        1 5G9     -0.687000
     16 S           3.5530   -0.4710   -1.3560 ss        1 5G9     -0.107300
     17 C16         1.8770    0.6610    1.0770 ca        1 5G9     -0.242300
     18 C          -0.0450    0.1790    2.4640 ca        1 5G9      0.283300
     19 C1         -0.6360   -0.4590    1.3170 ca        1 5G9      0.291300
     20 C2         -1.9460   -1.0310    1.4810 ca        1 5G9     -0.126300
     21 C3         -2.5630   -0.9440    2.7010 ca        1 5G9     -0.245300
     22 N          -0.6880    0.2540    3.6830 nb        1 5G9     -0.650000
     23 H1          5.1810   -1.4110   -3.5860 hn        1 5G9      0.402300
     24 H2          4.5720   -0.4790   -4.8190 hn        1 5G9      0.402300
     25 H3         -2.3800   -0.2130    4.7660 h4        1 5G9      0.026100
     26 H4         -0.2530   -1.0500   -4.3710 ha        1 5G9      0.158000
     27 H5         -2.3210    2.8410   -2.0110 ha        1 5G9      0.137000
     28 H6          1.7470    1.2460    3.1500 ha        1 5G9      0.158000
     29 H7         -3.6350    1.5870   -3.7200 ha        1 5G9      0.145000
     30 H8          0.0130    2.1530   -1.4670 ha        1 5G9      0.140000
     31 H9          2.8760    1.0900    0.9090 ha        1 5G9      0.151000
     32 H10        -2.4270   -1.5260    0.6230 ha        1 5G9      0.160000
     33 H11        -3.5630   -1.3660    2.8710 ha        1 5G9      0.148000
     34 CL         -2.9110   -0.6630   -5.3050 cl        1 5G9     -0.099400
@<TRIPOS>BOND
     1    1    4 ar  
     2    1   19 ar  
     3    2    6 1   
     4    2   23 1   
     5    2   24 1   
     6    3   21 ar  
     7    3   22 ar  
     8    3   25 1   
     9    4    5 1   
    10    4   17 ar  
    11    5    7 2   
    12    5   16 1   
    13    6   15 2   
    14    6   16 1   
    15    7   14 1   
    16    7   15 1   
    17    8   11 ar  
    18    8   14 ar  
    19    8   26 1   
    20    9   12 ar  
    21    9   13 ar  
    22    9   27 1   
    23   10   17 ar  
    24   10   18 ar  
    25   10   28 1   
    26   11   12 ar  
    27   11   34 1   
    28   12   29 1   
    29   13   14 ar  
    30   13   30 1   
    31   17   31 1   
    32   18   19 ar  
    33   18   22 ar  
    34   19   20 ar  
    35   20   21 ar  
    36   20   32 1   
    37   21   33 1   
@<TRIPOS>SUBSTRUCTURE
     1 5G9         1 TEMP              0 ****  ****    0 ROOT
