@<TRIPOS>MOLECULE
5G9
   34    48     1     0     0
SMALL
bcc


@<TRIPOS>ATOM
      1 N1          0.0000    0.0000    0.0000 n2        1 5G9     -0.175000
      2 N3          4.6540   -0.1080   -4.0910 n8        1 5G9     -0.076000
      3 C4         -2.0220   -0.0000    3.5240 c2        1 5G9     -0.153000
      4 C5          1.3230    0.0000    0.0000 c3        1 5G9      0.288000
      5 C6          2.0450    0.0000   -1.2810 c2        1 5G9     -0.325000
      6 C7          3.6100   -0.0510   -3.1880 c3        1 5G9     -0.154000
      7 C8          1.4830    0.1360   -2.5270 c2        1 5G9      0.025000
      8 C10        -0.6290   -0.4600   -3.7090 c2        1 5G9     -0.246000
      9 C13        -2.0470    1.3840   -2.1960 c3        1 5G9      0.516000
     10 C15         1.3980   -0.0010    2.3960 c2        1 5G9     -0.048000
     11 C11        -1.9860   -0.2980   -3.9080 c2        1 5G9     -0.111000
     12 C12        -2.6930    0.6220   -3.1530 c3        1 5G9     -0.129000
     13 C14        -0.6910    1.2310   -1.9890 c3        1 5G9     -0.031000
     14 C9          0.0270    0.3050   -2.7460 c3        1 5G9      0.140000
     15 N2          2.3640    0.1020   -3.5130 n2        1 5G9     -0.083000
     16 S           3.7860   -0.1650   -1.4930 ss        1 5G9      0.375000
     17 C16         2.0550    0.0000    1.2050 c2        1 5G9     -0.162000
     18 C          -0.0150   -0.0010    2.3860 c3        1 5G9     -0.211000
     19 C1         -0.6910   -0.0010    1.1420 c2        1 5G9      0.337000
     20 C2         -2.1010   -0.0000    1.1360 c3        1 5G9     -0.193000
     21 C3         -2.7510    0.0000    2.3390 c2        1 5G9     -0.202000
     22 N          -0.7090   -0.0000    3.5250 n7        1 5G9      0.119000
     23 H1          3.6760   -0.2160   -4.2720 DU        1 5G9      0.143000
     24 H2          4.8970   -0.9790   -4.5210 hn        1 5G9      0.100000
     25 H3         -1.2920    0.0740    2.7260 DU        1 5G9      0.335000
     26 H4         -0.8770   -0.4010   -2.6560 DU        1 5G9      0.226000
     27 H5         -1.4970    0.6490   -2.7720 DU        1 5G9      0.040000
     28 H6          0.6790    0.3770    1.6780 DU        1 5G9      0.104000
     29 H7         -2.0650    0.5380   -2.2750 DU        1 5G9      0.217000
     30 H8         -1.6760    1.0760   -2.4130 DU        1 5G9     -0.748000
     31 H9          1.4140    0.5240    0.5060 DU        1 5G9      0.027000
     32 H10        -1.0350    0.0140    1.3280 hc        1 5G9     -0.257000
     33 H11        -2.7020    0.0000    1.2570 DU        1 5G9      0.180000
     34 Cl         -2.8060   -1.2500   -5.1050 cl        1 5G9      0.134000
@<TRIPOS>BOND
     1    1    4 1   
     2    1   19 1   
     3    2    6 1   
     4    2   23 1   
     5    2   24 1   
     6    3   21 1   
     7    3   22 1   
     8    3   25 1   
     9    4    5 1   
    10    4   17 1   
    11    4   31 1   
    12    5    7 1   
    13    5   16 1   
    14    6   15 1   
    15    6   16 1   
    16    6   23 1   
    17    7   14 1   
    18    7   15 1   
    19    8   11 1   
    20    8   14 1   
    21    8   26 1   
    22    9   12 1   
    23    9   13 1   
    24    9   27 1   
    25    9   29 1   
    26   10   17 1   
    27   10   18 1   
    28   10   28 1   
    29   11   12 1   
    30   11   34 1   
    31   12   27 1   
    32   12   29 1   
    33   13   14 1   
    34   13   27 1   
    35   13   30 1   
    36   14   26 1   
    37   17   31 1   
    38   18   19 1   
    39   18   22 1   
    40   18   28 1   
    41   19   20 1   
    42   20   21 1   
    43   20   32 1   
    44   20   33 1   
    45   21   33 1   
    46   22   25 1   
    47   27   30 1   
    48   29   30 1   
@<TRIPOS>SUBSTRUCTURE
     1 5G9         1 TEMP              0 ****  ****    0 ROOT
