@<TRIPOS>MOLECULE
5GA
   34    37     1     0     0
SMALL
bcc


@<TRIPOS>ATOM
      1 N1         -0.0300   -0.4530    0.0830 nb        1 5GA     -0.635000
      2 N3          4.6990   -0.4950   -3.8240 nv        1 5GA     -0.891500
      3 C4         -1.8960   -0.2580    3.7750 ca        1 5GA      0.412200
      4 C5          1.2160    0.0160   -0.0090 ca        1 5GA      0.508800
      5 C6          1.9250    0.5740    1.1140 ca        1 5GA     -0.244300
      6 C7          1.3150    0.6400    2.3370 ca        1 5GA     -0.124300
      7 C8          1.9200   -0.0450   -1.2800 cc        1 5GA     -0.274900
      8 C10         1.3950    0.1200   -2.5650 cd        1 5GA      0.466800
      9 C13        -2.0280    0.0730   -4.1280 ca        1 5GA     -0.029600
     10 C15        -1.8960    1.9340   -2.5610 ca        1 5GA     -0.164000
     11 Cl         -2.8710   -0.8640   -5.2650 cl        1 5GA     -0.072400
     12 C12        -0.7080   -0.2670   -3.8180 ca        1 5GA     -0.066000
     13 C14        -2.6330    1.1820   -3.4970 ca        1 5GA      0.138900
     14 F          -3.9070    1.5420   -3.7730 f         1 5GA     -0.127900
     15 C16        -0.5880    1.5830   -2.2570 ca        1 5GA     -0.074000
     16 C11         0.0120    0.4800   -2.8800 ca        1 5GA     -0.115500
     17 N2          2.3050   -0.0760   -3.5990 nd        1 5GA     -0.689000
     18 C9          3.5230   -0.3620   -3.0910 cc        1 5GA      0.620300
     19 S           3.5680   -0.4050   -1.3500 ss        1 5GA     -0.108300
     20 C          -0.0260    0.1510    2.4810 ca        1 5GA      0.282300
     21 C1         -0.6560   -0.3900    1.3050 ca        1 5GA      0.291300
     22 C2         -2.0000   -0.8820    1.4440 ca        1 5GA     -0.127300
     23 C3         -2.6110   -0.8160    2.6680 ca        1 5GA     -0.243300
     24 N          -0.6620    0.2080    3.7030 nb        1 5GA     -0.649000
     25 H1          5.2310   -1.3000   -3.5650 hn        1 5GA      0.404300
     26 H2          4.5840   -0.4140   -4.8150 hn        1 5GA      0.404300
     27 H3         -2.3820   -0.2000    4.7670 h4        1 5GA      0.026100
     28 H4          2.9500    0.9440    0.9650 ha        1 5GA      0.150000
     29 H5          1.8320    1.0630    3.2130 ha        1 5GA      0.159000
     30 H6         -2.3730    2.8000   -2.0770 ha        1 5GA      0.153000
     31 H7         -0.2340   -1.1270   -4.3170 ha        1 5GA      0.162000
     32 H8         -0.0190    2.1730   -1.5220 ha        1 5GA      0.146000
     33 H9         -2.5130   -1.3030    0.5650 ha        1 5GA      0.160000
     34 H10        -3.6370   -1.1790    2.8200 ha        1 5GA      0.149000
@<TRIPOS>BOND
     1    1    4 ar  
     2    1   21 ar  
     3    2   18 1   
     4    2   25 1   
     5    2   26 1   
     6    3   23 ar  
     7    3   24 ar  
     8    3   27 1   
     9    4    5 ar  
    10    4    7 1   
    11    5    6 ar  
    12    5   28 1   
    13    6   20 ar  
    14    6   29 1   
    15    7    8 2   
    16    7   19 1   
    17    8   16 1   
    18    8   17 1   
    19    9   11 1   
    20    9   12 ar  
    21    9   13 ar  
    22   10   13 ar  
    23   10   15 ar  
    24   10   30 1   
    25   12   16 ar  
    26   12   31 1   
    27   13   14 1   
    28   15   16 ar  
    29   15   32 1   
    30   17   18 2   
    31   18   19 1   
    32   20   21 ar  
    33   20   24 ar  
    34   21   22 ar  
    35   22   23 ar  
    36   22   33 1   
    37   23   34 1   
@<TRIPOS>SUBSTRUCTURE
     1 5GA         1 TEMP              0 ****  ****    0 ROOT
