@<TRIPOS>MOLECULE
5GA
   34    37     1     0     0
SMALL
bcc


@<TRIPOS>ATOM
      1 N1         -0.0300   -0.4570    0.0830 nb        1 5GA     -0.635000
      2 N3          4.6930   -0.5080   -3.8310 nh        1 5GA     -0.891500
      3 C4         -1.8920   -0.2590    3.7770 ca        1 5GA      0.412200
      4 C5          1.2170    0.0110   -0.0110 ca        1 5GA      0.508800
      5 C6          1.9270    0.5680    1.1110 ca        1 5GA     -0.244300
      6 C7          1.3190    0.6350    2.3350 ca        1 5GA     -0.124300
      7 C8          1.9190   -0.0510   -1.2820 cc        1 5GA     -0.274900
      8 C10         1.3930    0.1180   -2.5670 cd        1 5GA      0.466800
      9 C13        -2.0310    0.0880   -4.1270 ca        1 5GA     -0.029600
     10 C15        -1.8920    1.9440   -2.5540 ca        1 5GA     -0.164000
     11 CL         -2.8790   -0.8430   -5.2660 cl        1 5GA     -0.072400
     12 C12        -0.7120   -0.2580   -3.8190 ca        1 5GA     -0.066000
     13 C14        -2.6320    1.1970   -3.4920 ca        1 5GA      0.138900
     14 F          -3.9050    1.5620   -3.7650 f         1 5GA     -0.127900
     15 C16        -0.5850    1.5870   -2.2530 ca        1 5GA     -0.074000
     16 C11         0.0110    0.4830   -2.8790 ca        1 5GA     -0.115500
     17 N2          2.3010   -0.0810   -3.6020 nd        1 5GA     -0.689000
     18 C9          3.5180   -0.3720   -3.0960 cc        1 5GA      0.620300
     19 S           3.5660   -0.4170   -1.3550 ss        1 5GA     -0.108300
     20 C          -0.0220    0.1480    2.4810 ca        1 5GA      0.282300
     21 C1         -0.6550   -0.3930    1.3060 ca        1 5GA      0.291300
     22 C2         -1.9990   -0.8840    1.4460 ca        1 5GA     -0.127300
     23 C3         -2.6090   -0.8170    2.6710 ca        1 5GA     -0.243300
     24 N          -0.6570    0.2050    3.7040 nb        1 5GA     -0.649000
     25 H1          4.5770   -0.4250   -4.8210 hn        1 5GA      0.404300
     26 H2          5.2220   -1.3150   -3.5730 hn        1 5GA      0.404300
     27 H3         -2.3760   -0.2010    4.7700 h4        1 5GA      0.026100
     28 H4          2.9530    0.9370    0.9610 ha        1 5GA      0.150000
     29 H5          1.8370    1.0580    3.2110 ha        1 5GA      0.159000
     30 H6         -2.3650    2.8090   -2.0670 ha        1 5GA      0.153000
     31 H7         -0.2420   -1.1190   -4.3210 ha        1 5GA      0.162000
     32 H8         -0.0130    2.1730   -1.5170 ha        1 5GA      0.146000
     33 H9         -2.5130   -1.3050    0.5680 ha        1 5GA      0.160000
     34 H10        -3.6340   -1.1790    2.8250 ha        1 5GA      0.149000
@<TRIPOS>BOND
     1    1    4 ar  
     2    1   21 ar  
     3    2   18 1   
     4    2   25 1   
     5    2   26 1   
     6    3   23 ar  
     7    3   24 ar  
     8    3   27 1   
     9    4    5 ar  
    10    4    7 1   
    11    5    6 ar  
    12    5   28 1   
    13    6   20 ar  
    14    6   29 1   
    15    7    8 2   
    16    7   19 1   
    17    8   16 1   
    18    8   17 1   
    19    9   11 1   
    20    9   12 ar  
    21    9   13 ar  
    22   10   13 ar  
    23   10   15 ar  
    24   10   30 1   
    25   12   16 ar  
    26   12   31 1   
    27   13   14 1   
    28   15   16 ar  
    29   15   32 1   
    30   17   18 2   
    31   18   19 1   
    32   20   21 ar  
    33   20   24 ar  
    34   21   22 ar  
    35   22   23 ar  
    36   22   33 1   
    37   23   34 1   
@<TRIPOS>SUBSTRUCTURE
     1 5GA         1 TEMP              0 ****  ****    0 ROOT
