@<TRIPOS>MOLECULE
5GB
   37    40     1     0     0
SMALL
bcc


@<TRIPOS>ATOM
      1 N1          0.2360   -1.0070    0.4180 nb        1 5GB     -0.628000
      2 N3          4.6060   -1.1440   -3.6560 nv        1 5GB     -0.886500
      3 C4         -1.7980   -0.3360    3.9640 ca        1 5GB      0.413200
      4 C5          1.0780   -0.0630    0.0010 ca        1 5GB      0.508800
      5 C6          1.8220   -0.2640   -1.2380 cc        1 5GB     -0.281900
      6 C7          3.4260   -0.8320   -2.9760 cc        1 5GB      0.601300
      7 C8          1.3680   -0.0480   -2.5410 cd        1 5GB      0.458800
      8 C10        -0.6660   -0.0970   -3.9640 ca        1 5GB     -0.092000
      9 C13        -1.7480    2.0550   -2.5560 ca        1 5GB     -0.131000
     10 C15        -0.4950    1.5580   -2.2040 ca        1 5GB     -0.114000
     11 C17         1.3090    1.1590    0.7250 ca        1 5GB     -0.232300
     12 S           3.3950   -0.8600   -1.2360 ss        1 5GB     -0.086300
     13 N2          2.2830   -0.3840   -3.5350 nd        1 5GB     -0.684000
     14 C9          0.0510    0.4740   -2.9050 ca        1 5GB     -0.119500
     15 C12        -2.4630    1.4800   -3.6050 ca        1 5GB     -0.121000
     16 C11        -1.9260    0.4000   -4.3150 ca        1 5GB     -0.084300
     17 C14        -2.6870   -0.2240   -5.4220 c3        1 5GB     -0.052800
     18 C16         0.6430    1.3860    1.9000 ca        1 5GB     -0.132300
     19 C          -0.2770    0.4000    2.3870 ca        1 5GB      0.287300
     20 C1         -0.4450   -0.7900    1.5950 ca        1 5GB      0.287300
     21 C2         -1.3690   -1.7800    2.0780 ca        1 5GB     -0.125300
     22 C3         -2.0380   -1.5530    3.2520 ca        1 5GB     -0.246300
     23 N          -0.9620    0.6070    3.5670 nb        1 5GB     -0.650000
     24 H1          4.5530   -1.0060   -4.6460 hn        1 5GB      0.397300
     25 H2          4.9450   -2.0560   -3.4260 hn        1 5GB      0.397300
     26 H3         -2.3330   -0.1430    4.9130 h4        1 5GB      0.025100
     27 H4         -0.2390   -0.9420   -4.5250 ha        1 5GB      0.145000
     28 H5         -2.1730    2.9060   -2.0040 ha        1 5GB      0.132000
     29 H6          0.0680    2.0120   -1.3740 ha        1 5GB      0.135000
     30 H7          2.0190    1.8930    0.3160 ha        1 5GB      0.154000
     31 H8         -3.4510    1.8770   -3.8790 ha        1 5GB      0.131000
     32 H9         -3.2610   -1.1060   -5.0410 hc        1 5GB      0.044033
     33 H10        -1.9980   -0.5790   -6.2280 hc        1 5GB      0.044033
     34 H11        -3.4120    0.4990   -5.8690 hc        1 5GB      0.044033
     35 H12         0.7990    2.3110    2.4780 ha        1 5GB      0.158000
     36 H13        -1.5230   -2.7020    1.4950 ha        1 5GB      0.158000
     37 H14        -2.7530   -2.2810    3.6570 ha        1 5GB      0.148000
@<TRIPOS>BOND
     1    1    4 ar  
     2    1   20 ar  
     3    2    6 1   
     4    2   24 1   
     5    2   25 1   
     6    3   22 ar  
     7    3   23 ar  
     8    3   26 1   
     9    4    5 1   
    10    4   11 ar  
    11    5    7 2   
    12    5   12 1   
    13    6   12 1   
    14    6   13 2   
    15    7   13 1   
    16    7   14 1   
    17    8   14 ar  
    18    8   16 ar  
    19    8   27 1   
    20    9   10 ar  
    21    9   15 ar  
    22    9   28 1   
    23   10   14 ar  
    24   10   29 1   
    25   11   18 ar  
    26   11   30 1   
    27   15   16 ar  
    28   15   31 1   
    29   16   17 1   
    30   17   32 1   
    31   17   33 1   
    32   17   34 1   
    33   18   19 ar  
    34   18   35 1   
    35   19   20 ar  
    36   19   23 ar  
    37   20   21 ar  
    38   21   22 ar  
    39   21   36 1   
    40   22   37 1   
@<TRIPOS>SUBSTRUCTURE
     1 5GB         1 TEMP              0 ****  ****    0 ROOT
