@<TRIPOS>MOLECULE
5GF
   24    24     1     0     0
SMALL
bcc


@<TRIPOS>ATOM
      1 O5         -0.3610   -0.7180   -1.2250 os        1 5GF     -0.466600
      2 C1          1.1040   -0.7000   -1.2200 c3        1 5GF      0.320900
      3 F          -0.7160    1.5530   -0.9970 f         1 5GF     -0.225300
      4 C2          1.6800   -0.6650    0.1850 c3        1 5GF      0.044100
      5 O2          1.4100   -1.9150    0.8240 oh        1 5GF     -0.594800
      6 C3          1.0920    0.4310    1.0130 c3        1 5GF      0.105100
      7 O3          1.5300    1.6830    0.4930 oh        1 5GF     -0.588800
      8 C4         -0.3990    0.4070    1.0030 c3        1 5GF      0.115100
      9 O4         -0.8550   -0.7540    1.7180 oh        1 5GF     -0.579800
     10 C6         -2.4340    0.1610   -0.3260 c3        1 5GF      0.138400
     11 O6         -3.0200    0.4390   -1.6150 oh        1 5GF     -0.583800
     12 C5         -0.9590    0.3700   -0.3990 c3        1 5GF      0.300100
     13 O1          1.5530    0.4410   -1.9270 oh        1 5GF     -0.604800
     14 H1          1.4360   -1.5140   -1.6820 h2        1 5GF      0.106700
     15 H2          2.6920   -0.5330    0.1250 h1        1 5GF      0.061700
     16 HO1         1.8130    0.1960   -2.7600 ho        1 5GF      0.439000
     17 HO2         2.1400   -2.2950    1.0240 ho        1 5GF      0.417000
     18 H3          1.4160    0.3390    1.9550 h1        1 5GF      0.079700
     19 HO3         2.0410    2.0750    1.0760 ho        1 5GF      0.415000
     20 H4         -0.7230    1.1910    1.4470 h1        1 5GF      0.112700
     21 HO4        -1.1040   -0.5110    2.5730 ho        1 5GF      0.428000
     22 H61        -2.8180    0.7650    0.3480 h1        1 5GF      0.070700
     23 H62        -2.6270   -0.8020   -0.0660 h1        1 5GF      0.070700
     24 HO6        -3.8910    0.3560   -1.5660 ho        1 5GF      0.419000
@<TRIPOS>BOND
     1    1    2 1   
     2    1   12 1   
     3    2    4 1   
     4    2   13 1   
     5    2   14 1   
     6    3   12 1   
     7    4    5 1   
     8    4    6 1   
     9    4   15 1   
    10    5   17 1   
    11    6    7 1   
    12    6    8 1   
    13    6   18 1   
    14    7   19 1   
    15    8    9 1   
    16    8   12 1   
    17    8   20 1   
    18    9   21 1   
    19   10   11 1   
    20   10   12 1   
    21   10   22 1   
    22   10   23 1   
    23   11   24 1   
    24   13   16 1   
@<TRIPOS>SUBSTRUCTURE
     1 5GF         1 TEMP              0 ****  ****    0 ROOT
