@<TRIPOS>MOLECULE
5GF
   24    24     1     0     0
SMALL
bcc


@<TRIPOS>ATOM
      1 O5          0.3510   -1.3610   -0.0970 os        1 5GF     -0.484600
      2 C1         -1.0470   -1.2160   -0.3240 c3        1 5GF      0.316900
      3 F           1.0750   -0.2430   -1.8680 f         1 5GF     -0.226300
      4 C2         -1.6020    0.0380    0.3810 c3        1 5GF      0.052100
      5 O2         -2.9570    0.2470    0.0290 oh        1 5GF     -0.597800
      6 C3         -0.8260    1.2730   -0.0920 c3        1 5GF      0.109100
      7 O3         -1.1970    2.4250    0.6430 oh        1 5GF     -0.603800
      8 C4          0.6730    1.0590    0.1660 c3        1 5GF      0.109100
      9 O4          1.4370    2.1070   -0.3960 oh        1 5GF     -0.586800
     10 C6          2.5990   -0.6010   -0.0130 c3        1 5GF      0.128400
     11 O6          2.5950   -0.9680    1.3440 oh        1 5GF     -0.585800
     12 C5          1.1610   -0.2610   -0.4950 c3        1 5GF      0.351100
     13 O1         -1.5730   -2.3920    0.2230 oh        1 5GF     -0.589800
     14 H1         -1.2900   -1.2230   -1.4230 h2        1 5GF      0.103700
     15 H2         -1.5150   -0.0740    1.4980 h1        1 5GF      0.062700
     16 HO1        -1.1060   -2.5790    1.0500 ho        1 5GF      0.425000
     17 HO2        -3.4190   -0.5860    0.1940 ho        1 5GF      0.425000
     18 H3         -1.0100    1.4450   -1.1890 h1        1 5GF      0.074700
     19 HO3        -2.1540    2.5210    0.5410 ho        1 5GF      0.431000
     20 H4          0.8720    0.9850    1.2720 h1        1 5GF      0.083700
     21 HO4         1.0660    2.9300   -0.0490 ho        1 5GF      0.431000
     22 H61         3.2250    0.3300   -0.0780 h1        1 5GF      0.078700
     23 H62         3.0180   -1.4150   -0.6580 h1        1 5GF      0.078700
     24 HO6         2.0990   -1.7950    1.4160 ho        1 5GF      0.413000
@<TRIPOS>BOND
     1    1    2 1   
     2    1   12 1   
     3    2    4 1   
     4    2   13 1   
     5    2   14 1   
     6    3   12 1   
     7    4    5 1   
     8    4    6 1   
     9    4   15 1   
    10    5   17 1   
    11    6    7 1   
    12    6    8 1   
    13    6   18 1   
    14    7   19 1   
    15    8    9 1   
    16    8   12 1   
    17    8   20 1   
    18    9   21 1   
    19   10   11 1   
    20   10   12 1   
    21   10   22 1   
    22   10   23 1   
    23   11   24 1   
    24   13   16 1   
@<TRIPOS>SUBSTRUCTURE
     1 5GF         1 TEMP              0 ****  ****    0 ROOT
