@<TRIPOS>MOLECULE
5GP
   36    38     1     0     0
SMALL
bcc


@<TRIPOS>ATOM
      1 P           4.6600   -0.0470    0.9830 p5        1 5GP      1.335900
      2 O1P         3.9770    1.2420    1.4030 o         1 5GP     -0.929500
      3 O2P         4.2400   -1.2440    1.7840 o         1 5GP     -0.929500
      4 O3P         6.0820    0.0580    0.5320 o         1 5GP     -0.929500
      5 O5'         3.7730   -0.3010   -0.5020 os        1 5GP     -0.553200
      6 C5'         2.4270   -0.4450   -0.3200 c3        1 5GP      0.229400
      7 C4'         1.6920    0.8730   -0.6680 c3        1 5GP      0.051100
      8 O4'         0.4380    0.5850   -1.3400 os        1 5GP     -0.431600
      9 C3'         1.3900    1.7550    0.5570 c3        1 5GP      0.131100
     10 O3'         2.0980    2.9700    0.4910 oh        1 5GP     -0.685800
     11 C2'        -0.1240    2.0580    0.4950 c3        1 5GP      0.103100
     12 O2'        -0.4600    3.3790    0.1310 oh        1 5GP     -0.617800
     13 C1'        -0.6660    1.0990   -0.6200 c3        1 5GP      0.213800
     14 N9         -1.4660   -0.0090   -0.1000 na        1 5GP     -0.178900
     15 C8         -1.0050   -1.2310    0.4310 cc        1 5GP      0.447400
     16 N7         -2.0040   -2.0780    0.7700 nd        1 5GP     -0.629000
     17 C5         -3.1750   -1.3980    0.4420 cd        1 5GP      0.194800
     18 C6         -4.5620   -1.7860    0.5790 c         1 5GP      0.645000
     19 O6         -5.0370   -2.8430    1.0320 o         1 5GP     -0.643500
     20 N1         -5.4860   -0.8120    0.1180 n         1 5GP     -0.497400
     21 C2         -5.0770    0.4350   -0.3980 cd        1 5GP      0.594800
     22 N2         -6.1400    1.3460   -0.7430 nh        1 5GP     -0.866800
     23 N3         -3.8010    0.8170   -0.5530 nc        1 5GP     -0.615100
     24 C4         -2.8580   -0.1000   -0.1130 cc        1 5GP      0.057800
     25 H5'1        2.1910   -0.7450    0.7420 h1        1 5GP     -0.001800
     26 H5'2        2.0270   -1.2360   -1.0220 h1        1 5GP     -0.001800
     27 H4'         2.2990    1.4440   -1.4230 h1        1 5GP      0.082700
     28 H3'         1.6490    1.2180    1.5130 h1        1 5GP      0.118700
     29 HO3'        3.0180    2.7480    0.7810 ho        1 5GP      0.517000
     30 H2'        -0.6210    1.8820    1.4840 h1        1 5GP      0.068700
     31 HO2'        0.3280    3.7920   -0.2480 ho        1 5GP      0.432000
     32 H1'        -1.3110    1.6620   -1.3560 h2        1 5GP      0.086700
     33 H8          0.0800   -1.4270    0.5290 h5        1 5GP      0.116100
     34 HN1        -6.4540   -0.9950    0.2530 hn        1 5GP      0.322500
     35 HN21       -5.7860    2.2740   -0.8840 hn        1 5GP      0.382300
     36 HN22       -6.6140    1.0290   -1.5660 hn        1 5GP      0.382300
@<TRIPOS>BOND
     1    1    2 1   
     2    1    3 1   
     3    1    4 1   
     4    1    5 1   
     5    5    6 1   
     6    6    7 1   
     7    6   25 1   
     8    6   26 1   
     9    7    8 1   
    10    7    9 1   
    11    7   27 1   
    12    8   13 1   
    13    9   10 1   
    14    9   11 1   
    15    9   28 1   
    16   10   29 1   
    17   11   12 1   
    18   11   13 1   
    19   11   30 1   
    20   12   31 1   
    21   13   14 1   
    22   13   32 1   
    23   14   15 1   
    24   14   24 1   
    25   15   16 2   
    26   15   33 1   
    27   16   17 1   
    28   17   18 1   
    29   17   24 2   
    30   18   19 2   
    31   18   20 1   
    32   20   21 1   
    33   20   34 1   
    34   21   22 1   
    35   21   23 2   
    36   22   35 1   
    37   22   36 1   
    38   23   24 1   
@<TRIPOS>SUBSTRUCTURE
     1 5GP         1 TEMP              0 ****  ****    0 ROOT
