@<TRIPOS>MOLECULE
5GP
   37    39     1     0     0
SMALL
bcc


@<TRIPOS>ATOM
      1 P           0.0000    0.0000    0.0000 p5        1 5GP      0.793900
      2 O1P         1.6100    0.0000    0.0000 o         1 5GP     -0.535167
      3 O2P        -0.5370    0.0000    1.5170 o         1 5GP     -0.535167
      4 O3P        -0.4930   -1.2080   -0.6980 o         1 5GP     -0.535167
      5 O5'        -0.5370    1.3150   -0.7590 os        1 5GP     -0.446200
      6 C5'        -0.1290    1.1990   -2.1240 c3        1 5GP      0.240400
      7 C4'        -0.6090    2.4230   -2.9060 c3        1 5GP      0.148100
      8 O4'         0.0690    3.6110   -2.4460 os        1 5GP     -0.362600
      9 C3'        -0.2210    2.2990   -4.3960 c3        1 5GP      0.115100
     10 O3'        -1.3270    1.8210   -5.1640 oh        1 5GP     -0.580800
     11 C2'         0.1440    3.7440   -4.8110 c3        1 5GP      0.122100
     12 O2'        -0.7250    4.2010   -5.8500 oh        1 5GP     -0.581800
     13 C1'        -0.0650    4.5670   -3.5210 c3        1 5GP      0.110800
     14 N9          0.9600    5.6080   -3.4080 na        1 5GP      0.270100
     15 C8          2.1450    5.5050   -2.7400 cc        1 5GP      0.244400
     16 N7          2.8100    6.6180   -2.8480 nd        1 5GP     -0.525000
     17 C5          2.0940    7.4990   -3.5880 cd        1 5GP      0.135800
     18 C6          2.3120    8.8280   -4.0210 c         1 5GP      0.566000
     19 O6          3.3340    9.4220   -3.7250 o         1 5GP     -0.693500
     20 N1          1.3600    9.4220   -4.7740 ns        1 5GP     -0.012400
     21 C2          0.2180    8.7510   -5.0940 cd        1 5GP     -0.246200
     22 N2         -0.7340    9.3810   -5.8560 nz        1 5GP      0.308400
     23 N3          0.0040    7.5150   -4.6980 nc        1 5GP     -0.486100
     24 C4          0.9040    6.8620   -3.9540 cc        1 5GP     -0.126200
     25 H5'1        0.9520    1.1390   -2.1740 h1        1 5GP      0.012700
     26 H5'2       -0.5600    0.3030   -2.5550 h1        1 5GP      0.012700
     27 H4'        -1.6820    2.5420   -2.8080 h1        1 5GP      0.033700
     28 H3'         0.6360    1.6470   -4.5090 h1        1 5GP      0.028700
     29 HO3'       -1.0510    1.0910   -5.6920 ho        1 5GP      0.397000
     30 H2'         1.1790    3.7950   -5.1260 h1        1 5GP      0.053700
     31 HO2'       -1.6210    4.1260   -5.5660 ho        1 5GP      0.402000
     32 H1'        -1.0560    5.0040   -3.5120 h2        1 5GP      0.038700
     33 H8          2.4840    4.6270   -2.2040 h5        1 5GP      0.047100
     34 HN1         1.4970   10.3560   -5.1040 hn        1 5GP      0.144500
     35 HN21       -0.9640   10.2620   -5.4400 hn        1 5GP      0.146800
     36 HN22       -1.5550    8.8100   -5.9030 hn        1 5GP      0.146800
     37 H23        -0.3770    9.5300   -6.7790 hn        1 5GP      0.146800
@<TRIPOS>BOND
     1    1    2 1   
     2    1    3 1   
     3    1    4 1   
     4    1    5 1   
     5    5    6 1   
     6    6    7 1   
     7    6   25 1   
     8    6   26 1   
     9    7    8 1   
    10    7    9 1   
    11    7   27 1   
    12    8   13 1   
    13    9   10 1   
    14    9   11 1   
    15    9   28 1   
    16   10   29 1   
    17   11   12 1   
    18   11   13 1   
    19   11   30 1   
    20   12   31 1   
    21   13   14 1   
    22   13   32 1   
    23   14   15 1   
    24   14   24 1   
    25   15   16 2   
    26   15   33 1   
    27   16   17 1   
    28   17   18 1   
    29   17   24 2   
    30   18   19 2   
    31   18   20 1   
    32   20   21 1   
    33   20   34 1   
    34   21   22 1   
    35   21   23 2   
    36   22   35 1   
    37   22   36 1   
    38   22   37 1   
    39   23   24 1   
@<TRIPOS>SUBSTRUCTURE
     1 5GP         1 TEMP              0 ****  ****    0 ROOT
