@<TRIPOS>MOLECULE
5GW
   46    48     1     0     0
SMALL
bcc


@<TRIPOS>ATOM
      1 CAM         0.0000    0.0000    0.0000 ca        1 5GW     -0.110500
      2 CAK         1.3800    0.0000    0.0000 ca        1 5GW     -0.114000
      3 CAJ         2.0740    0.0000    1.1970 ca        1 5GW     -0.206000
      4 CAL         1.3890    0.0020    2.3990 ca        1 5GW     -0.114000
      5 CAN         0.0090    0.0000    2.4110 ca        1 5GW     -0.110500
      6 CAU        -0.6950    0.0010    1.2080 ca        1 5GW      0.020200
      7 CAV        -2.1780    0.0000    1.2140 cc        1 5GW     -0.280400
      8 CAO        -2.8750   -1.0610    1.7130 cd        1 5GW     -0.249400
      9 CAW        -2.9340    1.1460    0.6900 c         1 5GW      0.627700
     10 OAA        -2.3540    2.1170    0.2380 o         1 5GW     -0.742500
     11 NAQ        -4.2830    1.0990    0.7170 ns        1 5GW     -0.151500
     12 CAX        -4.9140    0.0230    1.2160 c         1 5GW      0.573500
     13 OAB        -6.1290    0.0040    1.2300 o         1 5GW     -0.716500
     14 NBC        -4.2400   -1.0310    1.7050 n         1 5GW      0.101000
     15 C1'        -4.9840   -2.1760    2.2360 c3        1 5GW      0.203500
     16 O4'        -5.9330   -2.6560    1.2570 os        1 5GW     -0.335600
     17 C2'        -5.8470   -1.7440    3.4420 c3        1 5GW      0.101100
     18 O2'        -5.1890   -2.0660    4.6690 oh        1 5GW     -0.570800
     19 C3'        -7.1450   -2.5700    3.2910 c3        1 5GW      0.136100
     20 O3'        -7.3260   -3.4260    4.4200 oh        1 5GW     -0.569800
     21 C4'        -6.9120   -3.4030    2.0120 c3        1 5GW      0.146100
     22 C5'        -8.2130   -3.5300    1.2160 c3        1 5GW      0.306400
     23 O5'        -8.0050   -4.3990    0.0990 os        1 5GW     -0.492200
     24 PBE        -9.1650   -4.7610   -0.9570 p5        1 5GW      0.941800
     25 OAI       -10.3290   -5.5890   -0.2130 o         1 5GW     -0.700500
     26 OAD        -9.7290   -3.5130   -1.5180 o         1 5GW     -0.700500
     27 OAT        -8.5470   -5.6530   -2.1470 os        1 5GW     -0.476800
     28 PBD        -9.0140   -5.9900   -3.6500 p5        1 5GW      0.833900
     29 OAG        -8.2710   -7.3260   -4.1560 o         1 5GW     -0.633500
     30 OAH       -10.4780   -6.2000   -3.6770 o         1 5GW     -0.633500
     31 OAC        -8.6290   -4.7630   -4.6180 o         1 5GW     -0.633500
     32 H1         -0.5410   -0.0580   -0.9360 ha        1 5GW      0.099500
     33 H2          1.9200   -0.0030   -0.9390 ha        1 5GW      0.073500
     34 H3          3.1570   -0.0010    1.1920 ha        1 5GW      0.075000
     35 H4          1.9380    0.0010    3.3330 ha        1 5GW      0.073500
     36 H5         -0.5250    0.0720    3.3510 ha        1 5GW      0.099500
     37 H6         -2.3530   -1.8560    2.2320 h4        1 5GW      0.129000
     38 H7         -4.8150    1.8690    0.3630 hn        1 5GW      0.183500
     39 H8         -4.3080   -2.9720    2.5240 h2        1 5GW      0.037700
     40 H9         -6.0660   -0.6840    3.3890 h1        1 5GW      0.031700
     41 H10        -5.2090   -1.3170    5.2420 ho        1 5GW      0.364000
     42 H11        -7.9970   -1.9130    3.1640 h1        1 5GW      0.021700
     43 H12        -8.0990   -3.1640    4.8930 ho        1 5GW      0.367000
     44 H13        -6.5230   -4.3810    2.2670 h1        1 5GW      0.028700
     45 H14        -8.9870   -3.9390    1.8530 h1        1 5GW     -0.016300
     46 H15        -8.5160   -2.5520    0.8610 h1        1 5GW     -0.016300
@<TRIPOS>BOND
     1    1    2 ar  
     2    1    6 ar  
     3    1   32 1   
     4    2    3 ar  
     5    2   33 1   
     6    3    4 ar  
     7    3   34 1   
     8    4    5 ar  
     9    4   35 1   
    10    5    6 ar  
    11    5   36 1   
    12    6    7 1   
    13    7    8 2   
    14    7    9 1   
    15    8   14 1   
    16    8   37 1   
    17    9   10 2   
    18    9   11 1   
    19   11   12 1   
    20   11   38 1   
    21   12   13 2   
    22   12   14 1   
    23   14   15 1   
    24   15   16 1   
    25   15   17 1   
    26   15   39 1   
    27   16   21 1   
    28   17   18 1   
    29   17   19 1   
    30   17   40 1   
    31   18   41 1   
    32   19   20 1   
    33   19   21 1   
    34   19   42 1   
    35   20   43 1   
    36   21   22 1   
    37   21   44 1   
    38   22   23 1   
    39   22   45 1   
    40   22   46 1   
    41   23   24 1   
    42   24   25 1   
    43   24   26 1   
    44   24   27 1   
    45   27   28 1   
    46   28   29 1   
    47   28   30 1   
    48   28   31 1   
@<TRIPOS>SUBSTRUCTURE
     1 5GW         1 TEMP              0 ****  ****    0 ROOT
