@<TRIPOS>MOLECULE
5GX
   47    51     1     0     0
SMALL
bcc


@<TRIPOS>ATOM
      1 Cl          0.2170   -1.0590    0.2590 cl        1 5GX     -0.088400
      2 C02         1.9070   -0.8900    0.3150 ca        1 5GX     -0.135900
      3 C03         2.5740   -0.4320    1.4600 ca        1 5GX      0.126000
      4 C04         1.9210   -0.0890    2.6890 cc        1 5GX     -0.239300
      5 C05         0.7800   -0.6660    3.2820 cd        1 5GX     -0.093300
      6 N06         0.5480    0.0300    4.4710 na        1 5GX      0.086400
      7 C07        -0.4950   -0.3090    5.4240 c3        1 5GX      0.103600
      8 C08        -0.0810   -1.2980    6.4730 ca        1 5GX     -0.122300
      9 C09         0.9110   -0.9680    7.4030 ca        1 5GX     -0.107500
     10 C10         1.2650   -1.8790    8.3970 ca        1 5GX     -0.132500
     11 C11         0.6300   -3.1190    8.4700 ca        1 5GX     -0.118000
     12 C12        -0.3590   -3.4500    7.5440 ca        1 5GX     -0.132500
     13 C13        -0.7130   -2.5440    6.5450 ca        1 5GX     -0.107500
     14 N14         1.4770    0.9850    4.6800 nd        1 5GX     -0.524800
     15 C15         2.3210    0.9520    3.6250 cc        1 5GX      0.351200
     16 C16         3.9790   -0.3150    1.3380 ca        1 5GX     -0.022900
     17 N17         4.9640    0.1010    2.2460 nc        1 5GX     -0.558100
     18 C18         6.1430   -0.0030    1.5820 cd        1 5GX      0.526400
     19 C19         7.4430    0.3150    2.1060 cd        1 5GX     -0.307200
     20 C20         8.6720    0.3060    1.4160 cc        1 5GX     -0.124300
     21 N21         9.6450    0.6840    2.3380 na        1 5GX      0.100400
     22 C22        11.0520    0.8040    2.0380 c3        1 5GX      0.038600
     23 N23         9.1220    0.9300    3.5530 nc        1 5GX     -0.515800
     24 C24         7.7770    0.7190    3.4650 cd        1 5GX      0.376600
     25 C25         6.8240    0.8780    4.5780 c3        1 5GX     -0.128400
     26 N26         5.9810   -0.4760    0.2540 na        1 5GX     -0.381000
     27 C27         4.6080   -0.6850    0.0700 ca        1 5GX      0.399800
     28 N28         3.9420   -1.1370   -1.0300 nb        1 5GX     -0.657000
     29 C29         2.6190   -1.2230   -0.8720 ca        1 5GX      0.422200
     30 H29         2.0640   -1.5840   -1.7590 h4        1 5GX      0.036100
     31 H05         0.1440   -1.4890    2.9560 h4        1 5GX      0.184000
     32 H15         3.1690    1.6330    3.5340 h4        1 5GX      0.059100
     33 H071       -0.8320    0.6400    5.9360 h1        1 5GX      0.073200
     34 H072       -1.3600   -0.7190    4.8280 h1        1 5GX      0.073200
     35 H09         1.4140    0.0100    7.3440 ha        1 5GX      0.140500
     36 H13        -1.4910   -2.8110    5.8150 ha        1 5GX      0.140500
     37 H10         2.0480   -1.6180    9.1240 ha        1 5GX      0.134500
     38 H11         0.9100   -3.8360    9.2550 ha        1 5GX      0.133000
     39 H12        -0.8600   -4.4270    7.5990 ha        1 5GX      0.134500
     40 H26         6.6910   -0.6380   -0.4080 hn        1 5GX      0.312700
     41 H20         8.9100    0.0700    0.3800 h4        1 5GX      0.173000
     42 H221       11.3980    1.8540    2.2350 h1        1 5GX      0.061700
     43 H222       11.2130    0.5510    0.9590 h1        1 5GX      0.061700
     44 H223       11.6430    0.1000    2.6830 h1        1 5GX      0.061700
     45 H251        7.3360    1.1710    5.5270 hc        1 5GX      0.062367
     46 H252        6.2800   -0.0870    4.7440 hc        1 5GX      0.062367
     47 H253        6.0710    1.6640    4.3160 hc        1 5GX      0.062367
@<TRIPOS>BOND
     1    1    2 1   
     2    2    3 ar  
     3    2   29 ar  
     4    3    4 1   
     5    3   16 ar  
     6    4    5 2   
     7    4   15 1   
     8    5    6 1   
     9    5   31 1   
    10    6    7 1   
    11    6   14 1   
    12    7    8 1   
    13    7   33 1   
    14    7   34 1   
    15    8    9 ar  
    16    8   13 ar  
    17    9   10 ar  
    18    9   35 1   
    19   10   11 ar  
    20   10   37 1   
    21   11   12 ar  
    22   11   38 1   
    23   12   13 ar  
    24   12   39 1   
    25   13   36 1   
    26   14   15 2   
    27   15   32 1   
    28   16   17 1   
    29   16   27 ar  
    30   17   18 2   
    31   18   19 1   
    32   18   26 1   
    33   19   20 2   
    34   19   24 1   
    35   20   21 1   
    36   20   41 1   
    37   21   22 1   
    38   21   23 1   
    39   22   42 1   
    40   22   43 1   
    41   22   44 1   
    42   23   24 2   
    43   24   25 1   
    44   25   45 1   
    45   25   46 1   
    46   25   47 1   
    47   26   27 1   
    48   26   40 1   
    49   27   28 ar  
    50   28   29 ar  
    51   29   30 1   
@<TRIPOS>SUBSTRUCTURE
     1 5GX         1 TEMP              0 ****  ****    0 ROOT
