@<TRIPOS>MOLECULE
5GZ
   50    45     1     0     0
SMALL
bcc


@<TRIPOS>ATOM
      1 CL         -3.2690   -2.5540    5.5610 cl        1 5GZ      0.034000
      2 O01         0.7020   -2.3050   -2.0540 o         1 5GZ     -0.932500
      3 S02        -0.5180   -1.8270   -1.5060 ss        1 5GZ      2.856000
      4 C03        -0.5510   -1.9980    0.2970 c1        1 5GZ     -0.854000
      5 C04        -1.5120   -2.8180    0.8880 c2        1 5GZ      0.007000
      6 C05        -1.4300   -3.1290    2.2470 c1        1 5GZ     -0.165000
      7 C06         0.4800   -1.4950    1.0550 c1        1 5GZ      0.018000
      8 C07         0.5630   -1.8090    2.4260 c1        1 5GZ     -0.213000
      9 C08        -0.3950   -2.6250    3.0120 c1        1 5GZ      0.144000
     10 O09        -0.1910   -3.1170    4.3580 os        1 5GZ     -0.136000
     11 C10        -0.4580   -2.0490    5.3190 c2        1 5GZ      0.105000
     12 C11         0.6020   -1.3950    5.9420 c2        1 5GZ     -0.125000
     13 N12         1.9520   -1.7380    5.6000 no        1 5GZ      0.575000
     14 O13         2.9940   -0.8890    5.9570 o         1 5GZ     -0.340000
     15 O14         2.1760   -2.7180    4.9210 o         1 5GZ     -0.340000
     16 C15         0.3520   -0.4790    6.9820 c1        1 5GZ     -0.062000
     17 C16        -0.9670   -0.2250    7.3890 c1        1 5GZ     -0.105500
     18 C17        -2.0270   -0.8800    6.7650 c1        1 5GZ     -0.105500
     19 C18        -1.7750   -1.7930    5.7290 c1        1 5GZ     -0.091000
     20 N20        -0.8010   -0.2390   -1.9410 n2        1 5GZ     -0.890000
     21 C21        -0.4960    0.2010   -3.2520 c3        1 5GZ     -0.020000
     22 C22        -0.4770    1.7710   -3.2820 c3        1 5GZ     -0.084000
     23 N23         0.4490    2.2220   -4.2800 n3        1 5GZ     -0.270000
     24 C24         1.5110    3.0060   -3.6300 c3        1 5GZ     -0.062500
     25 C25         2.8610    2.7370   -4.3280 c3        1 5GZ     -0.212000
     26 C26        -0.2600    3.0660   -5.2530 c3        1 5GZ     -0.062500
     27 C27        -0.2380    2.3970   -6.6150 c3        1 5GZ     -0.212000
     28 O28        -1.4810   -2.7280   -2.1400 o         1 5GZ     -0.932500
     29 H04        -2.2050   -3.1550    0.3800 ha        1 5GZ      0.162000
     30 H05        -2.1020   -3.7020    2.6550 ha        1 5GZ      0.164000
     31 H06         1.1650   -0.9120    0.6370 ha        1 5GZ      0.153000
     32 H07         1.2950   -1.4520    2.9660 ha        1 5GZ      0.147000
     33 H15         1.0860   -0.0250    7.4130 ha        1 5GZ      0.180000
     34 H16        -1.1450    0.4190    8.1200 ha        1 5GZ      0.161000
     35 H17        -2.9860   -0.6970    7.0610 ha        1 5GZ      0.161000
     36 HN20       -1.1830    0.3430   -1.3370 hn        1 5GZ      0.241000
     37 H21         0.4010   -0.1490   -3.5210 h1        1 5GZ      0.107500
     38 H21A       -1.1650   -0.1250   -3.8640 h1        1 5GZ      0.107500
     39 H22        -1.3880    2.1100   -3.4970 h1        1 5GZ      0.071500
     40 H22A       -0.1950    2.1190   -2.3840 h1        1 5GZ      0.071500
     41 H24         1.5760    2.7440   -2.6880 h1        1 5GZ      0.069000
     42 H24A        1.2890    3.9880   -3.6910 h1        1 5GZ      0.069000
     43 H25         3.0050    3.4020   -5.0220 hc        1 5GZ      0.078500
     44 H25A        3.6120    2.7920   -3.6460 hc        1 5GZ      0.078500
     45 H25B        2.8490    1.8360   -4.7300 hc        1 5GZ      0.078500
     46 H26        -1.1550    3.1820   -4.9730 h1        1 5GZ      0.069000
     47 H26A        0.1770    3.9390   -5.3100 h1        1 5GZ      0.069000
     48 H27        -0.0090    3.0660   -7.3070 hc        1 5GZ      0.078500
     49 H27A        0.4340    1.6820   -6.6170 hc        1 5GZ      0.078500
     50 H27B       -1.1510    2.0050   -6.8140 hc        1 5GZ      0.078500
@<TRIPOS>BOND
     1    1   19 1   
     2    2    3 1   
     3    3   28 1   
     4    4    5 1   
     5    4    7 1   
     6    5    6 1   
     7    5   29 1   
     8    6   30 1   
     9    7   31 1   
    10    8    9 1   
    11    8   32 1   
    12    9   10 1   
    13   10   11 1   
    14   11   12 1   
    15   11   19 1   
    16   12   13 1   
    17   12   16 1   
    18   13   14 1   
    19   13   15 1   
    20   16   33 1   
    21   17   18 1   
    22   17   34 1   
    23   18   35 1   
    24   20   21 1   
    25   20   36 1   
    26   21   22 1   
    27   21   37 1   
    28   21   38 1   
    29   22   23 1   
    30   22   39 1   
    31   22   40 1   
    32   23   24 1   
    33   23   26 1   
    34   24   25 1   
    35   24   41 1   
    36   24   42 1   
    37   25   43 1   
    38   25   44 1   
    39   25   45 1   
    40   26   27 1   
    41   26   46 1   
    42   26   47 1   
    43   27   48 1   
    44   27   49 1   
    45   27   50 1   
@<TRIPOS>SUBSTRUCTURE
     1 5GZ         1 TEMP              0 ****  ****    0 ROOT
