@<TRIPOS>MOLECULE
5GZ
   50    51     1     0     0
SMALL
bcc


@<TRIPOS>ATOM
      1 CL          4.1930    2.1450    1.3450 cl        1 5GZ     -0.036400
      2 O01        -2.5360    2.1640    1.1250 o         1 5GZ     -0.656800
      3 C03        -0.6380    1.6000   -0.4250 ca        1 5GZ     -0.407500
      4 C04         0.1220    1.9800   -1.5400 ca        1 5GZ      0.013500
      5 C05         1.4410    1.5730   -1.6900 ca        1 5GZ     -0.188000
      6 C06        -0.0410    0.8000    0.5560 ca        1 5GZ      0.013500
      7 C07         1.2770    0.3730    0.4360 ca        1 5GZ     -0.188000
      8 C08         2.0090    0.7620   -0.6910 ca        1 5GZ      0.189100
      9 O09         3.3210    0.3720   -0.9460 os        1 5GZ     -0.228200
     10 C10         4.0110   -0.2440    0.0880 ca        1 5GZ      0.150100
     11 C11         4.3350   -1.6140   -0.0330 ca        1 5GZ     -0.171200
     12 N12         3.8000   -2.4370   -1.1520 no        1 5GZ      0.320200
     13 O13         4.3700   -3.4610   -1.4240 o         1 5GZ     -0.192500
     14 O14         2.8170   -2.0760   -1.7350 o         1 5GZ     -0.192500
     15 C15         5.1870   -2.2230    0.9020 ca        1 5GZ     -0.063000
     16 C16         5.6910   -1.4760    1.9630 ca        1 5GZ     -0.131000
     17 C17         5.3710   -0.1280    2.0980 ca        1 5GZ     -0.079000
     18 C18         4.5370    0.4980    1.1630 ca        1 5GZ     -0.012600
     19 N20        -3.0910    0.9800   -0.9940 n3        1 5GZ     -0.921100
     20 C21        -3.5330   -0.2400   -0.3840 c3        1 5GZ      0.223800
     21 C22        -5.0720   -0.4200   -0.4380 c3        1 5GZ      0.160800
     22 N23        -5.4780   -1.6880    0.1470 n3        1 5GZ     -0.748600
     23 C24        -6.7480   -1.6130    0.8560 c3        1 5GZ      0.176300
     24 C25        -6.6650   -0.8910    2.1920 c3        1 5GZ     -0.095100
     25 C26        -5.4170   -2.7910   -0.8040 c3        1 5GZ      0.176300
     26 C27        -5.2500   -4.1560   -0.1550 c3        1 5GZ     -0.095100
     27 O28        -2.3840    3.3300   -0.9800 o         1 5GZ     -0.656800
     28 H04        -0.3340    2.6330   -2.3060 ha        1 5GZ      0.158000
     29 H05         2.0380    1.8650   -2.5660 ha        1 5GZ      0.155500
     30 H06        -0.6270    0.5120    1.4480 ha        1 5GZ      0.158000
     31 H07         1.7340   -0.2580    1.2120 ha        1 5GZ      0.155500
     32 H15         5.4570   -3.2890    0.7900 ha        1 5GZ      0.179000
     33 H16         6.3540   -1.9570    2.7000 ha        1 5GZ      0.159000
     34 H17         5.7800    0.4550    2.9400 ha        1 5GZ      0.164000
     35 HN20       -3.3680    1.0760   -1.9420 hn        1 5GZ      0.447800
     36 H21        -3.0390   -1.1140   -0.8990 h1        1 5GZ      0.056700
     37 H21A       -3.2080   -0.2420    0.6970 h1        1 5GZ      0.056700
     38 H22        -5.5450    0.4250    0.1360 h1        1 5GZ      0.038700
     39 H22A       -5.4130   -0.3290   -1.5110 h1        1 5GZ      0.038700
     40 H24        -7.5410   -1.1120    0.2240 h1        1 5GZ      0.028700
     41 H24A       -7.0970   -2.6670    1.0520 h1        1 5GZ      0.028700
     42 H25        -7.6600   -0.9560    2.6940 hc        1 5GZ      0.039867
     43 H25A       -5.8990   -1.3600    2.8540 hc        1 5GZ      0.039867
     44 H25B       -6.4040    0.1860    2.0630 hc        1 5GZ      0.039867
     45 H26        -6.3370   -2.8150   -1.4610 h1        1 5GZ      0.028700
     46 H26A       -4.5320   -2.6190   -1.4810 h1        1 5GZ      0.028700
     47 H27        -4.3670   -4.1710    0.5270 hc        1 5GZ      0.039867
     48 H27A       -6.1530   -4.4460    0.4310 hc        1 5GZ      0.039867
     49 H27B       -5.0930   -4.9150   -0.9600 hc        1 5GZ      0.039867
     50 S02        -2.2330    2.1270   -0.2530 sy        1 5GZ      1.520200
@<TRIPOS>BOND
     1    1   18 1   
     2    2   50 2   
     3    3    4 ar  
     4    3    6 ar  
     5    3   50 1   
     6    4    5 ar  
     7    4   28 1   
     8    5    8 ar  
     9    5   29 1   
    10    6    7 ar  
    11    6   30 1   
    12    7    8 ar  
    13    7   31 1   
    14    8    9 1   
    15    9   10 1   
    16   10   11 ar  
    17   10   18 ar  
    18   11   12 1   
    19   11   15 ar  
    20   12   13 1   
    21   12   14 1   
    22   15   16 ar  
    23   15   32 1   
    24   16   17 ar  
    25   16   33 1   
    26   17   18 ar  
    27   17   34 1   
    28   19   20 1   
    29   19   35 1   
    30   19   50 1   
    31   20   21 1   
    32   20   36 1   
    33   20   37 1   
    34   21   22 1   
    35   21   38 1   
    36   21   39 1   
    37   22   23 1   
    38   22   25 1   
    39   23   24 1   
    40   23   40 1   
    41   23   41 1   
    42   24   42 1   
    43   24   43 1   
    44   24   44 1   
    45   25   26 1   
    46   25   45 1   
    47   25   46 1   
    48   26   47 1   
    49   26   48 1   
    50   26   49 1   
    51   27   50 2   
@<TRIPOS>SUBSTRUCTURE
     1 5GZ         1 TEMP              0 ****  ****    0 ROOT
