@<TRIPOS>MOLECULE
5GZ
   52    52     1     0     0
SMALL
bcc


@<TRIPOS>ATOM
      1 CL         -0.9210    0.8080   -0.2750 cl        1 5GZ     -0.006400
      2 O01         3.0730   -6.1230   -0.1160 o         1 5GZ     -0.443900
      3 C03         2.3750   -4.0910   -1.3680 ca        1 5GZ     -0.702500
      4 C04         1.9900   -3.4610   -2.5980 ca        1 5GZ      0.062000
      5 C05         1.7050   -2.1270   -2.6790 ca        1 5GZ     -0.192000
      6 C06         2.3700   -3.2640   -0.1990 ca        1 5GZ      0.062000
      7 C07         2.0900   -1.9240   -0.2530 ca        1 5GZ     -0.192000
      8 C08         1.7990   -1.3230   -1.5040 ca        1 5GZ      0.343100
      9 O09         1.5720   -0.0030   -1.7070 os        1 5GZ     -0.175200
     10 C10         1.7530    0.8940   -0.6430 ca        1 5GZ      0.080100
     11 C11         3.0410    1.4160   -0.3770 ca        1 5GZ     -0.169200
     12 N12         4.2430    0.8330   -1.0270 no        1 5GZ      0.323200
     13 O13         5.2670    1.4480   -1.0310 o         1 5GZ     -0.203500
     14 O14         4.1560   -0.2720   -1.5100 o         1 5GZ     -0.203500
     15 C15         3.1870    2.4920    0.5070 ca        1 5GZ     -0.049000
     16 C16         2.0570    3.0210    1.1360 ca        1 5GZ     -0.096000
     17 C17         0.7940    2.4930    0.8980 ca        1 5GZ     -0.066000
     18 C18         0.6260    1.4200    0.0040 ca        1 5GZ      0.019400
     19 N20         5.2660   -5.3370   -1.7440 n3        1 5GZ     -0.979800
     20 C21         5.7490   -6.5370   -2.3920 c3        1 5GZ      0.116800
     21 C22         7.2530   -6.5170   -2.7460 c3        1 5GZ      0.065800
     22 N23         7.7190   -7.7660   -3.4210 n4        1 5GZ     -0.688400
     23 C24         8.9620   -7.5020   -4.2330 c3        1 5GZ      0.111300
     24 C25         8.6850   -6.8290   -5.5600 c3        1 5GZ     -0.138600
     25 C26         7.9630   -8.8670   -2.4220 c3        1 5GZ      0.111300
     26 C27         7.8970  -10.2520   -3.0310 c3        1 5GZ     -0.138600
     27 O28         2.6980   -6.3110   -2.4470 o         1 5GZ     -0.443900
     28 H04         1.9250   -4.0870   -3.5100 ha        1 5GZ      0.173500
     29 H05         1.4190   -1.6470   -3.6320 ha        1 5GZ      0.195000
     30 H06         2.6050   -3.7330    0.7770 ha        1 5GZ      0.173500
     31 H07         2.1040   -1.3030    0.6600 ha        1 5GZ      0.195000
     32 H15         4.1880    2.9250    0.6990 ha        1 5GZ      0.196000
     33 H16         2.1740    3.8750    1.8280 ha        1 5GZ      0.186000
     34 H17        -0.0910    2.9220    1.4030 ha        1 5GZ      0.190000
     35 HN20        5.4500   -4.5210   -2.3040 hn        1 5GZ      0.399800
     36 H21         5.1420   -6.6820   -3.3350 h1        1 5GZ      0.094700
     37 H21A        5.5340   -7.4070   -1.7050 h1        1 5GZ      0.094700
     38 H22         7.8720   -6.3740   -1.8140 hx        1 5GZ      0.109200
     39 H22A        7.4590   -5.6500   -3.4410 hx        1 5GZ      0.109200
     40 H24         9.4570   -8.5010   -4.4180 hx        1 5GZ      0.107200
     41 H24A        9.6560   -6.8730   -3.6050 hx        1 5GZ      0.107200
     42 H25         9.6620   -6.7310   -6.1030 hc        1 5GZ      0.084200
     43 H25A        7.9980   -7.4350   -6.2000 hc        1 5GZ      0.084200
     44 H25B        8.2590   -5.8050   -5.4360 hc        1 5GZ      0.084200
     45 H26         7.1810   -8.7770   -1.6150 hx        1 5GZ      0.107200
     46 H26A        8.9760   -8.6900   -1.9590 hx        1 5GZ      0.107200
     47 H27         8.6950  -10.4170   -3.7950 hc        1 5GZ      0.084200
     48 H27A        6.9020  -10.4550   -3.4980 hc        1 5GZ      0.084200
     49 H27B        8.0520  -10.9960   -2.2060 hc        1 5GZ      0.084200
     50 H202        5.6970   -5.2150   -0.8420 hn        1 5GZ      0.399800
     51 H231        6.9830   -8.0800   -4.0690 hn        1 5GZ      0.448800
     52 S02         2.7650   -5.5620   -1.3130 s4        1 5GZ      1.695300
@<TRIPOS>BOND
     1    1   18 1   
     2    2   52 1   
     3    3    4 ar  
     4    3    6 ar  
     5    3   52 1   
     6    4    5 ar  
     7    4   28 1   
     8    5    8 ar  
     9    5   29 1   
    10    6    7 ar  
    11    6   30 1   
    12    7    8 ar  
    13    7   31 1   
    14    8    9 1   
    15    9   10 1   
    16   10   11 ar  
    17   10   18 ar  
    18   11   12 1   
    19   11   15 ar  
    20   12   13 1   
    21   12   14 1   
    22   15   16 ar  
    23   15   32 1   
    24   16   17 ar  
    25   16   33 1   
    26   17   18 ar  
    27   17   34 1   
    28   19   20 1   
    29   19   35 1   
    30   19   50 1   
    31   20   21 1   
    32   20   36 1   
    33   20   37 1   
    34   21   22 1   
    35   21   38 1   
    36   21   39 1   
    37   22   23 1   
    38   22   25 1   
    39   22   51 1   
    40   23   24 1   
    41   23   40 1   
    42   23   41 1   
    43   24   42 1   
    44   24   43 1   
    45   24   44 1   
    46   25   26 1   
    47   25   45 1   
    48   25   46 1   
    49   26   47 1   
    50   26   48 1   
    51   26   49 1   
    52   27   52 1   
@<TRIPOS>SUBSTRUCTURE
     1 5GZ         1 TEMP              0 ****  ****    0 ROOT
