@<TRIPOS>MOLECULE
5H
   38    40     1     0     0
SMALL
bcc


@<TRIPOS>ATOM
      1 S19         4.5070   -0.2050   -0.3840 sy        1 5H       1.526200
      2 O20         5.7680   -0.5380    0.1450 o         1 5H      -0.633800
      3 O21         4.1410   -0.7520   -1.6200 o         1 5H      -0.633800
      4 N22         3.4170   -0.6270    0.8090 n3        1 5H      -0.649100
      5 C24         4.3660    1.4610   -0.4610 ca        1 5H      -0.397500
      6 C25         3.6370    2.0710   -1.4910 ca        1 5H      -0.006000
      7 C26         3.5450    3.4570   -1.5780 ca        1 5H      -0.156000
      8 C27         4.1830    4.2570   -0.6290 ca        1 5H      -0.056000
      9 C29         4.9180    3.6660    0.3990 ca        1 5H      -0.156000
     10 C30         5.0070    2.2790    0.4790 ca        1 5H      -0.006000
     11 C1         -1.0540    0.4570   -0.0730 c3        1 5H      -0.020100
     12 C2         -2.5260    0.2690    0.0500 ca        1 5H      -0.085300
     13 C4         -3.2330   -0.4600   -0.9120 ca        1 5H      -0.120500
     14 C5         -4.6140   -0.6160   -0.8030 ca        1 5H      -0.101000
     15 C6         -4.5990    0.6890    1.2340 ca        1 5H      -0.101000
     16 C8         -5.3010   -0.0430    0.2700 ca        1 5H      -0.021900
     17 BR1        -7.1550   -0.2520    0.4180 br        1 5H      -0.080100
     18 N1          2.1010   -0.8190    0.6180 n         1 5H      -0.267800
     19 C9          1.5740   -2.1390    0.4520 c         1 5H       0.307000
     20 C14        -0.2940   -0.3720    0.9450 c3        1 5H      -0.107600
     21 C7          1.1290    0.1350    1.0960 c         1 5H       0.685500
     22 C3         -3.2200    0.8430    1.1220 ca        1 5H      -0.120500
     23 S1         -0.1470   -2.0930    0.5050 ss        1 5H      -0.087700
     24 S2          2.3370   -3.4520    0.2110 s         1 5H      -0.210400
     25 O1          1.4240    1.2460    1.5390 o         1 5H      -0.541500
     26 H22         3.7310   -0.8070    1.7430 hn        1 5H       0.447800
     27 H25         3.1430    1.4370   -2.2500 ha        1 5H       0.152500
     28 H26         2.9710    3.9200   -2.3940 ha        1 5H       0.142500
     29 H27         4.1090    5.3540   -0.6930 ha        1 5H       0.138000
     30 H29         5.4270    4.2940    1.1460 ha        1 5H       0.142500
     31 H30         5.6010    1.8120    1.2840 ha        1 5H       0.152500
     32 H11        -0.7130    0.1900   -1.1090 hc        1 5H       0.076700
     33 H12        -0.8060    1.5430    0.0970 hc        1 5H       0.076700
     34 H4         -2.7000   -0.9150   -1.7610 ha        1 5H       0.142500
     35 H5         -5.1550   -1.1940   -1.5690 ha        1 5H       0.150500
     36 H6         -5.1310    1.1480    2.0830 ha        1 5H       0.150500
     37 H14        -0.8030   -0.2950    1.9440 h1        1 5H       0.125700
     38 H3         -2.6730    1.4250    1.8790 ha        1 5H       0.142500
@<TRIPOS>BOND
     1    1    2 2   
     2    1    3 2   
     3    1    4 1   
     4    1    5 1   
     5    4   18 1   
     6    4   26 1   
     7    5    6 ar  
     8    5   10 ar  
     9    6    7 ar  
    10    6   27 1   
    11    7    8 ar  
    12    7   28 1   
    13    8    9 ar  
    14    8   29 1   
    15    9   10 ar  
    16    9   30 1   
    17   10   31 1   
    18   11   12 1   
    19   11   20 1   
    20   11   32 1   
    21   11   33 1   
    22   12   13 ar  
    23   12   22 ar  
    24   13   14 ar  
    25   13   34 1   
    26   14   16 ar  
    27   14   35 1   
    28   15   16 ar  
    29   15   22 ar  
    30   15   36 1   
    31   16   17 1   
    32   18   19 1   
    33   18   21 1   
    34   19   23 1   
    35   19   24 2   
    36   20   21 1   
    37   20   23 1   
    38   20   37 1   
    39   21   25 2   
    40   22   38 1   
@<TRIPOS>SUBSTRUCTURE
     1 5H          1 TEMP              0 ****  ****    0 ROOT
