@<TRIPOS>MOLECULE
5H
   39    40     1     0     0
SMALL
bcc


@<TRIPOS>ATOM
      1 S19        -0.8310   -1.0740    0.1020 s4        1 5H       1.678300
      2 O20        -0.1120   -0.3610    1.0070 o         1 5H      -0.426900
      3 O21        -2.1760   -1.2160    0.1820 o         1 5H      -0.426900
      4 N22        -0.8070    0.7120   -1.4520 n8        1 5H      -0.738800
      5 C24        -0.0350   -2.0560   -0.8210 ca        1 5H      -0.604500
      6 C25        -0.6910   -2.8640   -1.7860 ca        1 5H       0.031000
      7 C26         0.0140   -3.7710   -2.5620 ca        1 5H      -0.154000
      8 C27         1.3970   -3.9010   -2.4080 ca        1 5H       0.024000
      9 C29         2.0730   -3.1080   -1.4710 ca        1 5H      -0.154000
     10 C30         1.3720   -2.2030   -0.6950 ca        1 5H       0.031000
     11 C1         -5.5060    0.3780   -1.9850 c3        1 5H      -0.014100
     12 C2         -6.8060    0.9150   -2.4700 ca        1 5H      -0.111300
     13 C4         -7.6240    1.6660   -1.6200 ca        1 5H      -0.119000
     14 C5         -8.8530    2.1470   -2.0690 ca        1 5H      -0.096500
     15 C6         -8.4630    1.1230   -4.2260 ca        1 5H      -0.096500
     16 C8         -9.2760    1.8800   -3.3750 ca        1 5H      -0.013900
     17 Br1       -10.9220    2.5260   -3.9810 br        1 5H      -0.052100
     18 N1         -2.0960    1.1360   -1.6500 n         1 5H      -0.411800
     19 C9         -2.4750    2.5130   -1.4670 c         1 5H       0.256000
     20 C14        -4.3340    1.1020   -2.6270 c3        1 5H      -0.113600
     21 C7         -3.0420    0.3550   -2.4030 c         1 5H       0.722500
     22 C3         -7.2360    0.6430   -3.7740 ca        1 5H      -0.119000
     23 S1         -4.0770    2.7500   -1.9810 ss        1 5H       0.059300
     24 S2         -1.5570    3.5940   -0.8520 s         1 5H      -0.207400
     25 O1         -2.7760   -0.7930   -2.7680 o         1 5H      -0.579500
     26 H22        -0.3760    0.4810   -2.3450 hn        1 5H       0.419800
     27 H25        -1.7870   -2.7560   -1.9230 ha        1 5H       0.180500
     28 H26        -0.5210   -4.3910   -3.3030 ha        1 5H       0.180500
     29 H27         1.9580   -4.6260   -3.0240 ha        1 5H       0.176000
     30 H29         3.1660   -3.2100   -1.3500 ha        1 5H       0.180500
     31 H30         1.9110   -1.5840    0.0500 ha        1 5H       0.180500
     32 H11        -5.4330   -0.7150   -2.2470 hc        1 5H       0.080200
     33 H12        -5.4390    0.4620   -0.8670 hc        1 5H       0.080200
     34 H4         -7.3060    1.8770   -0.5870 ha        1 5H       0.139000
     35 H5         -9.4870    2.7360   -1.3870 ha        1 5H       0.159000
     36 H6         -8.7890    0.8990   -5.2550 ha        1 5H       0.159000
     37 H14        -4.5130    1.1760   -3.7370 h1        1 5H       0.145700
     38 H3         -6.6080    0.0380   -4.4460 ha        1 5H       0.139000
     39 H222       -0.2760    1.4880   -1.0310 hn        1 5H       0.419800
@<TRIPOS>BOND
     1    1    2 1   
     2    1    3 1   
     3    1    5 1   
     4    4   18 1   
     5    4   26 1   
     6    4   39 1   
     7    5    6 ar  
     8    5   10 ar  
     9    6    7 ar  
    10    6   27 1   
    11    7    8 ar  
    12    7   28 1   
    13    8    9 ar  
    14    8   29 1   
    15    9   10 ar  
    16    9   30 1   
    17   10   31 1   
    18   11   12 1   
    19   11   20 1   
    20   11   32 1   
    21   11   33 1   
    22   12   13 ar  
    23   12   22 ar  
    24   13   14 ar  
    25   13   34 1   
    26   14   16 ar  
    27   14   35 1   
    28   15   16 ar  
    29   15   22 ar  
    30   15   36 1   
    31   16   17 1   
    32   18   19 1   
    33   18   21 1   
    34   19   23 1   
    35   19   24 2   
    36   20   21 1   
    37   20   23 1   
    38   20   37 1   
    39   21   25 2   
    40   22   38 1   
@<TRIPOS>SUBSTRUCTURE
     1 5H          1 TEMP              0 ****  ****    0 ROOT
