@<TRIPOS>MOLECULE
5H
   39    40     1     0     0
SMALL
bcc


@<TRIPOS>ATOM
      1 S19        -0.8570   -1.0940    0.1200 s4        1 5H       1.678300
      2 O20        -0.1370   -0.3840    1.0280 o         1 5H      -0.426900
      3 O21        -2.2040   -1.2240    0.1920 o         1 5H      -0.426900
      4 N22        -0.8060    0.6880   -1.4390 n3        1 5H      -0.738800
      5 C24        -0.0640   -2.0860   -0.7950 ca        1 5H      -0.604500
      6 C25        -0.7210   -2.8900   -1.7610 ca        1 5H       0.031000
      7 C26        -0.0200   -3.8060   -2.5300 ca        1 5H      -0.154000
      8 C27         1.3610   -3.9480   -2.3670 ca        1 5H       0.024000
      9 C29         2.0390   -3.1590   -1.4280 ca        1 5H      -0.154000
     10 C30         1.3410   -2.2450   -0.6590 ca        1 5H       0.031000
     11 C1         -5.5050    0.3940   -2.0020 c3        1 5H      -0.014100
     12 C2         -6.7970    0.9410   -2.4980 ca        1 5H      -0.111300
     13 C4         -7.6140    1.7020   -1.6570 ca        1 5H      -0.119000
     14 C5         -8.8350    2.1930   -2.1170 ca        1 5H      -0.096500
     15 C6         -8.4390    1.1570   -4.2670 ca        1 5H      -0.096500
     16 C8         -9.2510    1.9240   -3.4240 ca        1 5H      -0.013900
     17 BR1       -10.8870    2.5830   -4.0440 br        1 5H      -0.052100
     18 N1         -2.0900    1.1230   -1.6470 n         1 5H      -0.411800
     19 C9         -2.4580    2.5030   -1.4720 c         1 5H       0.256000
     20 C14        -4.3220    1.1050   -2.6390 c3        1 5H      -0.113600
     21 C7         -3.0380    0.3480   -2.4030 c         1 5H       0.722500
     22 C3         -7.2200    0.6680   -3.8040 ca        1 5H      -0.119000
     23 S1         -4.0540    2.7530   -1.9960 ss        1 5H       0.059300
     24 S2         -1.5340    3.5780   -0.8540 s         1 5H      -0.207400
     25 O1         -2.7810   -0.8040   -2.7640 o         1 5H      -0.579500
     26 H22        -0.3720    0.4490   -2.3290 hn        1 5H       0.419800
     27 H25        -1.8150   -2.7730   -1.9060 ha        1 5H       0.180500
     28 H26        -0.5550   -4.4240   -3.2720 ha        1 5H       0.180500
     29 H27         1.9200   -4.6810   -2.9770 ha        1 5H       0.176000
     30 H29         3.1300   -3.2700   -1.3000 ha        1 5H       0.180500
     31 H30         1.8810   -1.6290    0.0860 ha        1 5H       0.180500
     32 H11        -5.4440    0.4810   -0.8840 hc        1 5H       0.080200
     33 H12        -5.4390   -0.7010   -2.2600 hc        1 5H       0.080200
     34 H4         -7.3000    1.9150   -0.6230 ha        1 5H       0.139000
     35 H5         -9.4690    2.7900   -1.4410 ha        1 5H       0.159000
     36 H6         -8.7600    0.9310   -5.2970 ha        1 5H       0.159000
     37 H14        -4.4930    1.1780   -3.7500 h1        1 5H       0.145700
     38 H3         -6.5930    0.0550   -4.4700 ha        1 5H       0.139000
     39 H222       -0.2710    1.4600   -1.0170 hn        1 5H       0.419800
@<TRIPOS>BOND
     1    1    2 1   
     2    1    3 1   
     3    1    5 1   
     4    4   18 1   
     5    4   26 1   
     6    4   39 1   
     7    5    6 ar  
     8    5   10 ar  
     9    6    7 ar  
    10    6   27 1   
    11    7    8 ar  
    12    7   28 1   
    13    8    9 ar  
    14    8   29 1   
    15    9   10 ar  
    16    9   30 1   
    17   10   31 1   
    18   11   12 1   
    19   11   20 1   
    20   11   32 1   
    21   11   33 1   
    22   12   13 ar  
    23   12   22 ar  
    24   13   14 ar  
    25   13   34 1   
    26   14   16 ar  
    27   14   35 1   
    28   15   16 ar  
    29   15   22 ar  
    30   15   36 1   
    31   16   17 1   
    32   18   19 1   
    33   18   21 1   
    34   19   23 1   
    35   19   24 2   
    36   20   21 1   
    37   20   23 1   
    38   20   37 1   
    39   21   25 2   
    40   22   38 1   
@<TRIPOS>SUBSTRUCTURE
     1 5H          1 TEMP              0 ****  ****    0 ROOT
