@<TRIPOS>MOLECULE
5H
   39    40     1     0     0
SMALL
bcc


@<TRIPOS>ATOM
      1 S19        -0.8580   -1.1880    0.0810 s4        1 5H       1.678300
      2 O20        -0.1540   -0.5250    1.0350 o         1 5H      -0.426900
      3 O21        -2.2040   -1.3370    0.1340 o         1 5H      -0.426900
      4 N22        -0.8180    0.6840   -1.3680 n3        1 5H      -0.738800
      5 C24        -0.0460   -2.1140   -0.8850 ca        1 5H      -0.604500
      6 C25        -0.6860   -2.8670   -1.9020 ca        1 5H       0.031000
      7 C26         0.0320   -3.7270   -2.7200 ca        1 5H      -0.154000
      8 C27         1.4130   -3.8620   -2.5540 ca        1 5H       0.024000
      9 C29         2.0740   -3.1220   -1.5640 ca        1 5H      -0.154000
     10 C30         1.3600   -2.2640   -0.7480 ca        1 5H       0.031000
     11 C1         -5.5080    0.3700   -1.9860 c3        1 5H      -0.014100
     12 C2         -6.8030    0.9310   -2.4580 ca        1 5H      -0.111300
     13 C4         -7.6350    1.6320   -1.5780 ca        1 5H      -0.119000
     14 C5         -8.8590    2.1350   -2.0170 ca        1 5H      -0.096500
     15 C6         -8.4350    1.2360   -4.2230 ca        1 5H      -0.096500
     16 C8         -9.2620    1.9410   -3.3420 ca        1 5H      -0.013900
     17 BR1       -10.9010    2.6180   -3.9330 br        1 5H      -0.052100
     18 N1         -2.1060    1.1160   -1.5610 n         1 5H      -0.411800
     19 C9         -2.4910    2.4790   -1.3060 c         1 5H       0.256000
     20 C14        -4.3290    1.1320   -2.5700 c3        1 5H      -0.113600
     21 C7         -3.0380    0.3760   -2.3690 c         1 5H       0.722500
     22 C3         -7.2140    0.7330   -3.7810 ca        1 5H      -0.119000
     23 S1         -4.0860    2.7420   -1.8280 ss        1 5H       0.059300
     24 S2         -1.5840    3.5260   -0.6180 s         1 5H      -0.207400
     25 O1         -2.7640   -0.7490   -2.7950 o         1 5H      -0.579500
     26 H22        -0.2950    1.4360   -0.8970 hn        1 5H       0.419800
     27 H25        -1.7810   -2.7550   -2.0490 ha        1 5H       0.180500
     28 H26        -0.4910   -4.3060   -3.5010 ha        1 5H       0.180500
     29 H27         1.9850   -4.5500   -3.2030 ha        1 5H       0.176000
     30 H29         3.1650   -3.2280   -1.4350 ha        1 5H       0.180500
     31 H30         1.8860   -1.6870    0.0370 ha        1 5H       0.180500
     32 H11        -5.4560    0.3910   -0.8640 hc        1 5H       0.080200
     33 H12        -5.4280   -0.7060   -2.3080 hc        1 5H       0.080200
     34 H4         -7.3310    1.7840   -0.5310 ha        1 5H       0.139000
     35 H5         -9.5040    2.6840   -1.3110 ha        1 5H       0.159000
     36 H6         -8.7460    1.0700   -5.2670 ha        1 5H       0.159000
     37 H14        -4.4930    1.2680   -3.6760 h1        1 5H       0.145700
     38 H3         -6.5750    0.1690   -4.4770 ha        1 5H       0.139000
     39 H222       -0.3740    0.5040   -2.2680 hn        1 5H       0.419800
@<TRIPOS>BOND
     1    1    2 1   
     2    1    3 1   
     3    1    5 1   
     4    4   18 1   
     5    4   26 1   
     6    4   39 1   
     7    5    6 ar  
     8    5   10 ar  
     9    6    7 ar  
    10    6   27 1   
    11    7    8 ar  
    12    7   28 1   
    13    8    9 ar  
    14    8   29 1   
    15    9   10 ar  
    16    9   30 1   
    17   10   31 1   
    18   11   12 1   
    19   11   20 1   
    20   11   32 1   
    21   11   33 1   
    22   12   13 ar  
    23   12   22 ar  
    24   13   14 ar  
    25   13   34 1   
    26   14   16 ar  
    27   14   35 1   
    28   15   16 ar  
    29   15   22 ar  
    30   15   36 1   
    31   16   17 1   
    32   18   19 1   
    33   18   21 1   
    34   19   23 1   
    35   19   24 2   
    36   20   21 1   
    37   20   23 1   
    38   20   37 1   
    39   21   25 2   
    40   22   38 1   
@<TRIPOS>SUBSTRUCTURE
     1 5H          1 TEMP              0 ****  ****    0 ROOT
