@<TRIPOS>MOLECULE
5H
   38    34     1     0     0
SMALL
bcc


@<TRIPOS>ATOM
      1 S19         2.9320    0.6680   -0.7930 ss        1 5H       2.868000
      2 O20         2.2150    1.3020   -1.8770 o         1 5H      -0.914500
      3 O21         3.5270    1.8030   -0.1520 o         1 5H      -0.914500
      4 N22         1.9010   -0.1240    0.2240 n2        1 5H      -0.748000
      5 C24         4.1610   -0.4440   -1.4010 c1        1 5H      -0.850000
      6 C25         5.5090   -0.1180   -1.2930 c1        1 5H      -0.015000
      7 C26         6.4880   -0.9600   -1.8680 c1        1 5H      -0.109000
      8 C27         6.1030   -2.1130   -2.5420 c1        1 5H      -0.109000
      9 C29         4.7440   -2.4420   -2.6520 c1        1 5H      -0.159000
     10 C30         3.7740   -1.6090   -2.0820 c2        1 5H       0.000000
     11 C1         -2.4200   -0.1140    0.9380 c3        1 5H      -0.108000
     12 C2         -3.9220    0.1900    1.0740 c2        1 5H      -0.078000
     13 C4         -4.5160    0.2100    2.3320 c2        1 5H      -0.117000
     14 C5         -5.8800    0.4290    2.4510 c1        1 5H      -0.101000
     15 C6         -6.0630    0.6090    0.0570 c1        1 5H      -0.100000
     16 C8         -6.6560    0.6290    1.3080 c1        1 5H      -0.162000
     17 BR1        -8.5390    0.8770    1.4650 br        1 5H       0.060000
     18 N1          0.8120    0.5420    0.7640 n         1 5H      -0.174000
     19 C9          0.7130    1.0370    2.0700 c2        1 5H      -0.212000
     20 C14        -1.6360    1.1880    0.9550 c3        1 5H      -0.278000
     21 C7         -0.4550    1.0930   -0.0470 c2        1 5H       0.312000
     22 C3         -4.6950    0.3890   -0.0620 c1        1 5H      -0.125000
     23 S1         -0.8920    1.3360    2.3510 ss        1 5H       0.280000
     24 S2          1.9420    1.0210    3.2370 s         1 5H       0.052000
     25 O1         -0.5330    1.2180   -1.2660 o         1 5H      -0.286000
     26 H22         2.0060   -1.0140    0.3710 hn        1 5H       0.242000
     27 H25         5.7800    0.6960   -0.8160 ha        1 5H       0.163000
     28 H26         7.4380   -0.7310   -1.7920 ha        1 5H       0.141500
     29 H27         6.7790   -2.6940   -2.9390 ha        1 5H       0.141500
     30 H29         4.4730   -3.2550   -3.1270 ha        1 5H       0.145000
     31 H30         2.8150   -1.8420   -2.1600 ha        1 5H       0.166000
     32 H11        -2.2550   -0.5890    0.0820 hc        1 5H       0.116500
     33 H12        -2.1380   -0.6680    1.6700 hc        1 5H       0.116500
     34 H4         -3.9840    0.0730    3.1130 ha        1 5H       0.143000
     35 H5         -6.2970    0.4440    3.3320 ha        1 5H       0.151000
     36 H6         -6.6000    0.7470   -0.7330 ha        1 5H       0.151000
     37 H14        -2.3490    1.8420    0.7520 h1        1 5H       0.173000
     38 H3         -4.2800    0.3750   -0.9430 ha        1 5H       0.141000
@<TRIPOS>BOND
     1    1    2 1   
     2    1    3 1   
     3    4   18 1   
     4    4   26 1   
     5    5    6 1   
     6    5   10 1   
     7    6   27 1   
     8    7    8 1   
     9    7   28 1   
    10    8   29 1   
    11    9   10 1   
    12    9   30 1   
    13   10   31 1   
    14   11   12 1   
    15   11   20 1   
    16   11   32 1   
    17   11   33 1   
    18   12   13 1   
    19   12   22 1   
    20   13   14 1   
    21   13   34 1   
    22   14   35 1   
    23   15   16 1   
    24   15   36 1   
    25   16   17 1   
    26   18   19 1   
    27   18   21 1   
    28   19   23 1   
    29   19   24 1   
    30   20   21 1   
    31   20   23 1   
    32   20   37 1   
    33   21   25 1   
    34   22   38 1   
@<TRIPOS>SUBSTRUCTURE
     1 5H          1 TEMP              0 ****  ****    0 ROOT
