@<TRIPOS>MOLECULE
5H1
   17    18     1     0     0
SMALL
bcc


@<TRIPOS>ATOM
      1 O10         0.0160    0.1910    0.2080 oh        1 5H1     -0.503100
      2 C5          1.3890    0.1240    0.0750 ca        1 5H1      0.099100
      3 C6          2.1100    0.0450    1.2920 ca        1 5H1     -0.135000
      4 C7          3.4900   -0.0260    1.2860 ca        1 5H1     -0.112000
      5 C8          4.1510   -0.0180    0.0470 ca        1 5H1     -0.079200
      6 N1          5.5130   -0.0770   -0.2650 na        1 5H1     -0.192400
      7 C4          2.0200    0.1340   -1.1670 ca        1 5H1     -0.174000
      8 C9          3.4130    0.0630   -1.1950 ca        1 5H1     -0.057800
      9 C3          4.3930    0.0490   -2.2560 cc        1 5H1     -0.198200
     10 C2          5.6470   -0.0360   -1.6540 cd        1 5H1     -0.100100
     11 HO10       -0.3640    0.2410   -0.6800 ho        1 5H1      0.416000
     12 H6          1.5480    0.0420    2.2370 ha        1 5H1      0.149000
     13 H7          4.0530   -0.0870    2.2280 ha        1 5H1      0.134000
     14 H4          1.4450    0.1960   -2.1000 ha        1 5H1      0.137000
     15 H3          4.1820    0.0970   -3.3190 ha        1 5H1      0.157000
     16 H2          6.6350   -0.0710   -2.1160 h4        1 5H1      0.164000
     17 HN1         6.2460   -0.1370    0.3880 hn        1 5H1      0.297700
@<TRIPOS>BOND
     1    1    2 1   
     2    1   11 1   
     3    2    3 ar  
     4    2    7 ar  
     5    3    4 ar  
     6    3   12 1   
     7    4    5 ar  
     8    4   13 1   
     9    5    6 1   
    10    5    8 ar  
    11    6   10 1   
    12    6   17 1   
    13    7    8 ar  
    14    7   14 1   
    15    8    9 1   
    16    9   10 2   
    17    9   15 1   
    18   10   16 1   
@<TRIPOS>SUBSTRUCTURE
     1 5H1         1 TEMP              0 ****  ****    0 ROOT
