@<TRIPOS>MOLECULE
5H1
   17    11     1     0     0
SMALL
bcc


@<TRIPOS>ATOM
      1 O10        -3.3200    0.0470    0.3970 oh        1 5H1     -0.257000
      2 C5         -1.9130    0.0470    0.3970 c2        1 5H1      0.054000
      3 C6         -1.2360    0.0470    1.6090 c2        1 5H1     -0.135000
      4 C7          0.1510    0.0470    1.6290 c1        1 5H1     -0.112000
      5 C8          0.8710    0.0470    0.4220 c1        1 5H1     -0.040000
      6 N1          2.2280    0.0470    0.1530 n1        1 5H1     -0.215000
      7 C4         -1.2030    0.0470   -0.7950 c1        1 5H1     -0.174000
      8 C9          0.2020    0.0470   -0.7750 c1        1 5H1     -0.040000
      9 C3          1.1400    0.0470   -1.7850 c1        1 5H1     -0.210000
     10 C2          2.3920    0.0470   -1.2040 c1        1 5H1     -0.073000
     11 HO10       -3.6160   -0.7860    0.3210 ho        1 5H1      0.215000
     12 H6         -1.7360    0.0610    2.4470 ha        1 5H1      0.149000
     13 H7          0.6270    0.0470    2.4810 ha        1 5H1      0.134000
     14 H4         -1.6790    0.0630   -1.6470 ha        1 5H1      0.137000
     15 H3          0.9510    0.0470   -2.7430 DU        1 5H1      0.189667
     16 H2          3.2450    0.0470   -1.6790 DU        1 5H1      0.189667
     17 HN1         2.8970    0.0470    0.7730 DU        1 5H1      0.189667
@<TRIPOS>BOND
     1    1    2 1   
     2    1   11 1   
     3    2    3 1   
     4    2    7 1   
     5    3    4 1   
     6    3   12 1   
     7    4   13 1   
     8    5    8 1   
     9    6   10 1   
    10    7   14 1   
    11    9   10 1   
@<TRIPOS>SUBSTRUCTURE
     1 5H1         1 TEMP              0 ****  ****    0 ROOT
