@<TRIPOS>MOLECULE
5H1
   17    18     1     0     0
SMALL
bcc


@<TRIPOS>ATOM
      1 O10        -3.1820    0.3840    0.1700 oh        1 5H1     -0.503100
      2 C5         -1.8340    0.0930    0.1140 ca        1 5H1      0.099100
      3 C6         -1.5160   -1.2870    0.0480 ca        1 5H1     -0.135000
      4 C7         -0.1990   -1.7020   -0.0120 ca        1 5H1     -0.112000
      5 C8          0.8070   -0.7220   -0.0050 ca        1 5H1     -0.079200
      6 N1          2.2000   -0.8400   -0.0550 na        1 5H1     -0.192400
      7 C4         -0.8550    1.0840    0.1230 ca        1 5H1     -0.174000
      8 C9          0.4810    0.6850    0.0630 ca        1 5H1     -0.057800
      9 C3          1.7370    1.3980    0.0510 cc        1 5H1     -0.198200
     10 C2          2.7490    0.4430   -0.0210 cd        1 5H1     -0.100100
     11 HO10       -3.2750    1.3460    0.2120 ho        1 5H1      0.416000
     12 H6         -2.3390   -2.0160    0.0450 ha        1 5H1      0.149000
     13 H7          0.0510   -2.7700   -0.0640 ha        1 5H1      0.134000
     14 H4         -1.1190    2.1480    0.1740 ha        1 5H1      0.137000
     15 H3          1.8600    2.4750    0.0910 ha        1 5H1      0.157000
     16 H2          3.8320    0.5830   -0.0510 h4        1 5H1      0.164000
     17 HN1         2.7000   -1.6850   -0.1060 hn        1 5H1      0.297700
@<TRIPOS>BOND
     1    1    2 1   
     2    1   11 1   
     3    2    3 ar  
     4    2    7 ar  
     5    3    4 ar  
     6    3   12 1   
     7    4    5 ar  
     8    4   13 1   
     9    5    6 1   
    10    5    8 ar  
    11    6   10 1   
    12    6   17 1   
    13    7    8 ar  
    14    7   14 1   
    15    8    9 1   
    16    9   10 2   
    17    9   15 1   
    18   10   16 1   
@<TRIPOS>SUBSTRUCTURE
     1 5H1         1 TEMP              0 ****  ****    0 ROOT
