@<TRIPOS>MOLECULE
5H3
   46    48     1     0     0
SMALL
bcc


@<TRIPOS>ATOM
      1 F23         0.0720    0.2290   -0.0700 f         1 5H3     -0.121900
      2 C23         1.4210    0.1740    0.0060 ca        1 5H3      0.144900
      3 C24         2.0580    0.1760    1.2630 ca        1 5H3     -0.138000
      4 C25         3.4470    0.1180    1.3220 ca        1 5H3     -0.092000
      5 C22         2.1810    0.1160   -1.1750 ca        1 5H3     -0.168000
      6 C21         3.5750    0.0630   -1.0940 ca        1 5H3     -0.098300
      7 C26         4.2070    0.0630    0.1520 ca        1 5H3     -0.129000
      8 C20         4.3800   -0.0200   -2.3450 c3        1 5H3     -0.051100
      9 C19         4.4270    1.3620   -2.9980 c3        1 5H3      0.098800
     10 N18         5.1840    1.3620   -4.2840 n4        1 5H3     -0.767000
     11 C17         5.2090    2.7200   -4.9240 c3        1 5H3      0.171100
     12 C15         6.0510    2.7110   -6.1560 ca        1 5H3     -0.151300
     13 C14         5.4600    2.8630   -7.4100 ca        1 5H3     -0.126000
     14 C13         6.2750    2.9090   -8.5440 ca        1 5H3     -0.083000
     15 C12         7.6520    2.7740   -8.4380 ca        1 5H3     -0.142000
     16 C16         7.4380    2.5910   -6.0240 ca        1 5H3     -0.183000
     17 C11         8.2650    2.6000   -7.1680 ca        1 5H3      0.176600
     18 N07         9.6530    2.5160   -7.0570 nh        1 5H3     -0.766600
     19 C06        10.2970    1.6310   -6.1330 ce        1 5H3      0.726800
     20 N08         9.7530    0.6500   -5.4810 n2        1 5H3     -0.809100
     21 C05        11.7260    1.9310   -5.9580 cc        1 5H3     -0.230000
     22 S01        12.3980    3.4690   -6.0970 ss        1 5H3      0.060200
     23 C02        13.9370    2.9420   -5.7500 cc        1 5H3     -0.142100
     24 C03        13.9810    1.5830   -5.5130 cd        1 5H3     -0.165000
     25 C04        12.6890    0.9890   -5.6310 cd        1 5H3     -0.077000
     26 H1          1.4520    0.2170    2.1810 ha        1 5H3      0.169000
     27 H2          3.9500    0.1110    2.3020 ha        1 5H3      0.158000
     28 H3          1.6680    0.0970   -2.1470 ha        1 5H3      0.145000
     29 H4          5.3040    0.0080    0.2200 ha        1 5H3      0.141000
     30 H5          3.9110   -0.7660   -3.0430 hc        1 5H3      0.073200
     31 H6          5.4200   -0.3750   -2.1110 hc        1 5H3      0.073200
     32 H7          4.9220    2.0980   -2.3020 hx        1 5H3      0.109700
     33 H8          3.3780    1.7190   -3.2100 hx        1 5H3      0.109700
     34 H9          6.1510    1.0570   -4.1150 hn        1 5H3      0.450800
     35 H11         4.1450    3.0120   -5.1580 hx        1 5H3      0.109700
     36 H12         5.6270    3.4470   -4.1670 hx        1 5H3      0.109700
     37 H13         4.3700    2.9650   -7.5140 ha        1 5H3      0.146000
     38 H14         5.8160    3.0500   -9.5370 ha        1 5H3      0.161000
     39 H15         8.2710    2.8120   -9.3500 ha        1 5H3      0.159000
     40 H16         7.8840    2.5480   -5.0180 ha        1 5H3      0.143000
     41 H17        10.1800    2.7540   -7.8700 hn        1 5H3      0.449800
     42 H18         8.7930    0.4630   -5.6770 hn        1 5H3      0.372400
     43 H19        14.7960    3.6140   -5.7180 h4        1 5H3      0.185000
     44 H20        14.8810    1.0150   -5.2650 ha        1 5H3      0.170000
     45 H21        12.4970   -0.0770   -5.4760 ha        1 5H3      0.174000
     46 H182        4.7580    0.6920   -4.9330 hn        1 5H3      0.450800
@<TRIPOS>BOND
     1    1    2 1   
     2    2    3 ar  
     3    2    5 ar  
     4    3    4 ar  
     5    3   26 1   
     6    4    7 ar  
     7    4   27 1   
     8    5    6 ar  
     9    5   28 1   
    10    6    7 ar  
    11    6    8 1   
    12    7   29 1   
    13    8    9 1   
    14    8   30 1   
    15    8   31 1   
    16    9   10 1   
    17    9   32 1   
    18    9   33 1   
    19   10   11 1   
    20   10   34 1   
    21   10   46 1   
    22   11   12 1   
    23   11   35 1   
    24   11   36 1   
    25   12   13 ar  
    26   12   16 ar  
    27   13   14 ar  
    28   13   37 1   
    29   14   15 ar  
    30   14   38 1   
    31   15   17 ar  
    32   15   39 1   
    33   16   17 ar  
    34   16   40 1   
    35   17   18 1   
    36   18   19 1   
    37   18   41 1   
    38   19   20 2   
    39   19   21 1   
    40   20   42 1   
    41   21   22 1   
    42   21   25 2   
    43   22   23 1   
    44   23   24 2   
    45   23   43 1   
    46   24   25 1   
    47   24   44 1   
    48   25   45 1   
@<TRIPOS>SUBSTRUCTURE
     1 5H3         1 TEMP              0 ****  ****    0 ROOT
