@<TRIPOS>MOLECULE
5H3
   47    49     1     0     0
SMALL
bcc


@<TRIPOS>ATOM
      1 F23        -0.1660    1.5530    0.0520 f         1 5H3     -0.114900
      2 C23         0.9890    0.8540    0.0860 ca        1 5H3      0.151900
      3 C24         1.4360    0.2810    1.2950 ca        1 5H3     -0.128000
      4 C25         2.6280   -0.4340    1.3090 ca        1 5H3     -0.087000
      5 C22         1.7430    0.7020   -1.0910 ca        1 5H3     -0.173000
      6 C21         2.9410   -0.0170   -1.0530 ca        1 5H3     -0.111300
      7 C26         3.3840   -0.5850    0.1440 ca        1 5H3     -0.126000
      8 C20         3.7220   -0.2030   -2.3080 c3        1 5H3     -0.047100
      9 C19         4.4240    1.1140   -2.6430 c3        1 5H3      0.100800
     10 N18         5.1730    1.0450   -3.9420 n4        1 5H3     -0.766000
     11 C17         5.8440    2.3430   -4.2610 c3        1 5H3      0.156100
     12 C15         6.5010    2.3510   -5.6060 ca        1 5H3     -0.145300
     13 C14         5.7250    2.2530   -6.7680 ca        1 5H3     -0.073000
     14 C13         6.3260    2.3480   -8.0220 ca        1 5H3     -0.084000
     15 C12         7.7000    2.5610   -8.1340 ca        1 5H3     -0.075000
     16 C16         7.8810    2.5560   -5.6990 ca        1 5H3     -0.071000
     17 C11         8.4810    2.6710   -6.9680 ca        1 5H3     -0.045400
     18 N07         9.9120    2.9320   -7.0770 n4        1 5H3     -0.687400
     19 C06        10.7970    1.6560   -7.1300 ce        1 5H3      0.692800
     20 N08        10.3600    0.4960   -7.3950 n2        1 5H3     -0.702100
     21 C05        12.1800    1.9980   -6.8700 cc        1 5H3     -0.361000
     22 S01        13.4570    1.2840   -7.6810 ss        1 5H3      0.304200
     23 C02        14.6000    2.0940   -6.8420 cc        1 5H3     -0.158100
     24 C03        14.0570    2.9430   -5.8780 cd        1 5H3     -0.138000
     25 C04        12.6470    2.8860   -5.8860 cd        1 5H3     -0.119000
     26 H1          0.8330    0.4010    2.2090 ha        1 5H3      0.178000
     27 H2          2.9760   -0.8930    2.2500 ha        1 5H3      0.164000
     28 H3          1.3670    1.1330   -2.0300 ha        1 5H3      0.141000
     29 H4          4.3180   -1.1650    0.1750 ha        1 5H3      0.140000
     30 H5          3.0270   -0.5010   -3.1390 hc        1 5H3      0.074200
     31 H6          4.4760   -1.0250   -2.1760 hc        1 5H3      0.074200
     32 H7          3.6610    1.9420   -2.7240 hx        1 5H3      0.115700
     33 H8          5.1610    1.3760   -1.8310 hx        1 5H3      0.115700
     34 H9          4.5180    0.8020   -4.6950 hn        1 5H3      0.451300
     35 H11         6.5940    2.5500   -3.4420 hx        1 5H3      0.124200
     36 H12         5.0550    3.1550   -4.2270 hx        1 5H3      0.124200
     37 H13         4.6300    2.1260   -6.7050 ha        1 5H3      0.165000
     38 H14         5.7110    2.2710   -8.9380 ha        1 5H3      0.197000
     39 H15         8.1490    2.6560   -9.1400 ha        1 5H3      0.182000
     40 H16         8.4860    2.6460   -4.7790 ha        1 5H3      0.165000
     41 H17        10.0990    3.4700   -7.9340 hn        1 5H3      0.467800
     42 H18         9.4100    0.3080   -7.6250 hn        1 5H3      0.454400
     43 H19        15.6780    1.9790   -7.0110 h4        1 5H3      0.216000
     44 H20        14.6420    3.5710   -5.1980 ha        1 5H3      0.192000
     45 H21        12.0330    3.4500   -5.1800 ha        1 5H3      0.146000
     46 H182        5.8730    0.2960   -3.8860 hn        1 5H3      0.451300
     47 H072       10.2220    3.4980   -6.2760 hn        1 5H3      0.467800
@<TRIPOS>BOND
     1    1    2 1   
     2    2    3 ar  
     3    2    5 ar  
     4    3    4 ar  
     5    3   26 1   
     6    4    7 ar  
     7    4   27 1   
     8    5    6 ar  
     9    5   28 1   
    10    6    7 ar  
    11    6    8 1   
    12    7   29 1   
    13    8    9 1   
    14    8   30 1   
    15    8   31 1   
    16    9   10 1   
    17    9   32 1   
    18    9   33 1   
    19   10   11 1   
    20   10   34 1   
    21   10   46 1   
    22   11   12 1   
    23   11   35 1   
    24   11   36 1   
    25   12   13 ar  
    26   12   16 ar  
    27   13   14 ar  
    28   13   37 1   
    29   14   15 ar  
    30   14   38 1   
    31   15   17 ar  
    32   15   39 1   
    33   16   17 ar  
    34   16   40 1   
    35   17   18 1   
    36   18   19 1   
    37   18   41 1   
    38   18   47 1   
    39   19   20 2   
    40   19   21 1   
    41   20   42 1   
    42   21   22 1   
    43   21   25 2   
    44   22   23 1   
    45   23   24 2   
    46   23   43 1   
    47   24   25 1   
    48   24   44 1   
    49   25   45 1   
@<TRIPOS>SUBSTRUCTURE
     1 5H3         1 TEMP              0 ****  ****    0 ROOT
