@<TRIPOS>MOLECULE
5H3
   46    48     1     0     0
SMALL
bcc


@<TRIPOS>ATOM
      1 F23         0.0750    0.2340   -0.0620 f         1 5H3     -0.121900
      2 C23         1.4240    0.1730    0.0110 ca        1 5H3      0.144900
      3 C24         2.0630    0.1630    1.2680 ca        1 5H3     -0.138000
      4 C25         3.4510    0.0980    1.3240 ca        1 5H3     -0.092000
      5 C22         2.1830    0.1180   -1.1710 ca        1 5H3     -0.168000
      6 C21         3.5770    0.0590   -1.0920 ca        1 5H3     -0.098300
      7 C26         4.2100    0.0470    0.1540 ca        1 5H3     -0.129000
      8 C20         4.3790   -0.0190   -2.3440 c3        1 5H3     -0.051100
      9 C19         4.4310    1.3660   -2.9890 c3        1 5H3      0.098800
     10 N18         5.1850    1.3710   -4.2760 ny        1 5H3     -0.767000
     11 C17         5.2160    2.7340   -4.9070 c3        1 5H3      0.171100
     12 C15         6.0520    2.7280   -6.1430 ca        1 5H3     -0.151300
     13 C14         5.4570    2.8910   -7.3930 ca        1 5H3     -0.126000
     14 C13         6.2680    2.9410   -8.5310 ca        1 5H3     -0.083000
     15 C12         7.6440    2.7980   -8.4310 ca        1 5H3     -0.142000
     16 C16         7.4390    2.6000   -6.0170 ca        1 5H3     -0.183000
     17 C11         8.2620    2.6120   -7.1650 ca        1 5H3      0.176600
     18 N07         9.6500    2.5210   -7.0610 nu        1 5H3     -0.766600
     19 C06        10.2930    1.6250   -6.1460 ce        1 5H3      0.726800
     20 N08         9.7470    0.6440   -5.4970 n2        1 5H3     -0.809100
     21 C05        11.7240    1.9170   -5.9750 cc        1 5H3     -0.230000
     22 S01        12.4030    3.4530   -6.1060 ss        1 5H3      0.060200
     23 C02        13.9410    2.9150   -5.7710 cc        1 5H3     -0.142100
     24 C03        13.9790    1.5540   -5.5440 cd        1 5H3     -0.165000
     25 C04        12.6840    0.9670   -5.6590 cd        1 5H3     -0.077000
     26 H1          1.4580    0.2010    2.1870 ha        1 5H3      0.169000
     27 H2          3.9560    0.0820    2.3040 ha        1 5H3      0.158000
     28 H3          1.6680    0.1080   -2.1430 ha        1 5H3      0.145000
     29 H4          5.3070   -0.0130    0.2190 ha        1 5H3      0.141000
     30 H5          5.4180   -0.3810   -2.1150 hc        1 5H3      0.073200
     31 H6          3.9060   -0.7590   -3.0460 hc        1 5H3      0.073200
     32 H7          3.3830    1.7300   -3.1950 hx        1 5H3      0.109700
     33 H8          4.9320    2.0960   -2.2890 hx        1 5H3      0.109700
     34 H9          6.1500    1.0590   -4.1120 hn        1 5H3      0.450800
     35 H11         5.6410    3.4520   -4.1470 hx        1 5H3      0.109700
     36 H12         4.1530    3.0340   -5.1340 hx        1 5H3      0.109700
     37 H13         4.3670    2.9990   -7.4920 ha        1 5H3      0.146000
     38 H14         5.8050    3.0900   -9.5210 ha        1 5H3      0.161000
     39 H15         8.2590    2.8380   -9.3450 ha        1 5H3      0.159000
     40 H16         7.8900    2.5480   -5.0140 ha        1 5H3      0.143000
     41 H17        10.1740    2.7610   -7.8750 hn        1 5H3      0.449800
     42 H18         8.7840    0.4630   -5.6900 hn        1 5H3      0.372400
     43 H19        14.8040    3.5820   -5.7370 h4        1 5H3      0.185000
     44 H20        14.8780    0.9800   -5.3040 ha        1 5H3      0.170000
     45 H21        12.4870   -0.0990   -5.5120 ha        1 5H3      0.174000
     46 H182        4.7530    0.7080   -4.9290 hn        1 5H3      0.450800
@<TRIPOS>BOND
     1    1    2 1   
     2    2    3 ar  
     3    2    5 ar  
     4    3    4 ar  
     5    3   26 1   
     6    4    7 ar  
     7    4   27 1   
     8    5    6 ar  
     9    5   28 1   
    10    6    7 ar  
    11    6    8 1   
    12    7   29 1   
    13    8    9 1   
    14    8   30 1   
    15    8   31 1   
    16    9   10 1   
    17    9   32 1   
    18    9   33 1   
    19   10   11 1   
    20   10   34 1   
    21   10   46 1   
    22   11   12 1   
    23   11   35 1   
    24   11   36 1   
    25   12   13 ar  
    26   12   16 ar  
    27   13   14 ar  
    28   13   37 1   
    29   14   15 ar  
    30   14   38 1   
    31   15   17 ar  
    32   15   39 1   
    33   16   17 ar  
    34   16   40 1   
    35   17   18 1   
    36   18   19 1   
    37   18   41 1   
    38   19   20 2   
    39   19   21 1   
    40   20   42 1   
    41   21   22 1   
    42   21   25 2   
    43   22   23 1   
    44   23   24 2   
    45   23   43 1   
    46   24   25 1   
    47   24   44 1   
    48   25   45 1   
@<TRIPOS>SUBSTRUCTURE
     1 5H3         1 TEMP              0 ****  ****    0 ROOT
