@<TRIPOS>MOLECULE
5H4
   53    55     1     0     0
SMALL
bcc


@<TRIPOS>ATOM
      1 F33         0.1380   -0.5040   -0.1010 f         1 5H4     -0.127900
      2 C33         1.4490   -0.1720   -0.0510 ca        1 5H4      0.140900
      3 C34         2.0320    0.2350    1.1650 ca        1 5H4     -0.129000
      4 C35         3.3820    0.5670    1.1930 ca        1 5H4     -0.083000
      5 C36         4.1600    0.4920    0.0340 ca        1 5H4     -0.119000
      6 C32         2.2220   -0.2370   -1.2230 ca        1 5H4     -0.183000
      7 C31         3.5800    0.0910   -1.1720 ca        1 5H4     -0.101300
      8 C22         4.3910    0.0400   -2.4210 c3        1 5H4     -0.046100
      9 C21         4.5710   -1.4220   -2.8330 c3        1 5H4      0.104800
     10 N18         5.2110   -1.5930   -4.1810 n4        1 5H4     -0.692400
     11 C19         6.7060   -1.4230   -4.0930 c3        1 5H4      0.110800
     12 C20         7.3540   -1.0700   -5.4140 c3        1 5H4     -0.140100
     13 C17         4.8640   -2.9300   -4.7690 c3        1 5H4      0.155100
     14 C15         3.4700   -3.0100   -5.3130 ca        1 5H4     -0.133300
     15 C14         3.1110   -2.2480   -6.4320 ca        1 5H4     -0.075000
     16 C13         1.8460   -2.3900   -7.0000 ca        1 5H4     -0.084000
     17 C12         0.9330   -3.3030   -6.4750 ca        1 5H4     -0.082000
     18 C11         1.2940   -4.0750   -5.3540 ca        1 5H4     -0.042400
     19 C16         2.5620   -3.9190   -4.7630 ca        1 5H4     -0.077000
     20 N07         0.3560   -5.0590   -4.8250 n4        1 5H4     -0.684400
     21 C06        -0.8060   -4.4650   -3.9880 ce        1 5H4      0.694800
     22 N08        -1.1110   -3.2330   -3.9600 n2        1 5H4     -0.717100
     23 C05        -1.4920   -5.5070   -3.2530 cc        1 5H4     -0.358000
     24 S01        -2.5040   -5.1640   -1.9640 ss        1 5H4      0.316200
     25 C02        -2.9130   -6.7230   -1.7130 cc        1 5H4     -0.167100
     26 C03        -2.3020   -7.5910   -2.6190 cd        1 5H4     -0.135000
     27 C04        -1.4770   -6.8870   -3.5200 cd        1 5H4     -0.126000
     28 H1          1.4130    0.2950    2.0750 ha        1 5H4      0.177000
     29 H2          3.8440    0.8960    2.1390 ha        1 5H4      0.168000
     30 H3          5.2250    0.7670    0.0770 ha        1 5H4      0.148000
     31 H4          1.7430   -0.5190   -2.1700 ha        1 5H4      0.126000
     32 H5          3.8630    0.6160   -3.2290 hc        1 5H4      0.074700
     33 H6          5.3900    0.5260   -2.2530 hc        1 5H4      0.074700
     34 H7          3.5590   -1.9200   -2.8730 hx        1 5H4      0.102200
     35 H8          5.2070   -1.9610   -2.0740 hx        1 5H4      0.102200
     36 H10         7.1370   -2.3800   -3.6830 hx        1 5H4      0.110700
     37 H11         6.9010   -0.5950   -3.3480 hx        1 5H4      0.110700
     38 H12         6.9400   -0.1240   -5.8430 hc        1 5H4      0.083700
     39 H13         7.2540   -1.8880   -6.1680 hc        1 5H4      0.083700
     40 H14         8.4490   -0.9110   -5.2250 hc        1 5H4      0.083700
     41 H15         5.5920   -3.1330   -5.6130 hx        1 5H4      0.119200
     42 H16         5.0300   -3.7090   -3.9690 hx        1 5H4      0.119200
     43 H17         3.8320   -1.5490   -6.8900 ha        1 5H4      0.165000
     44 H18         1.5660   -1.7890   -7.8860 ha        1 5H4      0.195000
     45 H19        -0.0550   -3.4170   -6.9590 ha        1 5H4      0.183000
     46 H20         2.8550   -4.5210   -3.8840 ha        1 5H4      0.164000
     47 H21         0.8510   -5.7320   -4.2260 hn        1 5H4      0.468800
     48 H22        -0.6140   -2.5330   -4.4630 hn        1 5H4      0.455400
     49 H23        -3.5990   -7.0580   -0.9250 h4        1 5H4      0.215000
     50 H24        -2.4450   -8.6770   -2.6370 ha        1 5H4      0.192000
     51 H25        -0.9350   -7.3890   -4.3240 ha        1 5H4      0.146000
     52 H181        4.8460   -0.8600   -4.8050 hn        1 5H4      0.444800
     53 H072       -0.0670   -5.5770   -5.6070 hn        1 5H4      0.468800
@<TRIPOS>BOND
     1    1    2 1   
     2    2    3 ar  
     3    2    6 ar  
     4    3    4 ar  
     5    3   28 1   
     6    4    5 ar  
     7    4   29 1   
     8    5    7 ar  
     9    5   30 1   
    10    6    7 ar  
    11    6   31 1   
    12    7    8 1   
    13    8    9 1   
    14    8   32 1   
    15    8   33 1   
    16    9   10 1   
    17    9   34 1   
    18    9   35 1   
    19   10   11 1   
    20   10   13 1   
    21   10   52 1   
    22   11   12 1   
    23   11   36 1   
    24   11   37 1   
    25   12   38 1   
    26   12   39 1   
    27   12   40 1   
    28   13   14 1   
    29   13   41 1   
    30   13   42 1   
    31   14   15 ar  
    32   14   19 ar  
    33   15   16 ar  
    34   15   43 1   
    35   16   17 ar  
    36   16   44 1   
    37   17   18 ar  
    38   17   45 1   
    39   18   19 ar  
    40   18   20 1   
    41   19   46 1   
    42   20   21 1   
    43   20   47 1   
    44   20   53 1   
    45   21   22 2   
    46   21   23 1   
    47   22   48 1   
    48   23   24 1   
    49   23   27 2   
    50   24   25 1   
    51   25   26 2   
    52   25   49 1   
    53   26   27 1   
    54   26   50 1   
    55   27   51 1   
@<TRIPOS>SUBSTRUCTURE
     1 5H4         1 TEMP              0 ****  ****    0 ROOT
