@<TRIPOS>MOLECULE
5H4
   52    54     1     0     0
SMALL
bcc


@<TRIPOS>ATOM
      1 F33         0.1240   -0.3860   -0.0290 f         1 5H4     -0.122900
      2 C33         1.4290   -0.0340   -0.0510 ca        1 5H4      0.142900
      3 C34         2.0530    0.4340    1.1230 ca        1 5H4     -0.140000
      4 C35         3.3960    0.7920    1.0830 ca        1 5H4     -0.092000
      5 C36         4.1260    0.6870   -0.1030 ca        1 5H4     -0.131000
      6 C32         2.1580   -0.1380   -1.2490 ca        1 5H4     -0.169000
      7 C31         3.5080    0.2210   -1.2670 ca        1 5H4     -0.094300
      8 C22         4.2740    0.1300   -2.5410 c3        1 5H4     -0.048100
      9 C21         4.5910   -1.3390   -2.8270 c3        1 5H4      0.102800
     10 N18         5.2910   -1.5580   -4.1340 nx        1 5H4     -0.691400
     11 C19         6.7540   -1.2440   -4.0270 c3        1 5H4      0.107800
     12 C20         7.4040   -0.9240   -5.3560 c3        1 5H4     -0.133100
     13 C17         5.0760   -2.9700   -4.6190 c3        1 5H4      0.171100
     14 C15         3.7000   -3.1650   -5.1650 ca        1 5H4     -0.136300
     15 C14         3.3740   -2.6290   -6.4130 ca        1 5H4     -0.161000
     16 C13         2.1040   -2.8580   -6.9420 ca        1 5H4     -0.078000
     17 C12         1.1650   -3.6080   -6.2460 ca        1 5H4     -0.147000
     18 C11         1.4740   -4.1440   -4.9690 ca        1 5H4      0.186600
     19 C16         2.7670   -3.9050   -4.4390 ca        1 5H4     -0.179000
     20 N07         0.5750   -4.9430   -4.2710 nu        1 5H4     -0.772600
     21 C06        -0.8400   -4.7170   -4.2400 ce        1 5H4      0.718800
     22 N08        -1.4800   -3.6560   -4.6110 n2        1 5H4     -0.785100
     23 C05        -1.5790   -5.8680   -3.6940 cc        1 5H4     -0.222000
     24 S01        -1.1440   -7.4770   -3.9390 ss        1 5H4      0.048200
     25 C02        -2.4410   -8.0670   -3.0770 cc        1 5H4     -0.144100
     26 C03        -3.2440   -7.0570   -2.5900 cd        1 5H4     -0.163000
     27 C04        -2.7450   -5.7690   -2.9520 cd        1 5H4     -0.080000
     28 H1          1.4700    0.5170    2.0540 ha        1 5H4      0.168000
     29 H2          3.8880    1.1660    1.9960 ha        1 5H4      0.156000
     30 H3          5.1860    0.9830   -0.1170 ha        1 5H4      0.139000
     31 H4          1.6510   -0.4870   -2.1600 ha        1 5H4      0.146000
     32 H5          3.6610    0.5650   -3.3770 hc        1 5H4      0.069700
     33 H6          5.2200    0.7300   -2.4640 hc        1 5H4      0.069700
     34 H7          3.6220   -1.9220   -2.8590 hx        1 5H4      0.107700
     35 H8          5.2380   -1.7630   -2.0090 hx        1 5H4      0.107700
     36 H10         6.8620   -0.3570   -3.3370 hx        1 5H4      0.100700
     37 H11         7.2600   -2.1290   -3.5460 hx        1 5H4      0.100700
     38 H12         6.9210   -0.0460   -5.8520 hc        1 5H4      0.076700
     39 H13         7.3790   -1.7930   -6.0570 hc        1 5H4      0.076700
     40 H14         8.4770   -0.6660   -5.1620 hc        1 5H4      0.076700
     41 H15         5.8380   -3.1680   -5.4290 hx        1 5H4      0.103700
     42 H16         5.2780   -3.6640   -3.7550 hx        1 5H4      0.103700
     43 H17         4.1140   -2.0580   -6.9910 ha        1 5H4      0.133000
     44 H18         1.8460   -2.4540   -7.9350 ha        1 5H4      0.159000
     45 H19         0.1900   -3.8130   -6.7190 ha        1 5H4      0.170000
     46 H20         3.0470   -4.3270   -3.4610 ha        1 5H4      0.138000
     47 H21         0.9440   -5.4790   -3.5160 hn        1 5H4      0.442800
     48 H22        -0.9450   -2.8880   -4.9550 hn        1 5H4      0.394400
     49 H23        -2.6170   -9.1340   -2.9360 h4        1 5H4      0.183000
     50 H24        -4.1540   -7.2020   -2.0020 ha        1 5H4      0.168000
     51 H25        -3.2370   -4.8310   -2.6800 ha        1 5H4      0.174000
     52 H181        4.8730   -0.9240   -4.8310 hn        1 5H4      0.447800
@<TRIPOS>BOND
     1    1    2 1   
     2    2    3 ar  
     3    2    6 ar  
     4    3    4 ar  
     5    3   28 1   
     6    4    5 ar  
     7    4   29 1   
     8    5    7 ar  
     9    5   30 1   
    10    6    7 ar  
    11    6   31 1   
    12    7    8 1   
    13    8    9 1   
    14    8   32 1   
    15    8   33 1   
    16    9   10 1   
    17    9   34 1   
    18    9   35 1   
    19   10   11 1   
    20   10   13 1   
    21   10   52 1   
    22   11   12 1   
    23   11   36 1   
    24   11   37 1   
    25   12   38 1   
    26   12   39 1   
    27   12   40 1   
    28   13   14 1   
    29   13   41 1   
    30   13   42 1   
    31   14   15 ar  
    32   14   19 ar  
    33   15   16 ar  
    34   15   43 1   
    35   16   17 ar  
    36   16   44 1   
    37   17   18 ar  
    38   17   45 1   
    39   18   19 ar  
    40   18   20 1   
    41   19   46 1   
    42   20   21 1   
    43   20   47 1   
    44   21   22 2   
    45   21   23 1   
    46   22   48 1   
    47   23   24 1   
    48   23   27 2   
    49   24   25 1   
    50   25   26 2   
    51   25   49 1   
    52   26   27 1   
    53   26   50 1   
    54   27   51 1   
@<TRIPOS>SUBSTRUCTURE
     1 5H4         1 TEMP              0 ****  ****    0 ROOT
