@<TRIPOS>MOLECULE
5H4
   52    54     1     0     0
SMALL
bcc


@<TRIPOS>ATOM
      1 F33         0.1250   -0.3910   -0.0280 f         1 5H4     -0.122900
      2 C33         1.4300   -0.0380   -0.0500 ca        1 5H4      0.142900
      3 C34         2.0550    0.4300    1.1230 ca        1 5H4     -0.140000
      4 C35         3.3970    0.7900    1.0820 ca        1 5H4     -0.092000
      5 C36         4.1260    0.6850   -0.1040 ca        1 5H4     -0.131000
      6 C32         2.1580   -0.1410   -1.2490 ca        1 5H4     -0.169000
      7 C31         3.5080    0.2200   -1.2680 ca        1 5H4     -0.094300
      8 C22         4.2740    0.1290   -2.5430 c3        1 5H4     -0.048100
      9 C21         4.5910   -1.3380   -2.8300 c3        1 5H4      0.102800
     10 N18         5.2900   -1.5560   -4.1380 n4        1 5H4     -0.691400
     11 C19         6.7520   -1.2420   -4.0320 c3        1 5H4      0.107800
     12 C20         7.4010   -0.9200   -5.3620 c3        1 5H4     -0.133100
     13 C17         5.0760   -2.9680   -4.6230 c3        1 5H4      0.171100
     14 C15         3.6990   -3.1650   -5.1670 ca        1 5H4     -0.136300
     15 C14         3.3720   -2.6300   -6.4150 ca        1 5H4     -0.161000
     16 C13         2.1020   -2.8600   -6.9430 ca        1 5H4     -0.078000
     17 C12         1.1630   -3.6090   -6.2460 ca        1 5H4     -0.147000
     18 C11         1.4730   -4.1450   -4.9690 ca        1 5H4      0.186600
     19 C16         2.7670   -3.9040   -4.4400 ca        1 5H4     -0.179000
     20 N07         0.5760   -4.9430   -4.2690 nh        1 5H4     -0.772600
     21 C06        -0.8400   -4.7170   -4.2360 ce        1 5H4      0.718800
     22 N08        -1.4800   -3.6570   -4.6070 n2        1 5H4     -0.785100
     23 C05        -1.5770   -5.8680   -3.6880 cc        1 5H4     -0.222000
     24 S01        -1.1430   -7.4770   -3.9320 ss        1 5H4      0.048200
     25 C02        -2.4390   -8.0660   -3.0660 cc        1 5H4     -0.144100
     26 C03        -3.2400   -7.0550   -2.5790 cd        1 5H4     -0.163000
     27 C04        -2.7420   -5.7670   -2.9440 cd        1 5H4     -0.080000
     28 H1          1.4730    0.5120    2.0540 ha        1 5H4      0.168000
     29 H2          3.8890    1.1640    1.9940 ha        1 5H4      0.156000
     30 H3          5.1860    0.9830   -0.1190 ha        1 5H4      0.139000
     31 H4          1.6510   -0.4900   -2.1600 ha        1 5H4      0.146000
     32 H5          5.2190    0.7300   -2.4660 hc        1 5H4      0.069700
     33 H6          3.6590    0.5650   -3.3770 hc        1 5H4      0.069700
     34 H7          5.2390   -1.7620   -2.0120 hx        1 5H4      0.107700
     35 H8          3.6220   -1.9220   -2.8610 hx        1 5H4      0.107700
     36 H10         6.8610   -0.3550   -3.3410 hx        1 5H4      0.100700
     37 H11         7.2600   -2.1270   -3.5520 hx        1 5H4      0.100700
     38 H12         6.9170   -0.0430   -5.8570 hc        1 5H4      0.076700
     39 H13         8.4740   -0.6620   -5.1690 hc        1 5H4      0.076700
     40 H14         7.3760   -1.7890   -6.0630 hc        1 5H4      0.076700
     41 H15         5.8370   -3.1660   -5.4340 hx        1 5H4      0.103700
     42 H16         5.2790   -3.6630   -3.7600 hx        1 5H4      0.103700
     43 H17         4.1110   -2.0590   -6.9950 ha        1 5H4      0.133000
     44 H18         1.8430   -2.4570   -7.9370 ha        1 5H4      0.159000
     45 H19         0.1880   -3.8150   -6.7180 ha        1 5H4      0.170000
     46 H20         3.0480   -4.3260   -3.4620 ha        1 5H4      0.138000
     47 H21         0.9460   -5.4790   -3.5150 hn        1 5H4      0.442800
     48 H22        -0.9450   -2.8890   -4.9530 hn        1 5H4      0.394400
     49 H23        -2.6140   -9.1330   -2.9240 h4        1 5H4      0.183000
     50 H24        -4.1490   -7.1990   -1.9900 ha        1 5H4      0.168000
     51 H25        -3.2340   -4.8290   -2.6720 ha        1 5H4      0.174000
     52 H181        4.8710   -0.9220   -4.8340 hn        1 5H4      0.447800
@<TRIPOS>BOND
     1    1    2 1   
     2    2    3 ar  
     3    2    6 ar  
     4    3    4 ar  
     5    3   28 1   
     6    4    5 ar  
     7    4   29 1   
     8    5    7 ar  
     9    5   30 1   
    10    6    7 ar  
    11    6   31 1   
    12    7    8 1   
    13    8    9 1   
    14    8   32 1   
    15    8   33 1   
    16    9   10 1   
    17    9   34 1   
    18    9   35 1   
    19   10   11 1   
    20   10   13 1   
    21   10   52 1   
    22   11   12 1   
    23   11   36 1   
    24   11   37 1   
    25   12   38 1   
    26   12   39 1   
    27   12   40 1   
    28   13   14 1   
    29   13   41 1   
    30   13   42 1   
    31   14   15 ar  
    32   14   19 ar  
    33   15   16 ar  
    34   15   43 1   
    35   16   17 ar  
    36   16   44 1   
    37   17   18 ar  
    38   17   45 1   
    39   18   19 ar  
    40   18   20 1   
    41   19   46 1   
    42   20   21 1   
    43   20   47 1   
    44   21   22 2   
    45   21   23 1   
    46   22   48 1   
    47   23   24 1   
    48   23   27 2   
    49   24   25 1   
    50   25   26 2   
    51   25   49 1   
    52   26   27 1   
    53   26   50 1   
    54   27   51 1   
@<TRIPOS>SUBSTRUCTURE
     1 5H4         1 TEMP              0 ****  ****    0 ROOT
