@<TRIPOS>MOLECULE
5H7
   56    59     1     0     0
SMALL
bcc


@<TRIPOS>ATOM
      1 C1          0.5330    0.0440    0.2210 c3        1 5H7     -0.058700
      2 C2          1.6380    0.3500    1.2300 c3        1 5H7     -0.101400
      3 C3          1.0800    0.2260    2.6490 c3        1 5H7      0.116500
      4 C11        -2.2890   -2.6470    3.3450 ca        1 5H7     -0.090700
      5 C12        -1.8490   -1.1130    5.2180 c         1 5H7      0.578600
      6 C13        -2.1560    0.2560    5.7790 ca        1 5H7      0.326800
      7 C14        -2.7920    0.3520    7.0320 ca        1 5H7     -0.155300
      8 C15        -2.9940    1.6170    7.5740 ca        1 5H7     -0.125000
      9 C16        -2.5580    2.7440    6.8500 ca        1 5H7      0.070600
     10 C17        -1.9330    2.5540    5.5760 cp        1 5H7      0.420800
     11 C18        -1.4840    3.7200    4.7950 cp        1 5H7     -0.214500
     12 C19        -0.1330    3.8780    4.4220 ca        1 5H7      0.168400
     13 C20         0.3010    5.0150    3.7190 ca        1 5H7     -0.172500
     14 C21        -0.6220    5.9950    3.3610 ca        1 5H7     -0.060000
     15 C22        -1.9670    5.8550    3.6840 ca        1 5H7     -0.172500
     16 C23        -2.4020    4.7200    4.3960 ca        1 5H7      0.168400
     17 F2         -3.7140    4.5960    4.6940 f         1 5H7     -0.147400
     18 F1          0.7830    2.9240    4.7410 f         1 5H7     -0.147400
     19 F          -2.7260    3.9790    7.3600 f         1 5H7     -0.100900
     20 N3         -1.7360    1.3200    5.0600 nb        1 5H7     -0.656000
     21 O          -0.9640   -1.8150    5.7400 o         1 5H7     -0.588100
     22 N2         -2.5720   -1.4900    4.1080 n         1 5H7     -0.474100
     23 C10        -2.9540   -3.8690    3.6390 ca        1 5H7      0.425200
     24 N1         -2.7730   -5.0000    2.9390 nb        1 5H7     -0.640000
     25 C9         -1.9130   -4.9650    1.9050 ca        1 5H7      0.417200
     26 C8         -1.1970   -3.8130    1.5330 ca        1 5H7     -0.239300
     27 C7         -1.3740   -2.6310    2.2570 ca        1 5H7     -0.047300
     28 C5         -0.6310   -1.3820    1.9120 c3        1 5H7     -0.013400
     29 C4          0.5510   -1.1940    2.8640 c3        1 5H7     -0.109400
     30 N           2.0970    0.5860    3.6980 n4        1 5H7     -0.835600
     31 C6         -0.1070   -1.3150    0.4830 c3        1 5H7     -0.086400
     32 C           1.0970    0.0980   -1.1830 c3        1 5H7     -0.098100
     33 H          -0.2620    0.8380    0.3200 hc        1 5H7      0.061700
     34 H6          2.0240    1.3870    1.0460 hc        1 5H7      0.063700
     35 H7          2.4860   -0.3700    1.0810 hc        1 5H7      0.063700
     36 H1          0.2330    0.9690    2.7910 hx        1 5H7      0.123700
     37 H18        -3.1060   -0.5560    7.5700 ha        1 5H7      0.177000
     38 H19        -3.4820    1.7490    8.5530 ha        1 5H7      0.180000
     39 H20         1.3650    5.1300    3.4680 ha        1 5H7      0.164500
     40 H21        -0.2820    6.8910    2.8160 ha        1 5H7      0.163000
     41 H22        -2.7020    6.6230    3.3950 ha        1 5H7      0.164500
     42 H17        -3.2710   -0.8800    3.7480 hn        1 5H7      0.338500
     43 H16        -3.6660   -3.9390    4.4840 h4        1 5H7      0.043100
     44 H15        -1.7910   -5.9130    1.3470 h4        1 5H7      0.041100
     45 H14        -0.5110   -3.8580    0.6760 ha        1 5H7      0.151000
     46 H2         -1.3420   -0.5110    2.0410 hc        1 5H7      0.069700
     47 H11         0.2290   -1.3550    3.9260 hc        1 5H7      0.083200
     48 H10         1.3460   -1.9500    2.6310 hc        1 5H7      0.083200
     49 H8          2.4140    1.5490    3.5540 hn        1 5H7      0.459133
     50 H9          1.6550    0.5220    4.6230 hn        1 5H7      0.459133
     51 H12        -0.9520   -1.4720   -0.2370 hc        1 5H7      0.067700
     52 H13         0.6500   -2.1220    0.3040 hc        1 5H7      0.067700
     53 H5          1.8880   -0.6780   -1.3240 hc        1 5H7      0.051700
     54 H4          1.5430    1.1010   -1.3870 hc        1 5H7      0.051700
     55 H3          0.2850   -0.0860   -1.9270 hc        1 5H7      0.051700
     56 HN3         2.8950   -0.0500    3.6570 hn        1 5H7      0.459133
@<TRIPOS>BOND
     1    1    2 1   
     2    1   31 1   
     3    1   32 1   
     4    1   33 1   
     5    2    3 1   
     6    2   34 1   
     7    2   35 1   
     8    3   29 1   
     9    3   30 1   
    10    3   36 1   
    11    4   22 1   
    12    4   23 ar  
    13    4   27 ar  
    14    5    6 1   
    15    5   21 2   
    16    5   22 1   
    17    6    7 ar  
    18    6   20 ar  
    19    7    8 ar  
    20    7   37 1   
    21    8    9 ar  
    22    8   38 1   
    23    9   10 ar  
    24    9   19 1   
    25   10   11 1   
    26   10   20 ar  
    27   11   12 ar  
    28   11   16 ar  
    29   12   13 ar  
    30   12   18 1   
    31   13   14 ar  
    32   13   39 1   
    33   14   15 ar  
    34   14   40 1   
    35   15   16 ar  
    36   15   41 1   
    37   16   17 1   
    38   22   42 1   
    39   23   24 ar  
    40   23   43 1   
    41   24   25 ar  
    42   25   26 ar  
    43   25   44 1   
    44   26   27 ar  
    45   26   45 1   
    46   27   28 1   
    47   28   29 1   
    48   28   31 1   
    49   28   46 1   
    50   29   47 1   
    51   29   48 1   
    52   30   49 1   
    53   30   50 1   
    54   30   56 1   
    55   31   51 1   
    56   31   52 1   
    57   32   53 1   
    58   32   54 1   
    59   32   55 1   
@<TRIPOS>SUBSTRUCTURE
     1 5H7         1 TEMP              0 ****  ****    0 ROOT
