@<TRIPOS>MOLECULE
5H7
   56    59     1     0     0
SMALL
bcc


@<TRIPOS>ATOM
      1 C1          0.5380    0.0380    0.2230 c3        1 5H7     -0.058700
      2 C2          1.6420    0.3560    1.2300 c3        1 5H7     -0.101400
      3 C3          1.0850    0.2360    2.6510 c3        1 5H7      0.116500
      4 C11        -2.2640   -2.6560    3.3620 ca        1 5H7     -0.090700
      5 C12        -1.8350   -1.1100    5.2270 c         1 5H7      0.578600
      6 C13        -2.1510    0.2600    5.7810 ca        1 5H7      0.326800
      7 C14        -2.7860    0.3580    7.0330 ca        1 5H7     -0.155300
      8 C15        -2.9970    1.6240    7.5690 ca        1 5H7     -0.125000
      9 C16        -2.5690    2.7510    6.8390 ca        1 5H7      0.070600
     10 C17        -1.9430    2.5590    5.5660 cp        1 5H7      0.420800
     11 C18        -1.5030    3.7240    4.7790 cp        1 5H7     -0.214500
     12 C19        -0.1530    3.8890    4.4040 ca        1 5H7      0.168400
     13 C20         0.2720    5.0250    3.6950 ca        1 5H7     -0.172500
     14 C21        -0.6570    5.9960    3.3320 ca        1 5H7     -0.060000
     15 C22        -2.0010    5.8490    3.6560 ca        1 5H7     -0.172500
     16 C23        -2.4280    4.7150    4.3740 ca        1 5H7      0.168400
     17 F2         -3.7390    4.5830    4.6740 f         1 5H7     -0.147400
     18 F1          0.7690    2.9430    4.7280 f         1 5H7     -0.147400
     19 F          -2.7450    3.9870    7.3430 f         1 5H7     -0.100900
     20 N3         -1.7380    1.3230    5.0560 nb        1 5H7     -0.656000
     21 O          -0.9440   -1.8030    5.7520 o         1 5H7     -0.588100
     22 N2         -2.5550   -1.4970    4.1190 ns        1 5H7     -0.474100
     23 C10        -2.9210   -3.8810    3.6630 ca        1 5H7      0.425200
     24 N1         -2.7330   -5.0140    2.9680 nb        1 5H7     -0.640000
     25 C9         -1.8730   -4.9790    1.9340 ca        1 5H7      0.417200
     26 C8         -1.1650   -3.8240    1.5560 ca        1 5H7     -0.239300
     27 C7         -1.3500   -2.6400    2.2740 ca        1 5H7     -0.047300
     28 C5         -0.6160   -1.3870    1.9220 c3        1 5H7     -0.013400
     29 C4          0.5660   -1.1870    2.8730 c3        1 5H7     -0.109400
     30 N           2.0990    0.6090    3.6970 nz        1 5H7     -0.835600
     31 C6         -0.0930   -1.3240    0.4930 c3        1 5H7     -0.086400
     32 C           1.1020    0.0890   -1.1810 c3        1 5H7     -0.098100
     33 H          -0.2620    0.8270    0.3190 hc        1 5H7      0.061700
     34 H6          2.0200    1.3950    1.0410 hc        1 5H7      0.063700
     35 H7          2.4940   -0.3590    1.0850 hc        1 5H7      0.063700
     36 H1          0.2330    0.9740    2.7890 hx        1 5H7      0.123700
     37 H18        -3.0940   -0.5490    7.5760 ha        1 5H7      0.177000
     38 H19        -3.4860    1.7580    8.5480 ha        1 5H7      0.180000
     39 H20         1.3350    5.1460    3.4420 ha        1 5H7      0.164500
     40 H21        -0.3240    6.8920    2.7820 ha        1 5H7      0.163000
     41 H22        -2.7410    6.6100    3.3640 ha        1 5H7      0.164500
     42 H17        -3.2590   -0.8940    3.7560 hn        1 5H7      0.338500
     43 H16        -3.6320   -3.9520    4.5080 h4        1 5H7      0.043100
     44 H15        -1.7450   -5.9290    1.3810 h4        1 5H7      0.041100
     45 H14        -0.4780   -3.8680    0.6990 ha        1 5H7      0.151000
     46 H2         -1.3320   -0.5210    2.0470 hc        1 5H7      0.069700
     47 H11         0.2450   -1.3440    3.9360 hc        1 5H7      0.083200
     48 H10         1.3660   -1.9380    2.6440 hc        1 5H7      0.083200
     49 H8          2.4110    1.5730    3.5470 hn        1 5H7      0.459133
     50 H9          2.9020   -0.0230    3.6590 hn        1 5H7      0.459133
     51 H12        -0.9360   -1.4910   -0.2270 hc        1 5H7      0.067700
     52 H13         0.6700   -2.1270    0.3180 hc        1 5H7      0.067700
     53 H5          1.5400    1.0940   -1.3900 hc        1 5H7      0.051700
     54 H4          0.2900   -0.1050   -1.9240 hc        1 5H7      0.051700
     55 H3          1.8970   -0.6830   -1.3180 hc        1 5H7      0.051700
     56 HN3         1.6590    0.5470    4.6230 hn        1 5H7      0.459133
@<TRIPOS>BOND
     1    1    2 1   
     2    1   31 1   
     3    1   32 1   
     4    1   33 1   
     5    2    3 1   
     6    2   34 1   
     7    2   35 1   
     8    3   29 1   
     9    3   30 1   
    10    3   36 1   
    11    4   22 1   
    12    4   23 ar  
    13    4   27 ar  
    14    5    6 1   
    15    5   21 2   
    16    5   22 1   
    17    6    7 ar  
    18    6   20 ar  
    19    7    8 ar  
    20    7   37 1   
    21    8    9 ar  
    22    8   38 1   
    23    9   10 ar  
    24    9   19 1   
    25   10   11 1   
    26   10   20 ar  
    27   11   12 ar  
    28   11   16 ar  
    29   12   13 ar  
    30   12   18 1   
    31   13   14 ar  
    32   13   39 1   
    33   14   15 ar  
    34   14   40 1   
    35   15   16 ar  
    36   15   41 1   
    37   16   17 1   
    38   22   42 1   
    39   23   24 ar  
    40   23   43 1   
    41   24   25 ar  
    42   25   26 ar  
    43   25   44 1   
    44   26   27 ar  
    45   26   45 1   
    46   27   28 1   
    47   28   29 1   
    48   28   31 1   
    49   28   46 1   
    50   29   47 1   
    51   29   48 1   
    52   30   49 1   
    53   30   50 1   
    54   30   56 1   
    55   31   51 1   
    56   31   52 1   
    57   32   53 1   
    58   32   54 1   
    59   32   55 1   
@<TRIPOS>SUBSTRUCTURE
     1 5H7         1 TEMP              0 ****  ****    0 ROOT
