@<TRIPOS>MOLECULE
5H8
   67    67     1     0     0
SMALL
bcc


@<TRIPOS>ATOM
      1 C1         -0.1320    1.1170   -0.2270 ca        1 5H8     -0.083000
      2 C2          1.2160    0.7690   -0.3220 ca        1 5H8     -0.129500
      3 C3          1.9170    0.3730    0.8150 ca        1 5H8     -0.088000
      4 C9          3.3470    0.8960    4.9290 c         1 5H8      0.611100
      5 C11         4.6570    2.1490    6.6390 c3        1 5H8     -0.165400
      6 C14         8.1040    3.6570    8.0470 c3        1 5H8      0.036500
      7 C15         8.0770    2.8270    9.3480 c         1 5H8      0.568100
      8 O17         3.4480   -0.1370    5.5750 o         1 5H8     -0.428000
      9 C20         8.7750    5.0030    8.3720 c3        1 5H8     -0.101400
     10 C21         9.4850    5.6090    7.1680 c3        1 5H8     -0.083700
     11 C22         8.5270    6.1250    6.1170 c3        1 5H8     -0.105600
     12 C30        11.0190    2.8050    8.4550 c         1 5H8      0.915600
     13 C4          1.2660    0.3220    2.0550 ca        1 5H8     -0.152300
     14 P12         6.3990    2.3030    6.5210 p5        1 5H8      1.217500
     15 O19         7.0080    1.2910    7.3950 o         1 5H8     -0.738000
     16 O18         6.6170    2.7230    5.1280 o         1 5H8     -0.738000
     17 N13         6.7330    3.7960    7.4760 n4        1 5H8     -0.759100
     18 C23        10.3970    6.7190    7.6570 c3        1 5H8     -0.105600
     19 O24         7.3050    3.0560   10.2760 o         1 5H8     -0.471100
     20 N16         9.0000    1.6800    9.4360 n4        1 5H8     -0.630800
     21 C25        10.4170    2.1040    9.7480 c3        1 5H8     -0.032500
     22 C26        11.2730    0.9040   10.1990 c3        1 5H8     -0.052000
     23 C29        10.7360    0.3280   11.5020 c3        1 5H8     -0.105100
     24 C28        12.6850    1.4280   10.4410 c3        1 5H8     -0.105100
     25 C5         -0.0850    0.6780    2.1490 ca        1 5H8     -0.088000
     26 C6         -0.7810    1.0710    1.0080 ca        1 5H8     -0.129500
     27 O8          2.6450    1.0700    3.8010 os        1 5H8     -0.405900
     28 N10         4.0170    2.1840    5.3170 n4        1 5H8     -0.610800
     29 H1         -0.6850    1.4260   -1.1280 ha        1 5H8      0.153000
     30 H2          1.7270    0.8020   -1.2970 ha        1 5H8      0.152500
     31 H3          2.9790    0.0940    0.7380 ha        1 5H8      0.138000
     32 H6          4.1620    2.9060    7.3020 hx        1 5H8      0.144700
     33 H7          4.4550    1.1470    7.1370 hx        1 5H8      0.144700
     34 H8          8.7530    3.1290    7.2530 hx        1 5H8      0.207700
     35 H9          8.0350    5.7210    8.8090 hc        1 5H8      0.085200
     36 H10         9.5680    4.8040    9.1530 hc        1 5H8      0.085200
     37 H11        10.1460    4.8070    6.7140 hc        1 5H8      0.114700
     38 H12         8.1320    5.2940    5.4820 hc        1 5H8      0.046200
     39 H13         7.6760    6.6810    6.5800 hc        1 5H8      0.046200
     40 H14         9.0630    6.8310    5.4330 hc        1 5H8      0.046200
     41 H15        12.1140   -0.9110    9.3580 hc        1 5H8      0.052256
     42 H16        11.5070    0.2780    8.1260 hc        1 5H8      0.052256
     43 H17        10.3380   -0.7330    9.0870 hc        1 5H8      0.052256
     44 H19         6.0780    3.9870    8.2290 hn        1 5H8      0.452800
     45 H20        10.9140    7.1970    6.7900 hc        1 5H8      0.046200
     46 H21        11.1780    6.2930    8.3370 hc        1 5H8      0.046200
     47 H22         9.8170    7.5000    8.2030 hc        1 5H8      0.046200
     48 H23         8.6630    1.0180   10.1430 hn        1 5H8      0.484800
     49 H24        10.3740    2.8590   10.5830 hx        1 5H8      0.092700
     50 H26        11.4850   -0.3840   11.9300 hc        1 5H8      0.052256
     51 H27        10.5590    1.1380   12.2500 hc        1 5H8      0.052256
     52 H28         9.7870   -0.2410   11.3480 hc        1 5H8      0.052256
     53 H29        12.6760    2.2230   11.2240 hc        1 5H8      0.052256
     54 H30        13.3420    0.5920   10.7800 hc        1 5H8      0.052256
     55 H31        13.1070    1.8630    9.5010 hc        1 5H8      0.052256
     56 H32        -0.6010    0.6370    3.1200 ha        1 5H8      0.138000
     57 H33        -1.8460    1.3420    1.0810 ha        1 5H8      0.152500
     58 H34         3.3000    2.9210    5.2680 hn        1 5H8      0.491800
     59 C7          1.9950   -0.1460    3.2560 c3        1 5H8      0.219700
     60 C27        11.3050   -0.1760    9.1290 c3        1 5H8     -0.105100
     61 H4          1.3210   -0.5460    4.0570 h1        1 5H8      0.083700
     62 H5          2.8140   -0.8740    3.0210 h1        1 5H8      0.083700
     63 O31        11.7760    3.7700    8.6640 o         1 5H8     -0.769300
     64 H132        6.7560    4.6210    6.8650 hn        1 5H8      0.452800
     65 H162        9.0340    1.2080    8.5020 hn        1 5H8      0.484800
     66 H102        4.7490    2.3970    4.5880 hn        1 5H8      0.491800
     67 O32        10.5960    2.3690    7.3460 o         1 5H8     -0.769300
@<TRIPOS>BOND
     1    1    2 ar  
     2    1   26 ar  
     3    1   29 1   
     4    2    3 ar  
     5    2   30 1   
     6    3   13 ar  
     7    3   31 1   
     8    4    8 2   
     9    4   27 1   
    10    4   28 1   
    11    5   14 1   
    12    5   28 1   
    13    5   32 1   
    14    5   33 1   
    15    6    7 1   
    16    6    9 1   
    17    6   17 1   
    18    6   34 1   
    19    7   19 2   
    20    7   20 1   
    21    9   10 1   
    22    9   35 1   
    23    9   36 1   
    24   10   11 1   
    25   10   18 1   
    26   10   37 1   
    27   11   38 1   
    28   11   39 1   
    29   11   40 1   
    30   12   21 1   
    31   12   63 1   
    32   12   67 1   
    33   13   25 ar  
    34   13   59 1   
    35   14   15 1   
    36   14   16 1   
    37   14   17 1   
    38   17   44 1   
    39   17   64 1   
    40   18   45 1   
    41   18   46 1   
    42   18   47 1   
    43   20   21 1   
    44   20   48 1   
    45   20   65 1   
    46   21   22 1   
    47   21   49 1   
    48   22   23 1   
    49   22   24 1   
    50   22   60 1   
    51   23   50 1   
    52   23   51 1   
    53   23   52 1   
    54   24   53 1   
    55   24   54 1   
    56   24   55 1   
    57   25   26 ar  
    58   25   56 1   
    59   26   57 1   
    60   27   59 1   
    61   28   58 1   
    62   28   66 1   
    63   41   60 1   
    64   42   60 1   
    65   43   60 1   
    66   59   61 1   
    67   59   62 1   
@<TRIPOS>SUBSTRUCTURE
     1 5H8         1 TEMP              0 ****  ****    0 ROOT
