@<TRIPOS>MOLECULE
5HA
   79    82     1     0     0
SMALL
bcc


@<TRIPOS>ATOM
      1 C1         -1.0120    7.3880    2.0210 cx        1 5HA     -0.153900
      2 C2         -1.0860    6.0150    2.6710 cx        1 5HA      0.125500
      3 C3         -1.3850    7.2660    3.4690 cx        1 5HA     -0.153900
      4 N1         -2.1010    5.0460    2.4050 n3        1 5HA     -0.792200
      5 C4         -1.8150    4.2120    1.2510 c3        1 5HA      0.133800
      6 C5         -3.0670    3.4970    0.7170 c3        1 5HA      0.117100
      7 C6         -2.7260    2.6280   -0.5300 c3        1 5HA      0.077700
      8 N2         -1.6960    1.6510   -0.2720 n         1 5HA     -0.555900
      9 C7         -0.3840    1.8540   -0.6510 c         1 5HA      0.672700
     10 O2          0.0000    2.9610   -1.0830 o         1 5HA     -0.605100
     11 O3         -4.0720    4.4360    0.3700 oh        1 5HA     -0.597800
     12 C8         -4.0370    1.9820   -1.0200 c3        1 5HA     -0.055100
     13 C9          0.5700    0.7190   -0.4710 ca        1 5HA     -0.120600
     14 C10         0.2020   -0.6030   -0.7260 ca        1 5HA     -0.102000
     15 C11         1.1510   -1.6130   -0.5590 ca        1 5HA     -0.117600
     16 C12         2.4490   -1.3260   -0.1380 ca        1 5HA     -0.127000
     17 C13         2.8340    0.0130    0.1030 ca        1 5HA      0.148600
     18 C14         1.8710    1.0320   -0.0700 ca        1 5HA     -0.099000
     19 C15         0.8060   -3.0380   -0.8650 c         1 5HA      0.669700
     20 N3          4.1480    0.3240    0.5060 nh        1 5HA     -0.674900
     21 O4          1.4870   -3.7110   -1.6620 o         1 5HA     -0.587100
     22 C16         4.3140    1.5060    1.3090 c3        1 5HA      0.191100
     23 S1          5.4800   -0.5410    0.0460 s6        1 5HA      1.460900
     24 C23         5.4000   -0.4880   -1.6450 c3        1 5HA     -0.374300
     25 O5          6.6390    0.1370    0.4690 o         1 5HA     -0.645300
     26 O6          5.3670   -1.8820    0.4520 o         1 5HA     -0.645300
     27 C24        -4.0930   -0.1670   -2.3040 ca        1 5HA     -0.128500
     28 C25        -3.9540   -0.8840   -3.4910 ca        1 5HA     -0.125000
     29 C26        -3.5880   -0.2280   -4.6660 ca        1 5HA     -0.127000
     30 C27        -3.3650    1.1490   -4.6510 ca        1 5HA     -0.125000
     31 C28        -3.5060    1.8680   -3.4660 ca        1 5HA     -0.128500
     32 C29        -3.8680    1.2140   -2.2810 ca        1 5HA     -0.087300
     33 N4         -0.3280   -3.5410   -0.2530 n         1 5HA     -0.553900
     34 C17        -0.6750   -4.9480   -0.3230 c3        1 5HA      0.138000
     35 C18        -2.1140   -5.1600   -0.8020 c3        1 5HA     -0.098100
     36 C30        -0.4830   -5.6480    1.0040 ca        1 5HA     -0.114300
     37 C31         0.4570   -6.6780    1.1140 ca        1 5HA     -0.118000
     38 C32         0.6340   -7.3360    2.3310 ca        1 5HA     -0.128500
     39 C33        -0.1200   -6.9650    3.4440 ca        1 5HA     -0.123000
     40 C34        -1.0540   -5.9340    3.3390 ca        1 5HA     -0.128500
     41 C35        -1.2350   -5.2770    2.1230 ca        1 5HA     -0.118000
     42 H11        -0.0210    7.7900    1.7500 hc        1 5HA      0.071700
     43 H12A       -1.7890    7.6910    1.2980 hc        1 5HA      0.071700
     44 H2         -0.1170    5.5040    2.8690 h1        1 5HA      0.089700
     45 H31A       -2.4250    7.4850    3.7730 hc        1 5HA      0.071700
     46 H32A       -0.6600    7.5730    4.2420 hc        1 5HA      0.071700
     47 HN1        -3.0040    5.4780    2.3140 hn        1 5HA      0.368800
     48 H41        -1.0620    3.4430    1.5810 h1        1 5HA      0.050200
     49 H42        -1.3500    4.7900    0.3980 h1        1 5HA      0.050200
     50 H5         -3.5450    2.8660    1.5170 h1        1 5HA      0.089700
     51 H6         -2.3480    3.3290   -1.3370 h1        1 5HA      0.080700
     52 HN2        -1.9880    0.7490    0.0170 hn        1 5HA      0.314500
     53 HO3        -3.6950    5.0350   -0.2860 ho        1 5HA      0.400000
     54 H81        -4.4550    1.3230   -0.2130 hc        1 5HA      0.067700
     55 H82        -4.7770    2.8140   -1.1820 hc        1 5HA      0.067700
     56 H10        -0.8080   -0.8530   -1.0860 ha        1 5HA      0.150000
     57 H12         3.1600   -2.1630   -0.0030 ha        1 5HA      0.187000
     58 H14         2.1280    2.0930    0.0930 ha        1 5HA      0.165000
     59 H161        4.2770    2.4320    0.6730 h1        1 5HA      0.057367
     60 H162        3.5050    1.5730    2.0850 h1        1 5HA      0.057367
     61 H163        5.3110    1.4700    1.8300 h1        1 5HA      0.057367
     62 H231        5.5220    0.5390   -2.0680 h1        1 5HA      0.124367
     63 H232        6.2210   -1.1070   -2.0930 h1        1 5HA      0.124367
     64 H233        4.4480   -0.8970   -2.0670 h1        1 5HA      0.124367
     65 H25        -4.1350   -1.9690   -3.5000 ha        1 5HA      0.134000
     66 H26        -3.4760   -0.7950   -5.6020 ha        1 5HA      0.135000
     67 H27        -3.0780    1.6690   -5.5770 ha        1 5HA      0.134000
     68 H28        -3.3320    2.9540   -3.4590 ha        1 5HA      0.130000
     69 HN4        -0.7290   -3.0240    0.4940 hn        1 5HA      0.305500
     70 H17         0.0150   -5.4250   -1.0880 h1        1 5HA      0.095700
     71 H181       -2.2580   -4.7200   -1.8170 hc        1 5HA      0.044033
     72 H182       -2.3150   -6.2570   -0.8530 hc        1 5HA      0.044033
     73 H183       -2.8480   -4.6960   -0.1010 hc        1 5HA      0.044033
     74 H31         1.0610   -6.9680    0.2410 ha        1 5HA      0.133000
     75 H32         1.3740   -8.1460    2.4120 ha        1 5HA      0.134000
     76 H33         0.0230   -7.4830    4.4040 ha        1 5HA      0.134000
     77 H34        -1.6480   -5.6390    4.2160 ha        1 5HA      0.134000
     78 H35        -1.9770   -4.4690    2.0440 ha        1 5HA      0.133000
     79 H24        -4.3910   -0.6890   -1.3820 ha        1 5HA      0.130000
@<TRIPOS>BOND
     1    1    2 1   
     2    1    3 1   
     3    1   42 1   
     4    1   43 1   
     5    2    3 1   
     6    2    4 1   
     7    2   44 1   
     8    3   45 1   
     9    3   46 1   
    10    4    5 1   
    11    4   47 1   
    12    5    6 1   
    13    5   48 1   
    14    5   49 1   
    15    6    7 1   
    16    6   11 1   
    17    6   50 1   
    18    7    8 1   
    19    7   12 1   
    20    7   51 1   
    21    8    9 1   
    22    8   52 1   
    23    9   10 2   
    24    9   13 1   
    25   11   53 1   
    26   12   32 1   
    27   12   54 1   
    28   12   55 1   
    29   13   14 ar  
    30   13   18 ar  
    31   14   15 ar  
    32   14   56 1   
    33   15   16 ar  
    34   15   19 1   
    35   16   17 ar  
    36   16   57 1   
    37   17   18 ar  
    38   17   20 1   
    39   18   58 1   
    40   19   21 2   
    41   19   33 1   
    42   20   22 1   
    43   20   23 1   
    44   22   59 1   
    45   22   60 1   
    46   22   61 1   
    47   23   24 1   
    48   23   25 2   
    49   23   26 2   
    50   24   62 1   
    51   24   63 1   
    52   24   64 1   
    53   27   28 ar  
    54   27   32 ar  
    55   27   79 1   
    56   28   29 ar  
    57   28   65 1   
    58   29   30 ar  
    59   29   66 1   
    60   30   31 ar  
    61   30   67 1   
    62   31   32 ar  
    63   31   68 1   
    64   33   34 1   
    65   33   69 1   
    66   34   35 1   
    67   34   36 1   
    68   34   70 1   
    69   35   71 1   
    70   35   72 1   
    71   35   73 1   
    72   36   37 ar  
    73   36   41 ar  
    74   37   38 ar  
    75   37   74 1   
    76   38   39 ar  
    77   38   75 1   
    78   39   40 ar  
    79   39   76 1   
    80   40   41 ar  
    81   40   77 1   
    82   41   78 1   
@<TRIPOS>SUBSTRUCTURE
     1 5HA         1 TEMP              0 ****  ****    0 ROOT
