@<TRIPOS>MOLECULE
5HA
   82    85     1     0     0
SMALL
bcc


@<TRIPOS>ATOM
      1 C1         -1.4240   -0.2740   -3.9170 cx        1 5HA     -0.087900
      2 C2          0.0740   -0.5180   -3.9330 cx        1 5HA     -0.029500
      3 C3         -0.5010    0.8280   -4.3280 cx        1 5HA     -0.087900
      4 N1          0.8100   -0.6940   -2.6610 ny        1 5HA     -0.723000
      5 C4          2.2790   -0.5260   -2.8490 c3        1 5HA      0.082800
      6 C5          3.0840   -0.7470   -1.5510 c3        1 5HA      0.100100
      7 C6          4.5950   -0.4770   -1.8170 c3        1 5HA      0.135500
      8 N2          5.4490   -0.9670   -0.6700 ny        1 5HA     -0.680800
      9 C7          5.4630   -0.0560    0.5350 c         1 5HA      0.576700
     10 O2          4.5140    0.7150    0.6290 o         1 5HA     -0.436100
     11 O3          2.9430   -2.1000   -1.1530 oh        1 5HA     -0.604800
     12 C8          5.0760   -1.1130   -3.1340 c3        1 5HA     -0.053100
     13 C9          6.6000   -0.1670    1.4610 ca        1 5HA     -0.170600
     14 C10         7.4210   -1.2970    1.5400 ca        1 5HA     -0.064000
     15 C11         8.4680   -1.3060    2.4720 ca        1 5HA     -0.147600
     16 C12         8.7230   -0.1980    3.2790 ca        1 5HA     -0.079000
     17 C13         7.8500    0.9210    3.2720 ca        1 5HA      0.204600
     18 C14         6.7940    0.9220    2.3260 ca        1 5HA     -0.055000
     19 C15         9.2930   -2.5340    2.5490 c         1 5HA      0.554700
     20 N3          8.0210    1.9690    4.1790 nh        1 5HA     -0.647900
     21 O4          9.4190   -3.3410    1.6330 o         1 5HA     -0.423100
     22 C16         7.5700    3.2730    3.7600 c3        1 5HA      0.169100
     23 S1          8.3700    1.6910    5.8210 s6        1 5HA      1.466900
     24 C23         9.3160    2.9940    6.2520 c3        1 5HA     -0.406300
     25 O5          7.1660    1.6740    6.5160 o         1 5HA     -0.642800
     26 O6          9.1310    0.4990    5.8570 o         1 5HA     -0.642800
     27 C24         7.3480   -2.1610   -3.1060 ca        1 5HA     -0.130500
     28 C25         8.7180   -2.1070   -3.3600 ca        1 5HA     -0.110500
     29 C26         9.3000   -0.9210   -3.8130 ca        1 5HA     -0.083000
     30 C27         8.5100    0.2130   -4.0080 ca        1 5HA     -0.110500
     31 C28         7.1400    0.1620   -3.7580 ca        1 5HA     -0.130500
     32 C29         6.5510   -1.0250   -3.3050 ca        1 5HA     -0.192300
     33 N4          9.9660   -2.8530    3.8400 ny        1 5HA     -0.683800
     34 C17        11.4490   -2.4300    3.8920 c3        1 5HA      0.230800
     35 C18        12.2560   -3.1110    2.8040 c3        1 5HA     -0.134100
     36 C30        11.9340   -2.6990    5.2790 ca        1 5HA     -0.214300
     37 C31        11.5620   -1.8070    6.2990 ca        1 5HA     -0.101000
     38 C32        12.0250   -2.0040    7.5970 ca        1 5HA     -0.116500
     39 C33        12.8600   -3.0860    7.8880 ca        1 5HA     -0.060000
     40 C34        13.2260   -3.9750    6.8770 ca        1 5HA     -0.116500
     41 C35        12.7620   -3.7880    5.5750 ca        1 5HA     -0.101000
     42 H11        -2.0310   -0.8050   -4.6800 hc        1 5HA      0.122700
     43 H12A       -1.9690   -0.1920   -2.9560 hc        1 5HA      0.122700
     44 H2          0.5050   -1.1810   -4.7190 hx        1 5HA      0.153700
     45 H31A       -0.4280    1.1180   -5.3970 hc        1 5HA      0.122700
     46 H32A       -0.3810    1.7050   -3.6630 hc        1 5HA      0.122700
     47 HN1         0.4620   -0.0170   -1.9710 hn        1 5HA      0.456300
     48 H41         2.4710    0.5120   -3.2440 hx        1 5HA      0.131200
     49 H42         2.5990   -1.2860   -3.6240 hx        1 5HA      0.131200
     50 H5          2.7330   -0.0390   -0.7450 h1        1 5HA      0.094700
     51 H6          4.7380    0.6450   -1.8730 hx        1 5HA      0.124700
     52 HN2         5.1000   -1.8950   -0.3870 hn        1 5HA      0.482800
     53 HO3         2.3550   -2.1400   -0.3850 ho        1 5HA      0.445000
     54 H81         4.5830   -0.5520   -3.9760 hc        1 5HA      0.093200
     55 H82         4.7360   -2.1830   -3.1780 hc        1 5HA      0.093200
     56 H10         7.2710   -2.1870    0.9080 ha        1 5HA      0.157000
     57 H12         9.6140   -0.1860    3.9390 ha        1 5HA      0.199000
     58 H14         6.1000    1.7830    2.2720 ha        1 5HA      0.190000
     59 H161        6.4710    3.4050    3.9630 h1        1 5HA      0.069700
     60 H162        8.1410    4.0620    4.3230 h1        1 5HA      0.069700
     61 H163        7.7600    3.4360    2.6650 h1        1 5HA      0.069700
     62 H231       10.0620    3.3500    5.4950 h1        1 5HA      0.157033
     63 H232        8.7290    3.9050    6.5550 h1        1 5HA      0.157033
     64 H233        9.9380    2.7500    7.1620 h1        1 5HA      0.157033
     65 H26        10.3800   -0.8870   -4.0390 ha        1 5HA      0.173000
     66 H27         8.9660    1.1450   -4.3850 ha        1 5HA      0.168000
     67 H28         6.5180    1.0510   -3.9490 ha        1 5HA      0.137500
     68 HN4         9.9380   -3.8730    3.9850 hn        1 5HA      0.474800
     69 H17        11.4390   -1.3120    3.7040 hx        1 5HA      0.092700
     70 H181       13.3310   -2.8230    2.9390 hc        1 5HA      0.084700
     71 H182       12.1850   -4.2260    2.8540 hc        1 5HA      0.084700
     72 H183       11.9240   -2.7800    1.7890 hc        1 5HA      0.084700
     73 H31        10.9120   -0.9420    6.0800 ha        1 5HA      0.148500
     74 H32        11.7360   -1.3020    8.3960 ha        1 5HA      0.167000
     75 H33        13.2320   -3.2360    8.9170 ha        1 5HA      0.173000
     76 H34        13.8890   -4.8270    7.1040 ha        1 5HA      0.167000
     77 H35        13.0720   -4.4950    4.7900 ha        1 5HA      0.148500
     78 H24         6.8890   -3.1160   -2.8070 ha        1 5HA      0.137500
     79 H121        0.6210   -1.6450   -2.3110 hn        1 5HA      0.456300
     80 H22         6.4180   -1.0780   -1.0260 hn        1 5HA      0.482800
     81 H421        9.4860   -2.3940    4.6260 hn        1 5HA      0.474800
     82 H25         9.3370   -3.0100   -3.2320 ha        1 5HA      0.168000
@<TRIPOS>BOND
     1    1    2 1   
     2    1    3 1   
     3    1   42 1   
     4    1   43 1   
     5    2    3 1   
     6    2    4 1   
     7    2   44 1   
     8    3   45 1   
     9    3   46 1   
    10    4    5 1   
    11    4   47 1   
    12    4   79 1   
    13    5    6 1   
    14    5   48 1   
    15    5   49 1   
    16    6    7 1   
    17    6   11 1   
    18    6   50 1   
    19    7    8 1   
    20    7   12 1   
    21    7   51 1   
    22    8    9 1   
    23    8   52 1   
    24    8   80 1   
    25    9   10 2   
    26    9   13 1   
    27   11   53 1   
    28   12   32 1   
    29   12   54 1   
    30   12   55 1   
    31   13   14 ar  
    32   13   18 ar  
    33   14   15 ar  
    34   14   56 1   
    35   15   16 ar  
    36   15   19 1   
    37   16   17 ar  
    38   16   57 1   
    39   17   18 ar  
    40   17   20 1   
    41   18   58 1   
    42   19   21 2   
    43   19   33 1   
    44   20   22 1   
    45   20   23 1   
    46   22   59 1   
    47   22   60 1   
    48   22   61 1   
    49   23   24 1   
    50   23   25 2   
    51   23   26 2   
    52   24   62 1   
    53   24   63 1   
    54   24   64 1   
    55   27   28 ar  
    56   27   32 ar  
    57   27   78 1   
    58   28   29 ar  
    59   28   82 1   
    60   29   30 ar  
    61   29   65 1   
    62   30   31 ar  
    63   30   66 1   
    64   31   32 ar  
    65   31   67 1   
    66   33   34 1   
    67   33   68 1   
    68   33   81 1   
    69   34   35 1   
    70   34   36 1   
    71   34   69 1   
    72   35   70 1   
    73   35   71 1   
    74   35   72 1   
    75   36   37 ar  
    76   36   41 ar  
    77   37   38 ar  
    78   37   73 1   
    79   38   39 ar  
    80   38   74 1   
    81   39   40 ar  
    82   39   75 1   
    83   40   41 ar  
    84   40   76 1   
    85   41   77 1   
@<TRIPOS>SUBSTRUCTURE
     1 5HA         1 TEMP              0 ****  ****    0 ROOT
