@<TRIPOS>MOLECULE
5HA
   79    82     1     0     0
SMALL
bcc


@<TRIPOS>ATOM
      1 C1         -0.4590    0.2440   -0.8640 cx        1 5HA     -0.126400
      2 C2          1.0530    0.3170   -0.9390 cx        1 5HA      0.103500
      3 C3          0.3520    0.0690    0.3840 cx        1 5HA     -0.126400
      4 N1          1.7980   -0.7340   -1.5730 n3        1 5HA     -0.805200
      5 C4          3.2340   -0.5580   -1.4600 c3        1 5HA      0.131800
      6 C5          4.0240   -1.7730   -1.9800 c3        1 5HA      0.132100
      7 C6          5.5370   -1.4220   -2.1170 c3        1 5HA      0.104700
      8 N2          6.1070   -0.9620   -0.8730 n         1 5HA     -0.558900
      9 C7          6.3370    0.3750   -0.6170 c         1 5HA      0.672700
     10 O2          5.8990    1.2680   -1.3710 o         1 5HA     -0.603100
     11 O3          3.6090   -2.1340   -3.2920 oh        1 5HA     -0.606800
     12 C8          6.2600   -2.6620   -2.6740 c3        1 5HA     -0.055100
     13 C9          7.0810    0.7160    0.6340 ca        1 5HA     -0.117600
     14 C10         8.1830   -0.0260    1.0600 ca        1 5HA     -0.107000
     15 C11         8.8450    0.3580    2.2280 ca        1 5HA     -0.111600
     16 C12         8.4280    1.4700    2.9590 ca        1 5HA     -0.116000
     17 C13         7.3200    2.2370    2.5280 ca        1 5HA      0.163600
     18 C14         6.6500    1.8350    1.3510 ca        1 5HA     -0.102000
     19 C15        10.0510   -0.3780    2.7180 c         1 5HA      0.673700
     20 N3          6.9100    3.3790    3.2440 nh        1 5HA     -0.671900
     21 O4         11.0650    0.2350    3.1070 o         1 5HA     -0.598100
     22 C16         6.0810    4.3210    2.5380 c3        1 5HA      0.188100
     23 S1          7.2840    3.6830    4.8240 s6        1 5HA      1.456900
     24 C23         8.7860    4.4660    4.7120 c3        1 5HA     -0.372300
     25 O5          6.3540    4.6030    5.3480 o         1 5HA     -0.641300
     26 O6          7.4580    2.4890    5.5440 o         1 5HA     -0.641300
     27 C24         8.6730   -3.1600   -2.2200 ca        1 5HA     -0.129000
     28 C25        10.0290   -2.9550   -2.4690 ca        1 5HA     -0.126000
     29 C26        10.4330   -2.0170   -3.4170 ca        1 5HA     -0.129000
     30 C27         9.4750   -1.2860   -4.1210 ca        1 5HA     -0.126000
     31 C28         8.1190   -1.4910   -3.8770 ca        1 5HA     -0.129000
     32 C29         7.7070   -2.4280   -2.9200 ca        1 5HA     -0.085300
     33 N4          9.9960   -1.7590    2.6850 n         1 5HA     -0.553900
     34 C17        11.0330   -2.5840    3.2740 c3        1 5HA      0.139000
     35 C18        11.5980   -3.5980    2.2730 c3        1 5HA     -0.099100
     36 C30        10.5470   -3.3180    4.5040 ca        1 5HA     -0.112300
     37 C31        11.1340   -3.0550    5.7450 ca        1 5HA     -0.118000
     38 C32        10.6990   -3.7340    6.8830 ca        1 5HA     -0.128000
     39 C33         9.6720   -4.6730    6.7890 ca        1 5HA     -0.123000
     40 C34         9.0790   -4.9330    5.5530 ca        1 5HA     -0.128000
     41 C35         9.5140   -4.2580    4.4140 ca        1 5HA     -0.118000
     42 H11        -1.0300    1.1780   -1.0140 hc        1 5HA      0.072950
     43 H12A       -0.9820   -0.6330   -1.2860 hc        1 5HA      0.072950
     44 H2          1.4940    1.3350   -1.0750 h1        1 5HA      0.061700
     45 H31A        0.3680    0.8760    1.1370 hc        1 5HA      0.072950
     46 H32A        0.4050   -0.9320    0.8470 hc        1 5HA      0.072950
     47 HN1         1.5320   -0.7950   -2.5400 hn        1 5HA      0.361800
     48 H41         3.6010    0.3620   -2.0050 h1        1 5HA      0.053700
     49 H42         3.4790   -0.4230   -0.3690 h1        1 5HA      0.053700
     50 H5          3.8910   -2.6460   -1.2840 h1        1 5HA      0.042700
     51 H6          5.6170   -0.5850   -2.8770 h1        1 5HA      0.097700
     52 HN2         6.5150   -1.6460   -0.2810 hn        1 5HA      0.311500
     53 HO3         2.7860   -2.6280   -3.1990 ho        1 5HA      0.412000
     54 H81         6.1170   -3.5270   -1.9740 hc        1 5HA      0.067200
     55 H82         5.7540   -2.9280   -3.6430 hc        1 5HA      0.067200
     56 H10         8.5510   -0.8790    0.4700 ha        1 5HA      0.150000
     57 H12         8.9810    1.7200    3.8820 ha        1 5HA      0.166000
     58 H14         5.7850    2.3980    0.9610 ha        1 5HA      0.164000
     59 H161        6.0210    5.2800    3.1240 h1        1 5HA      0.057700
     60 H162        5.0380    3.9200    2.4130 h1        1 5HA      0.057700
     61 H163        6.5050    4.5450    1.5230 h1        1 5HA      0.057700
     62 H231        9.5690    3.8860    4.1630 h1        1 5HA      0.122033
     63 H232        9.2040    4.6490    5.7360 h1        1 5HA      0.122033
     64 H233        8.7280    5.4660    4.2180 h1        1 5HA      0.122033
     65 H25        10.7810   -3.5370   -1.9160 ha        1 5HA      0.133000
     66 H26        11.5030   -1.8540   -3.6110 ha        1 5HA      0.134000
     67 H27         9.7900   -0.5450   -4.8710 ha        1 5HA      0.133000
     68 H28         7.3650   -0.9150   -4.4350 ha        1 5HA      0.132500
     69 HN4         9.1170   -2.1940    2.5300 hn        1 5HA      0.306500
     70 H17        11.8810   -1.8920    3.5760 h1        1 5HA      0.095700
     71 H181       12.0330   -3.0740    1.3890 hc        1 5HA      0.044033
     72 H182       10.8090   -4.3040    1.9220 hc        1 5HA      0.044033
     73 H183       12.4030   -4.1850    2.7770 hc        1 5HA      0.044033
     74 H31        11.9390   -2.3080    5.8260 ha        1 5HA      0.132000
     75 H32        11.1660   -3.5240    7.8570 ha        1 5HA      0.133500
     76 H33         9.3280   -5.2050    7.6880 ha        1 5HA      0.134000
     77 H34         8.2680   -5.6710    5.4770 ha        1 5HA      0.133500
     78 H35         9.0480   -4.4710    3.4410 ha        1 5HA      0.132000
     79 H24         8.3610   -3.9090   -1.4770 ha        1 5HA      0.132500
@<TRIPOS>BOND
     1    1    2 1   
     2    1    3 1   
     3    1   42 1   
     4    1   43 1   
     5    2    3 1   
     6    2    4 1   
     7    2   44 1   
     8    3   45 1   
     9    3   46 1   
    10    4    5 1   
    11    4   47 1   
    12    5    6 1   
    13    5   48 1   
    14    5   49 1   
    15    6    7 1   
    16    6   11 1   
    17    6   50 1   
    18    7    8 1   
    19    7   12 1   
    20    7   51 1   
    21    8    9 1   
    22    8   52 1   
    23    9   10 2   
    24    9   13 1   
    25   11   53 1   
    26   12   32 1   
    27   12   54 1   
    28   12   55 1   
    29   13   14 ar  
    30   13   18 ar  
    31   14   15 ar  
    32   14   56 1   
    33   15   16 ar  
    34   15   19 1   
    35   16   17 ar  
    36   16   57 1   
    37   17   18 ar  
    38   17   20 1   
    39   18   58 1   
    40   19   21 2   
    41   19   33 1   
    42   20   22 1   
    43   20   23 1   
    44   22   59 1   
    45   22   60 1   
    46   22   61 1   
    47   23   24 1   
    48   23   25 2   
    49   23   26 2   
    50   24   62 1   
    51   24   63 1   
    52   24   64 1   
    53   27   28 ar  
    54   27   32 ar  
    55   27   79 1   
    56   28   29 ar  
    57   28   65 1   
    58   29   30 ar  
    59   29   66 1   
    60   30   31 ar  
    61   30   67 1   
    62   31   32 ar  
    63   31   68 1   
    64   33   34 1   
    65   33   69 1   
    66   34   35 1   
    67   34   36 1   
    68   34   70 1   
    69   35   71 1   
    70   35   72 1   
    71   35   73 1   
    72   36   37 ar  
    73   36   41 ar  
    74   37   38 ar  
    75   37   74 1   
    76   38   39 ar  
    77   38   75 1   
    78   39   40 ar  
    79   39   76 1   
    80   40   41 ar  
    81   40   77 1   
    82   41   78 1   
@<TRIPOS>SUBSTRUCTURE
     1 5HA         1 TEMP              0 ****  ****    0 ROOT
