@<TRIPOS>MOLECULE
5HA
   82    85     1     0     0
SMALL
bcc


@<TRIPOS>ATOM
      1 C1         -1.4980   -0.3710   -3.7940 cx        1 5HA     -0.087900
      2 C2          0.0020   -0.6070   -3.8300 cx        1 5HA     -0.029500
      3 C3         -0.5880    0.7320   -4.2300 cx        1 5HA     -0.087900
      4 N1          0.7570   -0.7670   -2.5680 n4        1 5HA     -0.723000
      5 C4          2.2230   -0.5920   -2.7800 c3        1 5HA      0.082800
      6 C5          3.0480   -0.7950   -1.4920 c3        1 5HA      0.100100
      7 C6          4.5530   -0.5170   -1.7830 c3        1 5HA      0.135500
      8 N2          5.4270   -0.9920   -0.6450 n4        1 5HA     -0.680800
      9 C7          5.4530   -0.0680    0.5510 c         1 5HA      0.576700
     10 O2          4.5020    0.6980    0.6520 o         1 5HA     -0.436100
     11 O3          2.9220   -2.1450   -1.0800 oh        1 5HA     -0.604800
     12 C8          5.0190   -1.1620   -3.1010 c3        1 5HA     -0.053100
     13 C9          6.6040   -0.1650    1.4620 ca        1 5HA     -0.170600
     14 C10         7.4310   -1.2900    1.5410 ca        1 5HA     -0.064000
     15 C11         8.4920   -1.2860    2.4580 ca        1 5HA     -0.147600
     16 C12         8.7530   -0.1680    3.2500 ca        1 5HA     -0.079000
     17 C13         7.8750    0.9480    3.2440 ca        1 5HA      0.204600
     18 C14         6.8060    0.9340    2.3140 ca        1 5HA     -0.055000
     19 C15         9.3220   -2.5080    2.5360 c         1 5HA      0.554700
     20 N3          8.0550    2.0050    4.1370 nh        1 5HA     -0.647900
     21 O4          9.4400   -3.3250    1.6260 o         1 5HA     -0.423100
     22 C16         7.5910    3.3030    3.7120 c3        1 5HA      0.169100
     23 S1          8.4290    1.7460    5.7770 s6        1 5HA      1.466900
     24 C23         9.3760    3.0570    6.1800 c3        1 5HA     -0.406300
     25 O5          7.2340    1.7320    6.4900 o         1 5HA     -0.642800
     26 O6          9.1950    0.5570    5.8150 o         1 5HA     -0.642800
     27 C24         7.2980   -2.1950   -3.0990 ca        1 5HA     -0.130500
     28 C25         8.6640   -2.1330   -3.3740 ca        1 5HA     -0.110500
     29 C26         9.2310   -0.9470   -3.8450 ca        1 5HA     -0.083000
     30 C27         8.4300    0.1800   -4.0370 ca        1 5HA     -0.110500
     31 C28         7.0640    0.1220   -3.7660 ca        1 5HA     -0.130500
     32 C29         6.4900   -1.0660   -3.2950 ca        1 5HA     -0.192300
     33 N4         10.0160   -2.8120    3.8200 n4        1 5HA     -0.683800
     34 C17        11.4970   -2.3810    3.8470 c3        1 5HA      0.230800
     35 C18        12.2920   -3.0710    2.7540 c3        1 5HA     -0.134100
     36 C30        12.0030   -2.6340    5.2290 ca        1 5HA     -0.214300
     37 C31        11.6410   -1.7340    6.2460 ca        1 5HA     -0.101000
     38 C32        12.1240   -1.9150    7.5390 ca        1 5HA     -0.116500
     39 C33        12.9680   -2.9910    7.8290 ca        1 5HA     -0.060000
     40 C34        13.3240   -3.8880    6.8210 ca        1 5HA     -0.116500
     41 C35        12.8410   -3.7160    5.5250 ca        1 5HA     -0.101000
     42 H11        -2.0290   -0.2840   -2.8270 hc        1 5HA      0.122700
     43 H12A       -2.1120   -0.9130   -4.5440 hc        1 5HA      0.122700
     44 H2          0.4250   -1.2740   -4.6170 hx        1 5HA      0.153700
     45 H31A       -0.4640    1.6160   -3.5750 hc        1 5HA      0.122700
     46 H32A       -0.5330    1.0120   -5.3030 hc        1 5HA      0.122700
     47 HN1         0.4150   -0.0850   -1.8790 hn        1 5HA      0.456300
     48 H41         2.4020    0.4450   -3.1870 hx        1 5HA      0.131200
     49 H42         2.5360   -1.3570   -3.5520 hx        1 5HA      0.131200
     50 H5          2.7040   -0.0820   -0.6870 h1        1 5HA      0.094700
     51 H6          4.6870    0.6050   -1.8510 hx        1 5HA      0.124700
     52 HN2         5.0890   -1.9190   -0.3470 hn        1 5HA      0.482800
     53 HO3         2.3450   -2.1820   -0.3030 ho        1 5HA      0.445000
     54 H81         4.5090   -0.6130   -3.9410 hc        1 5HA      0.093200
     55 H82         4.6860   -2.2350   -3.1300 hc        1 5HA      0.093200
     56 H10         7.2760   -2.1880    0.9200 ha        1 5HA      0.157000
     57 H12         9.6540   -0.1450    3.8960 ha        1 5HA      0.199000
     58 H14         6.1070    1.7910    2.2600 ha        1 5HA      0.190000
     59 H161        8.1650    4.1000    4.2590 h1        1 5HA      0.069700
     60 H162        6.4950    3.4320    3.9290 h1        1 5HA      0.069700
     61 H163        7.7650    3.4560    2.6130 h1        1 5HA      0.069700
     62 H231       10.1080    3.4090    5.4080 h1        1 5HA      0.157033
     63 H232       10.0120    2.8250    7.0820 h1        1 5HA      0.157033
     64 H233        8.7890    3.9680    6.4830 h1        1 5HA      0.157033
     65 H26        10.3070   -0.9070   -4.0870 ha        1 5HA      0.173000
     66 H27         8.8730    1.1120   -4.4290 ha        1 5HA      0.168000
     67 H28         6.4330    1.0040   -3.9550 ha        1 5HA      0.137500
     68 HN4         9.9940   -3.8300    3.9770 hn        1 5HA      0.474800
     69 H17        11.4800   -1.2660    3.6470 hx        1 5HA      0.092700
     70 H181       11.9440   -2.7510    1.7410 hc        1 5HA      0.084700
     71 H182       13.3670   -2.7760    2.8710 hc        1 5HA      0.084700
     72 H183       12.2260   -4.1850    2.8170 hc        1 5HA      0.084700
     73 H31        10.9850   -0.8740    6.0270 ha        1 5HA      0.148500
     74 H32        11.8430   -1.2070    8.3350 ha        1 5HA      0.167000
     75 H33        13.3550   -3.1280    8.8530 ha        1 5HA      0.173000
     76 H34        13.9940   -4.7350    7.0480 ha        1 5HA      0.167000
     77 H35        13.1430   -4.4300    4.7420 ha        1 5HA      0.148500
     78 H24         6.8500   -3.1500   -2.7850 ha        1 5HA      0.137500
     79 H121        0.5800   -1.7150   -2.2070 hn        1 5HA      0.456300
     80 H22         6.3910   -1.0990   -1.0140 hn        1 5HA      0.482800
     81 H421        9.5440   -2.3460    4.6090 hn        1 5HA      0.474800
     82 H25         9.2900   -3.0310   -3.2480 ha        1 5HA      0.168000
@<TRIPOS>BOND
     1    1    2 1   
     2    1    3 1   
     3    1   42 1   
     4    1   43 1   
     5    2    3 1   
     6    2    4 1   
     7    2   44 1   
     8    3   45 1   
     9    3   46 1   
    10    4    5 1   
    11    4   47 1   
    12    4   79 1   
    13    5    6 1   
    14    5   48 1   
    15    5   49 1   
    16    6    7 1   
    17    6   11 1   
    18    6   50 1   
    19    7    8 1   
    20    7   12 1   
    21    7   51 1   
    22    8    9 1   
    23    8   52 1   
    24    8   80 1   
    25    9   10 2   
    26    9   13 1   
    27   11   53 1   
    28   12   32 1   
    29   12   54 1   
    30   12   55 1   
    31   13   14 ar  
    32   13   18 ar  
    33   14   15 ar  
    34   14   56 1   
    35   15   16 ar  
    36   15   19 1   
    37   16   17 ar  
    38   16   57 1   
    39   17   18 ar  
    40   17   20 1   
    41   18   58 1   
    42   19   21 2   
    43   19   33 1   
    44   20   22 1   
    45   20   23 1   
    46   22   59 1   
    47   22   60 1   
    48   22   61 1   
    49   23   24 1   
    50   23   25 2   
    51   23   26 2   
    52   24   62 1   
    53   24   63 1   
    54   24   64 1   
    55   27   28 ar  
    56   27   32 ar  
    57   27   78 1   
    58   28   29 ar  
    59   28   82 1   
    60   29   30 ar  
    61   29   65 1   
    62   30   31 ar  
    63   30   66 1   
    64   31   32 ar  
    65   31   67 1   
    66   33   34 1   
    67   33   68 1   
    68   33   81 1   
    69   34   35 1   
    70   34   36 1   
    71   34   69 1   
    72   35   70 1   
    73   35   71 1   
    74   35   72 1   
    75   36   37 ar  
    76   36   41 ar  
    77   37   38 ar  
    78   37   73 1   
    79   38   39 ar  
    80   38   74 1   
    81   39   40 ar  
    82   39   75 1   
    83   40   41 ar  
    84   40   76 1   
    85   41   77 1   
@<TRIPOS>SUBSTRUCTURE
     1 5HA         1 TEMP              0 ****  ****    0 ROOT
