@<TRIPOS>MOLECULE
5HC
   36    37     1     0     0
SMALL
bcc


@<TRIPOS>ATOM
      1 P          -1.7220    1.2440   -1.2170 p5        1 5HC      1.342900
      2 OP1        -2.6400    0.6830   -0.1580 o         1 5HC     -0.927833
      3 OP2        -0.3200    1.4740   -0.6740 o         1 5HC     -0.927833
      4 O5'        -1.5130   -0.2040   -2.1380 os        1 5HC     -0.569200
      5 C5'        -0.3670   -0.9270   -1.9540 c3        1 5HC      0.213400
      6 C4'        -0.5500   -2.1110   -0.9750 c3        1 5HC      0.062100
      7 O4'         0.7410   -2.7270   -0.7520 os        1 5HC     -0.440600
      8 C3'        -1.1090   -1.7070    0.4050 c3        1 5HC      0.101100
      9 O3'        -2.4160   -2.2030    0.6020 oh        1 5HC     -0.647800
     10 C2'        -0.1430   -2.3170    1.4230 c3        1 5HC     -0.119400
     11 C1'         1.1470   -2.5690    0.6110 c3        1 5HC      0.290500
     12 N1          2.1460   -1.5020    0.7530 n         1 5HC     -0.375000
     13 C2          3.5420   -1.8330    0.8590 c         1 5HC      0.826900
     14 O2          3.8590   -3.0260    1.0940 o         1 5HC     -0.694500
     15 N3          4.5230   -0.8420    0.7190 nc        1 5HC     -0.768100
     16 C4          4.1300    0.4410    0.5740 cd        1 5HC      0.726500
     17 N4          5.0970    1.4490    0.4300 nh        1 5HC     -0.893800
     18 C5          2.7350    0.8270    0.5920 cd        1 5HC     -0.414800
     19 C5M         2.2540    2.2380    0.4830 c3        1 5HC      0.211600
     20 O5          2.2860    2.6920   -0.8530 oh        1 5HC     -0.670800
     21 C6          1.7930   -0.1860    0.6030 cc        1 5HC      0.081600
     22 OP3        -2.2350    2.2490   -2.1940 o         1 5HC     -0.927833
     23 H5'        -0.0600   -1.3820   -2.9430 h1        1 5HC      0.002200
     24 H5''        0.4780   -0.2780   -1.5890 h1        1 5HC      0.002200
     25 H4         -1.1860   -2.9090   -1.4390 h1        1 5HC      0.049700
     26 H3'        -1.1420   -0.5690    0.4760 h1        1 5HC      0.146700
     27 HO3'       -2.9970   -1.4580    0.3500 ho        1 5HC      0.469000
     28 H2'         0.0130   -1.6360    2.2910 hc        1 5HC      0.050200
     29 H2''       -0.5310   -3.2940    1.8010 hc        1 5HC      0.050200
     30 H1'         1.6570   -3.5370    0.8870 h2        1 5HC      0.092700
     31 HN41        5.9910    1.1450    0.1170 hn        1 5HC      0.400300
     32 HN42        4.7440    2.2440   -0.0610 hn        1 5HC      0.400300
     33 H5M2        1.1980    2.3000    0.8760 h1        1 5HC      0.049200
     34 H5M1        2.9190    2.9360    1.0630 h1        1 5HC      0.049200
     35 HO5         1.4480    2.3800   -1.2550 ho        1 5HC      0.483000
     36 H6          0.7100    0.0980    0.4480 h4        1 5HC      0.274000
@<TRIPOS>BOND
     1    1    2 1   
     2    1    3 1   
     3    1    4 1   
     4    1   22 1   
     5    4    5 1   
     6    5    6 1   
     7    5   23 1   
     8    5   24 1   
     9    6    7 1   
    10    6    8 1   
    11    6   25 1   
    12    7   11 1   
    13    8    9 1   
    14    8   10 1   
    15    8   26 1   
    16    9   27 1   
    17   10   11 1   
    18   10   28 1   
    19   10   29 1   
    20   11   12 1   
    21   11   30 1   
    22   12   13 1   
    23   12   21 1   
    24   13   14 2   
    25   13   15 1   
    26   15   16 2   
    27   16   17 1   
    28   16   18 1   
    29   17   31 1   
    30   17   32 1   
    31   18   19 1   
    32   18   21 2   
    33   19   20 1   
    34   19   33 1   
    35   19   34 1   
    36   20   35 1   
    37   21   36 1   
@<TRIPOS>SUBSTRUCTURE
     1 5HC         1 TEMP              0 ****  ****    0 ROOT
