@<TRIPOS>MOLECULE
5HC
   36    35     1     0     0
SMALL
bcc


@<TRIPOS>ATOM
      1 P          -0.7720   -2.3880    3.5080 p3        1 5HC      2.520000
      2 OP1         0.5630   -2.2020    4.1850 o         1 5HC     -1.240000
      3 OP2        -1.7740   -2.9240    4.5060 o         1 5HC     -1.240000
      4 O5'        -1.2800   -0.9910    2.9470 o         1 5HC     -0.740000
      5 C5'        -0.5440   -0.3750    1.8970 c3        1 5HC      0.072000
      6 C4'        -0.2610    1.0200    2.2510 c3        1 5HC     -0.041000
      7 O4'         0.8120    1.6720    1.1800 os        1 5HC     -0.286000
      8 C3'        -1.3670    1.7480    2.1600 c3        1 5HC     -0.002000
      9 O3'        -1.3370    2.8400    3.1380 oh        1 5HC     -0.377000
     10 C2'        -1.3530    2.3210    0.7080 c3        1 5HC     -0.193000
     11 C1'         0.1150    2.0290    0.1460 c3        1 5HC      0.144000
     12 N1          0.0780    0.9730   -0.8200 n         1 5HC     -0.262000
     13 C2         -1.1040    0.8060   -1.6720 c2        1 5HC      0.341000
     14 O2         -2.0060    1.6140   -1.6170 o         1 5HC     -0.430000
     15 N3         -1.1430   -0.2680   -2.6740 n2        1 5HC     -0.349000
     16 C4          0.0370   -1.0090   -2.9680 c1        1 5HC      0.200000
     17 N4          0.0470   -1.9280   -4.0540 n3        1 5HC     -0.337000
     18 C5          1.2660   -0.7710   -2.1880 c1        1 5HC     -0.345000
     19 C5M         2.5810   -1.4260   -2.6140 c3        1 5HC      0.005000
     20 O5          3.1920   -0.6440   -3.6210 oh        1 5HC     -0.389000
     21 C6          1.2550    0.2110   -1.0820 c2        1 5HC      0.107000
     22 OP3        -0.6260   -3.3650    2.3660 o         1 5HC     -1.240000
     23 H5'        -1.0660   -0.4010    1.0750 h1        1 5HC      0.043500
     24 H5''        0.2980   -0.8540    1.7640 h1        1 5HC      0.043500
     25 H4          0.1010    1.0700    3.1630 h1        1 5HC      0.060000
     26 H3'        -2.1560    1.1880    2.2980 h1        1 5HC      0.180000
     27 HO3'       -2.1680    3.0110    3.4190 ho        1 5HC      0.266000
     28 H2'        -1.5240    3.2820    0.7220 hc        1 5HC      0.089000
     29 H2''       -2.0220    1.8660    0.1590 hc        1 5HC      0.089000
     30 H1'         0.4950    2.8450   -0.2550 h2        1 5HC      0.129000
     31 HN41       -0.6420   -1.9290   -4.6620 hn        1 5HC      0.196500
     32 HN42        0.7140   -2.5430   -4.1220 hn        1 5HC      0.196500
     33 H5M2        2.4000   -2.3300   -2.9640 h1        1 5HC      0.132000
     34 H5M1        3.1780   -1.4880   -1.8430 h1        1 5HC      0.132000
     35 HO5         3.9490   -1.0290   -3.8760 ho        1 5HC      0.220000
     36 H6          2.0640    0.3710   -0.5640 h4        1 5HC      0.304000
@<TRIPOS>BOND
     1    1    2 1   
     2    1    3 1   
     3    1   22 1   
     4    4    5 1   
     5    5    6 1   
     6    5   23 1   
     7    5   24 1   
     8    6    7 1   
     9    6    8 1   
    10    6   25 1   
    11    7   11 1   
    12    8    9 1   
    13    8   10 1   
    14    8   26 1   
    15    9   27 1   
    16   10   11 1   
    17   10   28 1   
    18   10   29 1   
    19   11   12 1   
    20   11   30 1   
    21   12   13 1   
    22   12   21 1   
    23   13   14 1   
    24   13   15 1   
    25   15   16 1   
    26   16   17 1   
    27   17   31 1   
    28   17   32 1   
    29   18   19 1   
    30   18   21 1   
    31   19   20 1   
    32   19   33 1   
    33   19   34 1   
    34   20   35 1   
    35   21   36 1   
@<TRIPOS>SUBSTRUCTURE
     1 5HC         1 TEMP              0 ****  ****    0 ROOT
