@<TRIPOS>MOLECULE
5HD
   38    37     1     0     0
SMALL
bcc


@<TRIPOS>ATOM
      1 C1          0.0090   -0.0770   -0.0240 c3        1 5HD     -0.079900
      2 C2          1.5080    0.1050    0.0760 c3        1 5HD     -0.084400
      3 C3          1.9840   -0.1580    1.4940 c3        1 5HD      0.131900
      4 O14        -6.8290    3.1390    0.6890 oh        1 5HD     -0.601800
      5 C13        -6.2680    1.9270    0.2070 c3        1 5HD      0.131900
      6 C12        -4.8270    2.2230   -0.1710 c3        1 5HD     -0.084400
      7 C11        -4.1400    0.9710   -0.6700 c3        1 5HD     -0.079900
      8 C10        -2.7060    1.2600   -1.0610 c3        1 5HD     -0.077400
      9 C6         -1.9840    0.0180   -1.5680 c3        1 5HD     -0.062700
     10 C7         -2.3600   -0.2550   -3.0180 c3        1 5HD     -0.083400
     11 C8         -2.1280   -1.7100   -3.3920 c3        1 5HD      0.131400
     12 O9         -2.5330   -1.8570   -4.7450 oh        1 5HD     -0.602800
     13 C5         -0.4750    0.1880   -1.4340 c3        1 5HD     -0.077400
     14 O4          3.3930    0.0120    1.4980 oh        1 5HD     -0.601800
     15 H1         -0.2640   -1.1230    0.2770 hc        1 5HD      0.039950
     16 H1A        -0.5030    0.6170    0.6940 hc        1 5HD      0.039950
     17 H2          2.0330   -0.5960   -0.6250 hc        1 5HD      0.055700
     18 H2A         1.7940    1.1470   -0.2220 hc        1 5HD      0.055700
     19 H3          1.5090    0.5650    2.2110 h1        1 5HD      0.019700
     20 H3A         1.7240   -1.2040    1.8120 h1        1 5HD      0.019700
     21 HO14       -7.7480    2.9470    0.9090 ho        1 5HD      0.399000
     22 H13        -6.8450    1.5660   -0.6860 h1        1 5HD      0.019700
     23 H13A       -6.3130    1.1410    1.0080 h1        1 5HD      0.019700
     24 H12        -4.2880    2.6330    0.7220 hc        1 5HD      0.055700
     25 H12A       -4.8090    3.0180   -0.9610 hc        1 5HD      0.055700
     26 H11        -4.7010    0.5600   -1.5500 hc        1 5HD      0.039950
     27 H11A       -4.1610    0.1860    0.1310 hc        1 5HD      0.039950
     28 H10        -2.1620    1.6690   -0.1680 hc        1 5HD      0.044700
     29 H10A       -2.6830    2.0540   -1.8530 hc        1 5HD      0.044700
     30 H6         -2.3030   -0.8620   -0.9410 hc        1 5HD      0.047700
     31 H7         -1.7630    0.4030   -3.7010 hc        1 5HD      0.057200
     32 H7A        -3.4410   -0.0120   -3.1880 hc        1 5HD      0.057200
     33 H8         -2.7380   -2.3890   -2.7370 h1        1 5HD      0.020200
     34 H8A        -1.0450   -1.9850   -3.2850 h1        1 5HD      0.020200
     35 HO9        -2.3610   -2.7740   -4.9840 ho        1 5HD      0.399000
     36 H5          0.0450   -0.5180   -2.1350 hc        1 5HD      0.044700
     37 H5A        -0.1890    1.2280   -1.7420 hc        1 5HD      0.044700
     38 HO4         3.6860   -0.1420    2.4040 ho        1 5HD      0.399000
@<TRIPOS>BOND
     1    1    2 1   
     2    1   13 1   
     3    1   15 1   
     4    1   16 1   
     5    2    3 1   
     6    2   17 1   
     7    2   18 1   
     8    3   14 1   
     9    3   19 1   
    10    3   20 1   
    11    4    5 1   
    12    4   21 1   
    13    5    6 1   
    14    5   22 1   
    15    5   23 1   
    16    6    7 1   
    17    6   24 1   
    18    6   25 1   
    19    7    8 1   
    20    7   26 1   
    21    7   27 1   
    22    8    9 1   
    23    8   28 1   
    24    8   29 1   
    25    9   10 1   
    26    9   13 1   
    27    9   30 1   
    28   10   11 1   
    29   10   31 1   
    30   10   32 1   
    31   11   12 1   
    32   11   33 1   
    33   11   34 1   
    34   12   35 1   
    35   13   36 1   
    36   13   37 1   
    37   14   38 1   
@<TRIPOS>SUBSTRUCTURE
     1 5HD         1 TEMP              0 ****  ****    0 ROOT
