@<TRIPOS>MOLECULE
5HD
   38    37     1     0     0
SMALL
bcc


@<TRIPOS>ATOM
      1 C1         -2.1090   -0.5500    0.2440 c3        1 5HD     -0.079900
      2 C2         -3.5080   -0.7930   -0.2770 c3        1 5HD     -0.084400
      3 C3         -4.1890   -1.8950    0.5160 c3        1 5HD      0.131900
      4 O14         5.2150   -2.5160   -0.0920 oh        1 5HD     -0.601800
      5 C13         4.4100   -1.5060    0.4960 c3        1 5HD      0.131900
      6 C12         3.1490   -1.3960   -0.3430 c3        1 5HD     -0.084400
      7 C11         2.2160   -0.3550    0.2350 c3        1 5HD     -0.079900
      8 C10         0.9600   -0.2300   -0.6030 c3        1 5HD     -0.077400
      9 C6         -0.0040    0.8110   -0.0480 c3        1 5HD     -0.062700
     10 C7          0.4430    2.2100   -0.4480 c3        1 5HD     -0.083400
     11 C8         -0.1210    3.2670    0.4860 c3        1 5HD      0.131400
     12 O9          0.3760    4.5200    0.0400 oh        1 5HD     -0.602800
     13 C5         -1.4200    0.5430   -0.5450 c3        1 5HD     -0.077400
     14 O4         -5.4950   -2.0460   -0.0180 oh        1 5HD     -0.601800
     15 H1         -2.1560   -0.2590    1.3270 hc        1 5HD      0.039950
     16 H1A        -1.5140   -1.4990    0.1830 hc        1 5HD      0.039950
     17 H2         -4.1180    0.1440   -0.2060 hc        1 5HD      0.055700
     18 H2A        -3.4740   -1.0850   -1.3590 hc        1 5HD      0.055700
     19 H3         -3.6210   -2.8600    0.4200 h1        1 5HD      0.019700
     20 H3A        -4.2510   -1.6200    1.6040 h1        1 5HD      0.019700
     21 HO14        6.0210   -2.5670    0.4340 ho        1 5HD      0.399000
     22 H13         4.1590   -1.7870    1.5550 h1        1 5HD      0.019700
     23 H13A        4.9660   -0.5300    0.5050 h1        1 5HD      0.019700
     24 H12         3.4280   -1.1270   -1.3950 hc        1 5HD      0.055700
     25 H12A        2.6420   -2.3950   -0.3800 hc        1 5HD      0.055700
     26 H11         1.9410   -0.6370    1.2860 hc        1 5HD      0.039950
     27 H11A        2.7410    0.6350    0.2860 hc        1 5HD      0.039950
     28 H10         1.2340    0.0400   -1.6570 hc        1 5HD      0.044700
     29 H10A        0.4490   -1.2290   -0.6410 hc        1 5HD      0.044700
     30 H6          0.0000    0.7390    1.0770 hc        1 5HD      0.047700
     31 H7          1.5630    2.2780   -0.4270 hc        1 5HD      0.057200
     32 H7A         0.1200    2.4330   -1.4980 hc        1 5HD      0.057200
     33 H8         -1.2440    3.2710    0.4590 h1        1 5HD      0.020200
     34 H8A         0.2130    3.0810    1.5430 h1        1 5HD      0.020200
     35 HO9        -0.0040    5.1890    0.6200 ho        1 5HD      0.399000
     36 H5         -1.3860    0.2620   -1.6310 hc        1 5HD      0.044700
     37 H5A        -2.0270    1.4840   -0.4680 hc        1 5HD      0.044700
     38 HO4        -5.9150   -2.7560    0.4800 ho        1 5HD      0.399000
@<TRIPOS>BOND
     1    1    2 1   
     2    1   13 1   
     3    1   15 1   
     4    1   16 1   
     5    2    3 1   
     6    2   17 1   
     7    2   18 1   
     8    3   14 1   
     9    3   19 1   
    10    3   20 1   
    11    4    5 1   
    12    4   21 1   
    13    5    6 1   
    14    5   22 1   
    15    5   23 1   
    16    6    7 1   
    17    6   24 1   
    18    6   25 1   
    19    7    8 1   
    20    7   26 1   
    21    7   27 1   
    22    8    9 1   
    23    8   28 1   
    24    8   29 1   
    25    9   10 1   
    26    9   13 1   
    27    9   30 1   
    28   10   11 1   
    29   10   31 1   
    30   10   32 1   
    31   11   12 1   
    32   11   33 1   
    33   11   34 1   
    34   12   35 1   
    35   13   36 1   
    36   13   37 1   
    37   14   38 1   
@<TRIPOS>SUBSTRUCTURE
     1 5HD         1 TEMP              0 ****  ****    0 ROOT
