@<TRIPOS>MOLECULE
5HD
   38    37     1     0     0
SMALL
bcc


@<TRIPOS>ATOM
      1 C1          0.0070   -0.0810   -0.0210 c3        1 5HD     -0.079900
      2 C2          1.5060    0.0980    0.0810 c3        1 5HD     -0.084400
      3 C3          1.9790   -0.1660    1.5000 c3        1 5HD      0.131900
      4 O14        -6.8270    3.1410    0.6880 oh        1 5HD     -0.601800
      5 C13        -6.2680    1.9310    0.2030 c3        1 5HD      0.131900
      6 C12        -4.8250    2.2260   -0.1710 c3        1 5HD     -0.084400
      7 C11        -4.1400    0.9740   -0.6730 c3        1 5HD     -0.079900
      8 C10        -2.7050    1.2620   -1.0600 c3        1 5HD     -0.077400
      9 C6         -1.9830    0.0190   -1.5690 c3        1 5HD     -0.062700
     10 C7         -2.3570   -0.2500   -3.0200 c3        1 5HD     -0.083400
     11 C8         -2.1270   -1.7040   -3.3960 c3        1 5HD      0.131400
     12 O9         -2.5290   -1.8480   -4.7500 oh        1 5HD     -0.602800
     13 C5         -0.4740    0.1880   -1.4320 c3        1 5HD     -0.077400
     14 O4          3.3890   -0.0000    1.5060 oh        1 5HD     -0.601800
     15 H1         -0.2680   -1.1270    0.2780 hc        1 5HD      0.039950
     16 H1A        -0.5040    0.6130    0.6960 hc        1 5HD      0.039950
     17 H2          2.0310   -0.6030   -0.6190 hc        1 5HD      0.055700
     18 H2A         1.7940    1.1400   -0.2160 hc        1 5HD      0.055700
     19 H3          1.5050    0.5570    2.2160 h1        1 5HD      0.019700
     20 H3A         1.7170   -1.2120    1.8170 h1        1 5HD      0.019700
     21 HO14       -7.7470    2.9510    0.9050 ho        1 5HD      0.399000
     22 H13        -6.8430    1.5730   -0.6930 h1        1 5HD      0.019700
     23 H13A       -6.3160    1.1420    1.0020 h1        1 5HD      0.019700
     24 H12        -4.2870    2.6320    0.7240 hc        1 5HD      0.055700
     25 H12A       -4.8040    3.0230   -0.9600 hc        1 5HD      0.055700
     26 H11        -4.7000    0.5660   -1.5550 hc        1 5HD      0.039950
     27 H11A       -4.1630    0.1860    0.1260 hc        1 5HD      0.039950
     28 H10        -2.1620    1.6670   -0.1660 hc        1 5HD      0.044700
     29 H10A       -2.6790    2.0570   -1.8510 hc        1 5HD      0.044700
     30 H6         -2.3040   -0.8620   -0.9440 hc        1 5HD      0.047700
     31 H7         -1.7580    0.4080   -3.7010 hc        1 5HD      0.057200
     32 H7A        -3.4380   -0.0050   -3.1920 hc        1 5HD      0.057200
     33 H8         -2.7390   -2.3840   -2.7440 h1        1 5HD      0.020200
     34 H8A        -1.0440   -1.9820   -3.2880 h1        1 5HD      0.020200
     35 HO9        -2.3590   -2.7660   -4.9910 ho        1 5HD      0.399000
     36 H5          0.0460   -0.5180   -2.1330 hc        1 5HD      0.044700
     37 H5A        -0.1860    1.2280   -1.7380 hc        1 5HD      0.044700
     38 HO4         3.6800   -0.1550    2.4120 ho        1 5HD      0.399000
@<TRIPOS>BOND
     1    1    2 1   
     2    1   13 1   
     3    1   15 1   
     4    1   16 1   
     5    2    3 1   
     6    2   17 1   
     7    2   18 1   
     8    3   14 1   
     9    3   19 1   
    10    3   20 1   
    11    4    5 1   
    12    4   21 1   
    13    5    6 1   
    14    5   22 1   
    15    5   23 1   
    16    6    7 1   
    17    6   24 1   
    18    6   25 1   
    19    7    8 1   
    20    7   26 1   
    21    7   27 1   
    22    8    9 1   
    23    8   28 1   
    24    8   29 1   
    25    9   10 1   
    26    9   13 1   
    27    9   30 1   
    28   10   11 1   
    29   10   31 1   
    30   10   32 1   
    31   11   12 1   
    32   11   33 1   
    33   11   34 1   
    34   12   35 1   
    35   13   36 1   
    36   13   37 1   
    37   14   38 1   
@<TRIPOS>SUBSTRUCTURE
     1 5HD         1 TEMP              0 ****  ****    0 ROOT
