@<TRIPOS>MOLECULE
5HD
   38    37     1     0     0
SMALL
bcc


@<TRIPOS>ATOM
      1 C1          1.6890    0.4950    1.4080 c3        1 5HD     -0.079900
      2 C2          3.2020    0.4950    1.4080 c3        1 5HD     -0.084400
      3 C3          3.7060    0.4950    2.8340 c3        1 5HD      0.131900
      4 O14        -2.6850   -3.4420   -3.9850 oh        1 5HD     -0.601800
      5 C13        -2.2160   -3.0700   -2.7080 c3        1 5HD      0.131900
      6 C12        -1.7580   -1.6290   -2.7380 c3        1 5HD     -0.084400
      7 C11        -1.2640   -1.2280   -1.3660 c3        1 5HD     -0.079900
      8 C10        -0.7660    0.2000   -1.4060 c3        1 5HD     -0.077400
      9 C6         -0.3220    0.6190   -0.0220 c3        1 5HD     -0.062700
     10 C7         -0.9540    1.9480    0.3290 c3        1 5HD     -0.083400
     11 C8         -2.1320    1.7190    1.2510 c3        1 5HD      0.131400
     12 O9         -2.6800    2.9620    1.6310 oh        1 5HD     -0.602800
     13 C5          1.1850    0.7540    0.0050 c3        1 5HD     -0.077400
     14 O4          5.1050    0.3180    2.8380 oh        1 5HD     -0.601800
     15 H1          1.3630   -0.3730    1.7150 hc        1 5HD      0.039950
     16 H1A         1.3630    1.1950    2.0050 hc        1 5HD      0.039950
     17 H2          3.5270    1.2920    0.9480 hc        1 5HD      0.055700
     18 H2A         3.5270   -0.3020    0.9480 hc        1 5HD      0.055700
     19 H3          3.2850   -0.2340    3.3280 h1        1 5HD      0.019700
     20 H3A         3.4840    1.3460    3.2580 h1        1 5HD      0.019700
     21 HO14       -2.9530   -4.2880   -3.9680 ho        1 5HD      0.399000
     22 H13        -2.9350   -3.1700   -2.0550 h1        1 5HD      0.019700
     23 H13A       -1.4670   -3.6440   -2.4570 h1        1 5HD      0.019700
     24 H12        -2.5050   -1.0550   -2.9950 hc        1 5HD      0.055700
     25 H12A       -1.0340   -1.5310   -3.3860 hc        1 5HD      0.055700
     26 H11        -0.5350   -1.8190   -1.0970 hc        1 5HD      0.039950
     27 H11A       -1.9950   -1.2990   -0.7230 hc        1 5HD      0.039950
     28 H10        -0.0120    0.2650   -2.0230 hc        1 5HD      0.044700
     29 H10A       -1.4850    0.7870   -1.7090 hc        1 5HD      0.044700
     30 H6         -0.6000   -0.0550    0.6270 hc        1 5HD      0.047700
     31 H7         -1.2590    2.3890   -0.4860 hc        1 5HD      0.057200
     32 H7A        -0.2960    2.5130    0.7780 hc        1 5HD      0.057200
     33 H8         -1.8340    1.2370    2.0460 h1        1 5HD      0.020200
     34 H8A        -2.8100    1.1930    0.7860 h1        1 5HD      0.020200
     35 HO9        -3.3600    2.8280    2.1850 ho        1 5HD      0.399000
     36 H5          1.5800    0.1060   -0.6080 hc        1 5HD      0.044700
     37 H5A         1.4360    1.6570   -0.2690 hc        1 5HD      0.044700
     38 HO4         5.4030    0.3280    3.6740 ho        1 5HD      0.399000
@<TRIPOS>BOND
     1    1    2 1   
     2    1   13 1   
     3    1   15 1   
     4    1   16 1   
     5    2    3 1   
     6    2   17 1   
     7    2   18 1   
     8    3   14 1   
     9    3   19 1   
    10    3   20 1   
    11    4    5 1   
    12    4   21 1   
    13    5    6 1   
    14    5   22 1   
    15    5   23 1   
    16    6    7 1   
    17    6   24 1   
    18    6   25 1   
    19    7    8 1   
    20    7   26 1   
    21    7   27 1   
    22    8    9 1   
    23    8   28 1   
    24    8   29 1   
    25    9   10 1   
    26    9   13 1   
    27    9   30 1   
    28   10   11 1   
    29   10   31 1   
    30   10   32 1   
    31   11   12 1   
    32   11   33 1   
    33   11   34 1   
    34   12   35 1   
    35   13   36 1   
    36   13   37 1   
    37   14   38 1   
@<TRIPOS>SUBSTRUCTURE
     1 5HD         1 TEMP              0 ****  ****    0 ROOT
