@<TRIPOS>MOLECULE
5HE
   52    51     1     0     0
SMALL
bcc


@<TRIPOS>ATOM
      1 C1         -3.0410   -4.1740   -3.0380 c3        1 5HE     -0.078100
      2 C2         -3.4590   -2.9920   -2.2030 c3        1 5HE     -0.076200
      3 C3         -4.4990   -3.3400   -1.2080 c2        1 5HE     -0.184200
      4 C4         -4.9140   -2.5060   -0.2470 c2        1 5HE     -0.159200
      5 C5         -4.3810   -1.1360   -0.0670 c3        1 5HE     -0.051000
      6 C6         -4.9680   -0.4180    1.0870 c2        1 5HE     -0.176200
      7 C7         -4.5430    0.7790    1.5080 c2        1 5HE     -0.164200
      8 C8         -3.4220    1.5210    0.8860 c3        1 5HE     -0.055000
      9 C9         -3.3370    2.9270    1.3490 c2        1 5HE     -0.165200
     10 C10        -2.2050    3.6390    1.4050 c2        1 5HE     -0.174200
     11 C11        -0.8750    3.0900    1.0560 c3        1 5HE     -0.053000
     12 C13         0.1790    4.1170    0.9030 c2        1 5HE     -0.122200
     13 C14         1.4450    3.8480    0.5460 ce        1 5HE     -0.176000
     14 C16         1.9380    2.5140    0.2670 ce        1 5HE     -0.113000
     15 C17         3.1680    2.2800   -0.2070 c2        1 5HE     -0.240200
     16 C18         3.7270    0.9230   -0.4860 c3        1 5HE      0.176300
     17 C19         2.6740   -0.1300   -0.8270 c3        1 5HE     -0.106400
     18 C20         2.2160   -0.8890    0.4000 c3        1 5HE     -0.061400
     19 C21         0.9480   -1.6660    0.1330 c3        1 5HE     -0.188400
     20 C22        -0.2930   -0.7700    0.0820 c         1 5HE      0.909600
     21 O23        -1.2190   -1.0720   -0.7270 o         1 5HE     -0.862800
     22 O24        -0.3720    0.2330    0.8560 o         1 5HE     -0.862800
     23 O3          4.6990    1.0070   -1.5300 oh        1 5HE     -0.619800
     24 H1C1       -2.6220   -4.9830   -2.3920 hc        1 5HE      0.018700
     25 H1C2       -3.9070   -4.5930   -3.6060 hc        1 5HE      0.018700
     26 H1C3       -2.2540   -3.8670   -3.7690 hc        1 5HE      0.018700
     27 H2C1       -2.5590   -2.5550   -1.6730 hc        1 5HE      0.083200
     28 H2C2       -3.8510   -2.1770   -2.8730 hc        1 5HE      0.083200
     29 H3         -4.9270   -4.3520   -1.2880 ha        1 5HE      0.095000
     30 H4         -5.6860   -2.8310    0.4690 ha        1 5HE      0.096000
     31 H5C1       -3.2480   -1.1730    0.0370 hc        1 5HE      0.098700
     32 H5C2       -4.5660   -0.5410   -1.0080 hc        1 5HE      0.098700
     33 H6         -5.7940   -0.9240    1.6130 ha        1 5HE      0.095000
     34 H7         -5.0180    1.2580    2.3800 ha        1 5HE      0.097000
     35 H8C1       -2.4470    0.9650    1.0780 hc        1 5HE      0.103700
     36 H8C2       -3.5420    1.5180   -0.2360 hc        1 5HE      0.103700
     37 H9         -4.2930    3.3910    1.6450 ha        1 5HE      0.093000
     38 H10        -2.2300    4.6880    1.7410 ha        1 5HE      0.093000
     39 H111       -0.5660    2.3400    1.8460 hc        1 5HE      0.109200
     40 H112       -0.9480    2.4690    0.1140 hc        1 5HE      0.109200
     41 H13        -0.1210    5.1600    1.0970 ha        1 5HE      0.098000
     42 H14         2.1740    4.6710    0.4470 ha        1 5HE      0.098000
     43 H16         1.2240    1.6800    0.4650 ha        1 5HE      0.200000
     44 H17         3.8750    3.1020   -0.4110 ha        1 5HE      0.107000
     45 H18         4.3360    0.5840    0.4040 h1        1 5HE      0.065700
     46 H191        1.7870    0.3580   -1.3110 hc        1 5HE      0.051200
     47 H192        3.1110   -0.8480   -1.5710 hc        1 5HE      0.051200
     48 HA          4.2270    1.2680   -2.3280 ho        1 5HE      0.392000
     49 H201        3.0320   -1.5850    0.7300 hc        1 5HE      0.033200
     50 H202        2.0210   -0.1690    1.2410 hc        1 5HE      0.033200
     51 H211        1.0300   -2.2310   -0.8300 hc        1 5HE      0.029700
     52 H212        0.7870   -2.4090    0.9550 hc        1 5HE      0.029700
@<TRIPOS>BOND
     1    1    2 1   
     2    1   24 1   
     3    1   25 1   
     4    1   26 1   
     5    2    3 1   
     6    2   27 1   
     7    2   28 1   
     8    3    4 2   
     9    3   29 1   
    10    4    5 1   
    11    4   30 1   
    12    5    6 1   
    13    5   31 1   
    14    5   32 1   
    15    6    7 2   
    16    6   33 1   
    17    7    8 1   
    18    7   34 1   
    19    8    9 1   
    20    8   35 1   
    21    8   36 1   
    22    9   10 2   
    23    9   37 1   
    24   10   11 1   
    25   10   38 1   
    26   11   12 1   
    27   11   39 1   
    28   11   40 1   
    29   12   13 2   
    30   12   41 1   
    31   13   14 1   
    32   13   42 1   
    33   14   15 2   
    34   14   43 1   
    35   15   16 1   
    36   15   44 1   
    37   16   17 1   
    38   16   23 1   
    39   16   45 1   
    40   17   18 1   
    41   17   46 1   
    42   17   47 1   
    43   18   19 1   
    44   18   49 1   
    45   18   50 1   
    46   19   20 1   
    47   19   51 1   
    48   19   52 1   
    49   20   21 1   
    50   20   22 1   
    51   23   48 1   
@<TRIPOS>SUBSTRUCTURE
     1 5HE         1 TEMP              0 ****  ****    0 ROOT
