@<TRIPOS>MOLECULE
5HE
   52    51     1     0     0
SMALL
bcc


@<TRIPOS>ATOM
      1 C1          1.3290   -1.3640    4.0290 c3        1 5HE     -0.091100
      2 C2          2.2060   -1.7790    2.8750 c3        1 5HE     -0.052200
      3 C3          2.1420   -0.8280    1.7400 c2        1 5HE     -0.173200
      4 C4          2.8180   -0.9860    0.5970 c2        1 5HE     -0.173200
      5 C5          3.7140   -2.1370    0.3310 c3        1 5HE     -0.020000
      6 C6          4.3750   -2.0880   -0.9950 c2        1 5HE     -0.174200
      7 C7          5.2320   -3.0200   -1.4270 c2        1 5HE     -0.168200
      8 C8          5.6200   -4.2070   -0.6290 c3        1 5HE     -0.020000
      9 C9          6.5610   -5.1160   -1.3250 c2        1 5HE     -0.184200
     10 C10         7.1080   -6.1930   -0.7480 c2        1 5HE     -0.159200
     11 C11         6.8440   -6.5940    0.6550 c3        1 5HE     -0.020000
     12 C13         7.4500   -7.8950    1.0270 c2        1 5HE     -0.185200
     13 C14         7.4750   -8.3880    2.2730 ce        1 5HE     -0.127000
     14 C16         6.8970   -7.7300    3.4260 ce        1 5HE     -0.162000
     15 C17         7.1850   -7.9700    4.7110 c2        1 5HE     -0.159200
     16 C18         8.1810   -8.9160    5.2960 c3        1 5HE      0.163300
     17 C19         7.4960  -10.1540    5.8800 c3        1 5HE     -0.070400
     18 C20         6.7370   -9.8130    7.1440 c3        1 5HE     -0.068400
     19 C21         6.1130  -11.0350    7.7730 c3        1 5HE     -0.194400
     20 C22         5.4720  -10.6940    9.1320 c         1 5HE      0.908600
     21 O23         4.3990  -11.2890    9.4370 o         1 5HE     -0.851800
     22 O24         6.0500   -9.8540    9.8810 o         1 5HE     -0.851800
     23 O3          9.1550   -9.3860    4.3690 oh        1 5HE     -0.607800
     24 H1C1        1.4080   -2.1070    4.8590 hc        1 5HE      0.034700
     25 H1C2        0.2600   -1.3030    3.7110 hc        1 5HE      0.034700
     26 H1C3        1.6370   -0.3640    4.4200 hc        1 5HE      0.034700
     27 H2C1        3.2720   -1.8670    3.2250 hc        1 5HE      0.049700
     28 H2C2        1.9010   -2.8020    2.5200 hc        1 5HE      0.049700
     29 H3          1.4890    0.0480    1.8830 ha        1 5HE      0.119000
     30 H4          2.7270   -0.2400   -0.2090 ha        1 5HE      0.118000
     31 H5C1        3.1220   -3.0940    0.4150 hc        1 5HE      0.058700
     32 H5C2        4.5020   -2.1880    1.1370 hc        1 5HE      0.058700
     33 H6          4.1270   -1.2250   -1.6340 ha        1 5HE      0.119000
     34 H7          5.6930   -2.9290   -2.4240 ha        1 5HE      0.120000
     35 H8C1        6.0810   -3.8650    0.3430 hc        1 5HE      0.058200
     36 H8C2        4.6920   -4.7840   -0.3460 hc        1 5HE      0.058200
     37 H9          6.7990   -4.8660   -2.3710 ha        1 5HE      0.118000
     38 H10         7.8000   -6.8350   -1.3180 ha        1 5HE      0.121000
     39 H111        7.2280   -5.7860    1.3420 hc        1 5HE      0.056700
     40 H112        5.7290   -6.6460    0.8220 hc        1 5HE      0.056700
     41 H13         7.8940   -8.4750    0.2020 ha        1 5HE      0.117000
     42 H14         7.9390   -9.3740    2.4650 ha        1 5HE      0.149000
     43 H16         6.1280   -6.9710    3.1910 ha        1 5HE      0.112000
     44 H17         6.6220   -7.4270    5.4940 ha        1 5HE      0.137000
     45 H18         8.7260   -8.3710    6.1260 h1        1 5HE      0.042700
     46 H191        6.8060  -10.5920    5.1150 hc        1 5HE      0.046200
     47 H192        8.2860  -10.9190    6.0990 hc        1 5HE      0.046200
     48 HA          9.5360   -8.6060    3.9500 ho        1 5HE      0.391000
     49 H201        7.4220   -9.3360    7.8960 hc        1 5HE      0.045200
     50 H202        5.9330   -9.0670    6.9120 hc        1 5HE      0.045200
     51 H211        5.3360  -11.4710    7.0970 hc        1 5HE      0.021700
     52 H212        6.8930  -11.8180    7.9500 hc        1 5HE      0.021700
@<TRIPOS>BOND
     1    1    2 1   
     2    1   24 1   
     3    1   25 1   
     4    1   26 1   
     5    2    3 1   
     6    2   27 1   
     7    2   28 1   
     8    3    4 2   
     9    3   29 1   
    10    4    5 1   
    11    4   30 1   
    12    5    6 1   
    13    5   31 1   
    14    5   32 1   
    15    6    7 2   
    16    6   33 1   
    17    7    8 1   
    18    7   34 1   
    19    8    9 1   
    20    8   35 1   
    21    8   36 1   
    22    9   10 2   
    23    9   37 1   
    24   10   11 1   
    25   10   38 1   
    26   11   12 1   
    27   11   39 1   
    28   11   40 1   
    29   12   13 2   
    30   12   41 1   
    31   13   14 1   
    32   13   42 1   
    33   14   15 2   
    34   14   43 1   
    35   15   16 1   
    36   15   44 1   
    37   16   17 1   
    38   16   23 1   
    39   16   45 1   
    40   17   18 1   
    41   17   46 1   
    42   17   47 1   
    43   18   19 1   
    44   18   49 1   
    45   18   50 1   
    46   19   20 1   
    47   19   51 1   
    48   19   52 1   
    49   20   21 1   
    50   20   22 1   
    51   23   48 1   
@<TRIPOS>SUBSTRUCTURE
     1 5HE         1 TEMP              0 ****  ****    0 ROOT
