@<TRIPOS>MOLECULE
5HE
   52    46     1     0     0
SMALL
bcc


@<TRIPOS>ATOM
      1 C1         -3.1550   10.2360    1.1520 c3        1 5HE     -0.208000
      2 C2         -2.8240    8.7820    0.9070 c3        1 5HE     -0.133000
      3 C3         -2.3360    8.6090   -0.5140 c2        1 5HE     -0.175000
      4 C4         -1.9980    7.3860   -0.9660 c1        1 5HE     -0.162000
      5 C5         -2.1070    6.1850   -0.0510 c2        1 5HE     -0.104333
      6 C6         -2.1650    4.9220   -0.8820 c2        1 5HE     -0.173000
      7 C7         -1.7650    3.7500   -0.3540 c1        1 5HE     -0.144667
      8 C8         -1.8230    2.4870   -1.1850 c2        1 5HE     -0.104333
      9 C9         -1.1250    1.3660   -0.4480 c2        1 5HE     -0.173000
     10 C10        -1.0830    0.1320   -0.9840 c1        1 5HE     -0.144667
     11 C11        -0.3860   -0.9890   -0.2470 c2        1 5HE     -0.104333
     12 C13        -0.6170   -2.2930   -0.9770 c2        1 5HE     -0.173000
     13 C14         0.1640   -3.3600   -0.7150 c1        1 5HE     -0.144667
     14 C16        -0.0670   -4.6660   -1.4460 c1        1 5HE     -0.157500
     15 C17         0.7610   -5.7120   -1.2390 c1        1 5HE     -0.157500
     16 C18         1.9210   -5.5790   -0.2770 c2        1 5HE      0.046000
     17 C19         2.3530   -6.9520    0.1840 c3        1 5HE     -0.151000
     18 C20         3.5920   -6.8280    1.0440 c3        1 5HE     -0.147000
     19 C21         3.9750   -8.1930    1.5760 c3        1 5HE     -0.223000
     20 C22         5.1540   -8.0550    2.5150 c2        1 5HE      0.328000
     21 O23         6.3280   -8.1300    2.0660 o         1 5HE     -0.587000
     22 O24         4.9620   -7.8300    3.7380 o         1 5HE     -0.587000
     23 O3          2.9960   -4.9420   -0.9240 oh        1 5HE     -0.318000
     24 H1C1       -3.4500   10.3510    2.0790 hc        1 5HE      0.072000
     25 H1C2       -2.3590   10.7840    0.9920 hc        1 5HE      0.072000
     26 H1C3       -3.8710   10.5150    0.5440 hc        1 5HE      0.072000
     27 H2C1       -3.6240    8.2370    1.0450 hc        1 5HE      0.086500
     28 H2C2       -2.1250    8.4970    1.5280 hc        1 5HE      0.086500
     29 H3         -2.2660    9.3840   -1.1040 ha        1 5HE      0.120000
     30 H4         -1.6830    7.2740   -1.8830 ha        1 5HE      0.123000
     31 H5C1       -2.9200    6.2580    0.4880 ha        1 5HE      0.092833
     32 H5C2       -1.3260    6.1520    0.5380 ha        1 5HE      0.092833
     33 H6         -2.4830    4.9590   -1.8040 ha        1 5HE      0.120667
     34 H7         -1.4280    3.7160    0.5620 ha        1 5HE      0.125667
     35 H8C1       -2.7570    2.2420   -1.3420 ha        1 5HE      0.092833
     36 H8C2       -1.3770    2.6400   -2.0420 ha        1 5HE      0.092833
     37 H9         -0.7130    1.5350    0.4210 ha        1 5HE      0.120667
     38 H10        -1.4670   -0.0300   -1.8660 ha        1 5HE      0.125667
     39 H111       -0.7450   -1.0550    0.6610 ha        1 5HE      0.092833
     40 H112        0.5740   -0.8040   -0.2050 ha        1 5HE      0.092833
     41 H13        -1.3190   -2.3570   -1.6520 ha        1 5HE      0.120667
     42 H14         0.8990   -3.2820   -0.0760 ha        1 5HE      0.125667
     43 H16        -0.8160   -4.7520   -2.0680 ha        1 5HE      0.121000
     44 H17         0.6120   -6.5550   -1.7110 ha        1 5HE      0.121000
     45 H18         1.6440   -5.0480    0.4950 h4        1 5HE      0.086000
     46 H191        2.5500   -7.5110   -0.5950 hc        1 5HE      0.081000
     47 H192        1.6330   -7.3620    0.7050 hc        1 5HE      0.081000
     48 HA          2.8930   -4.0610   -0.8710 ho        1 5HE      0.184000
     49 H201        4.3260   -6.4700    0.5070 hc        1 5HE      0.089500
     50 H202        3.4110   -6.2260    1.7920 hc        1 5HE      0.089500
     51 H211        3.2170   -8.5790    2.0590 hc        1 5HE      0.059000
     52 H212        4.2180   -8.7780    0.8300 hc        1 5HE      0.059000
@<TRIPOS>BOND
     1    1    2 1   
     2    1   24 1   
     3    1   25 1   
     4    1   26 1   
     5    2    3 1   
     6    2   27 1   
     7    2   28 1   
     8    3    4 1   
     9    3   29 1   
    10    4   30 1   
    11    5    6 1   
    12    5   31 1   
    13    5   32 1   
    14    6    7 1   
    15    6   33 1   
    16    7   34 1   
    17    8    9 1   
    18    8   35 1   
    19    8   36 1   
    20    9   10 1   
    21    9   37 1   
    22   10   38 1   
    23   11   12 1   
    24   11   39 1   
    25   11   40 1   
    26   12   13 1   
    27   12   41 1   
    28   13   42 1   
    29   14   15 1   
    30   14   43 1   
    31   15   44 1   
    32   16   17 1   
    33   16   23 1   
    34   16   45 1   
    35   17   18 1   
    36   17   46 1   
    37   17   47 1   
    38   18   19 1   
    39   18   49 1   
    40   18   50 1   
    41   19   20 1   
    42   19   51 1   
    43   19   52 1   
    44   20   21 1   
    45   20   22 1   
    46   23   48 1   
@<TRIPOS>SUBSTRUCTURE
     1 5HE         1 TEMP              0 ****  ****    0 ROOT
