@<TRIPOS>MOLECULE
5HE
   52    51     1     0     0
SMALL
bcc


@<TRIPOS>ATOM
      1 C1          1.3490   -1.6650    4.3370 c3        1 5HE     -0.091100
      2 C2          2.2790   -1.9070    3.1750 c3        1 5HE     -0.052200
      3 C3          1.9990   -1.0140    2.0260 c2        1 5HE     -0.172200
      4 C4          2.6830   -1.0420    0.8760 c2        1 5HE     -0.174200
      5 C5          3.8050   -1.9760    0.6170 c3        1 5HE     -0.020000
      6 C6          4.4260   -1.8100   -0.7180 c2        1 5HE     -0.175200
      7 C7          5.3950   -2.6060   -1.1850 c2        1 5HE     -0.168200
      8 C8          5.9510   -3.7510   -0.4260 c3        1 5HE     -0.020000
      9 C9          7.1040   -4.4060   -1.0890 c2        1 5HE     -0.185200
     10 C10         7.6560   -5.5440   -0.6540 c2        1 5HE     -0.158200
     11 C11         7.1690   -6.2950    0.5290 c3        1 5HE     -0.019000
     12 C13         8.0880   -7.3710    0.9700 c2        1 5HE     -0.189200
     13 C14         7.8460   -8.2030    1.9930 ce        1 5HE     -0.112000
     14 C16         6.6520   -8.1820    2.8110 ce        1 5HE     -0.148000
     15 C17         6.4480   -8.9330    3.9010 c2        1 5HE     -0.122200
     16 C18         7.4190   -9.8950    4.5090 c3        1 5HE      0.163300
     17 C19         6.7990  -10.6740    5.6670 c3        1 5HE     -0.110400
     18 C20         6.6310   -9.8150    6.9020 c3        1 5HE     -0.066400
     19 C21         5.9810  -10.5780    8.0290 c3        1 5HE     -0.197400
     20 C22         6.0310   -9.7760    9.3430 c         1 5HE      0.908600
     21 O23         4.9760   -9.7200   10.0370 o         1 5HE     -0.849300
     22 O24         7.1240   -9.2290    9.6700 o         1 5HE     -0.849300
     23 O3          7.8760  -10.7790    3.4810 oh        1 5HE     -0.617800
     24 H1C1        1.4420   -0.6150    4.7060 hc        1 5HE      0.034700
     25 H1C2        1.5960   -2.3580    5.1770 hc        1 5HE      0.034700
     26 H1C3        0.2870   -1.8390    4.0360 hc        1 5HE      0.034700
     27 H2C1        2.1940   -2.9780    2.8410 hc        1 5HE      0.050700
     28 H2C2        3.3440   -1.7600    3.5080 hc        1 5HE      0.050700
     29 H3          1.1720   -0.2980    2.1620 ha        1 5HE      0.119000
     30 H4          2.4240   -0.3500    0.0590 ha        1 5HE      0.118000
     31 H5C1        4.5950   -1.8360    1.4120 hc        1 5HE      0.059200
     32 H5C2        3.4370   -3.0370    0.7290 hc        1 5HE      0.059200
     33 H6          4.0500   -0.9760   -1.3330 ha        1 5HE      0.118000
     34 H7          5.8200   -2.4320   -2.1870 ha        1 5HE      0.119000
     35 H8C1        5.1340   -4.5110   -0.2560 hc        1 5HE      0.058700
     36 H8C2        6.2670   -3.4000    0.6000 hc        1 5HE      0.058700
     37 H9          7.5070   -3.8980   -1.9790 ha        1 5HE      0.117000
     38 H10         8.5180   -5.9790   -1.1860 ha        1 5HE      0.120000
     39 H111        7.0000   -5.5770    1.3820 hc        1 5HE      0.056700
     40 H112        6.1610   -6.7370    0.2840 hc        1 5HE      0.056700
     41 H13         9.0300   -7.4640    0.4040 ha        1 5HE      0.115000
     42 H14         8.5870   -8.9820    2.2560 ha        1 5HE      0.144000
     43 H16         5.8620   -7.4790    2.4900 ha        1 5HE      0.110000
     44 H17         5.5010   -8.8380    4.4610 ha        1 5HE      0.136000
     45 H18         8.3140   -9.3160    4.8890 h1        1 5HE      0.046700
     46 H191        5.8090  -11.0910    5.3490 hc        1 5HE      0.036200
     47 H192        7.4620  -11.5460    5.9140 hc        1 5HE      0.036200
     48 HA          8.2900  -11.5280    3.9240 ho        1 5HE      0.397000
     49 H201        6.0100   -8.9140    6.6540 hc        1 5HE      0.048200
     50 H202        7.6300   -9.4400    7.2520 hc        1 5HE      0.048200
     51 H211        6.5200  -11.5450    8.1990 hc        1 5HE      0.020200
     52 H212        4.9170  -10.8160    7.7790 hc        1 5HE      0.020200
@<TRIPOS>BOND
     1    1    2 1   
     2    1   24 1   
     3    1   25 1   
     4    1   26 1   
     5    2    3 1   
     6    2   27 1   
     7    2   28 1   
     8    3    4 2   
     9    3   29 1   
    10    4    5 1   
    11    4   30 1   
    12    5    6 1   
    13    5   31 1   
    14    5   32 1   
    15    6    7 2   
    16    6   33 1   
    17    7    8 1   
    18    7   34 1   
    19    8    9 1   
    20    8   35 1   
    21    8   36 1   
    22    9   10 2   
    23    9   37 1   
    24   10   11 1   
    25   10   38 1   
    26   11   12 1   
    27   11   39 1   
    28   11   40 1   
    29   12   13 2   
    30   12   41 1   
    31   13   14 1   
    32   13   42 1   
    33   14   15 2   
    34   14   43 1   
    35   15   16 1   
    36   15   44 1   
    37   16   17 1   
    38   16   23 1   
    39   16   45 1   
    40   17   18 1   
    41   17   46 1   
    42   17   47 1   
    43   18   19 1   
    44   18   49 1   
    45   18   50 1   
    46   19   20 1   
    47   19   51 1   
    48   19   52 1   
    49   20   21 1   
    50   20   22 1   
    51   23   48 1   
@<TRIPOS>SUBSTRUCTURE
     1 5HE         1 TEMP              0 ****  ****    0 ROOT
