@<TRIPOS>MOLECULE
5HG
   28    29     1     0     0
SMALL
bcc


@<TRIPOS>ATOM
      1 O36         0.5610   -0.6500    1.2990 o         1 5HG     -0.868000
      2 P30         0.3210   -0.8500   -0.1500 p5        1 5HG      1.339600
      3 O32        -1.0110   -0.6560   -0.7710 o         1 5HG     -0.868000
      4 O34         0.7250   -2.4000   -0.5070 oh        1 5HG     -0.780400
      5 C28         1.5110    0.0610   -1.0100 c3        1 5HG     -0.108800
      6 O26         1.8420   -0.7230   -2.1390 os        1 5HG     -0.407600
      7 C24         2.9550   -0.2550   -2.8890 c3        1 5HG      0.110400
      8 C22         2.5450    0.9030   -3.8160 c3        1 5HG      0.036300
      9 N17         3.5810    1.3790   -4.6760 nh        1 5HG     -0.249200
     10 C15         4.2880    2.6120   -4.5410 c1        1 5HG      0.070400
     11 N13         5.2110    2.7540   -5.5200 ne        1 5HG     -0.686800
     12 C2          5.1360    1.6170   -6.3220 ca        1 5HG     -0.126200
     13 C3          4.0930    0.7040   -5.7950 ca        1 5HG      0.366800
     14 N4          3.8070   -0.4960   -6.3620 nb        1 5HG     -0.719000
     15 C5          4.5780   -0.7740   -7.4450 ca        1 5HG      0.573900
     16 N6          5.5610   -0.0440   -8.0290 nb        1 5HG     -0.783000
     17 C1          5.8370    1.1820   -7.4760 ca        1 5HG      0.569200
     18 N20         6.7840    2.0420   -8.0950 nv        1 5HG     -0.897500
     19 H281        1.1160    1.0540   -1.3360 h1        1 5HG      0.041200
     20 H282        2.4150    0.2450   -0.3790 h1        1 5HG      0.041200
     21 H241        3.7870    0.0580   -2.2070 h1        1 5HG      0.042200
     22 H242        3.2710   -1.1490   -3.4910 h1        1 5HG      0.042200
     23 H221        1.6680    0.5540   -4.4340 h1        1 5HG      0.053700
     24 H222        2.2090    1.7700   -3.1790 h1        1 5HG      0.053700
     25 H15         0.5810   -2.6020   -1.4240 ho        1 5HG      0.420000
     26 H5          4.3770   -1.7520   -7.9250 h5        1 5HG      0.006100
     27 H201        7.5680    1.5440   -8.4640 hn        1 5HG      0.363800
     28 H202        7.0830    2.7480   -7.4520 hn        1 5HG      0.363800
@<TRIPOS>BOND
     1    1    2 1   
     2    2    3 1   
     3    2    4 1   
     4    2    5 1   
     5    4   25 1   
     6    5    6 1   
     7    5   19 1   
     8    5   20 1   
     9    6    7 1   
    10    7    8 1   
    11    7   21 1   
    12    7   22 1   
    13    8    9 1   
    14    8   23 1   
    15    8   24 1   
    16    9   10 2   
    17    9   13 1   
    18   10   11 2   
    19   11   12 1   
    20   12   13 ar  
    21   12   17 ar  
    22   13   14 ar  
    23   14   15 ar  
    24   15   16 ar  
    25   15   26 1   
    26   16   17 ar  
    27   17   18 1   
    28   18   27 1   
    29   18   28 1   
@<TRIPOS>SUBSTRUCTURE
     1 5HG         1 TEMP              0 ****  ****    0 ROOT
