@<TRIPOS>MOLECULE
5HG
   28    24     1     0     0
SMALL
bcc


@<TRIPOS>ATOM
      1 O36        -1.8050    5.4710    0.9150 o         1 5HG     -0.869000
      2 P30        -0.3870    5.4790    0.4770 p4        1 5HG      1.623000
      3 O32         0.5320    5.5470    1.7120 os        1 5HG     -0.813000
      4 O34        -0.1310    6.7050   -0.4220 o         1 5HG     -0.917800
      5 C28        -0.0410    3.9740   -0.4460 c3        1 5HG     -0.106800
      6 O26        -0.3090    2.8340    0.3820 os        1 5HG     -0.410600
      7 C24        -0.0770    1.5630   -0.2740 c3        1 5HG      0.112400
      8 C22         0.1620    0.5010    0.7590 c3        1 5HG      0.036300
      9 N17        -0.3370   -0.7570    0.2750 n3        1 5HG     -0.131400
     10 C15        -1.4160   -1.2360    0.9400 c1        1 5HG      0.069400
     11 N13        -1.3990   -2.5960    0.8420 ne        1 5HG     -0.600400
     12 C2         -0.3080   -2.9540    0.1160 cg        1 5HG     -0.084000
     13 C3          0.3510   -1.8200   -0.2370 c1        1 5HG      0.247500
     14 N4          1.4900   -1.9000   -1.0160 n1        1 5HG     -0.518800
     15 C5          1.9540   -3.1230   -1.4320 c1        1 5HG      0.295300
     16 N6          1.2900   -4.2680   -1.0760 n1        1 5HG     -0.582800
     17 C1          0.1660   -4.1940   -0.3080 c1        1 5HG      0.104800
     18 N20        -0.3380   -5.5200    0.0670 n3        1 5HG     -0.760400
     19 H281        0.8770    3.9660   -0.7130 h1        1 5HG      0.040700
     20 H282       -0.5950    3.9420   -1.2190 h1        1 5HG      0.040700
     21 H241       -0.8510    1.3270   -0.8040 h1        1 5HG      0.043200
     22 H242        0.7070    1.6350   -0.8550 h1        1 5HG      0.043200
     23 H221       -0.2890    0.7320    1.5610 h1        1 5HG      0.052200
     24 H222        1.1190    0.4250    0.9330 h1        1 5HG      0.052200
     25 H15        -2.1220   -0.6820    1.4090 DU        1 5HG      0.220000
     26 H5          2.7610   -3.1770   -1.9830 ha        1 5HG      0.086500
     27 H201        0.1500   -6.2740   -0.1420 hn        1 5HG      0.363800
     28 H202       -1.1520   -5.5990    0.5380 hn        1 5HG      0.363800
@<TRIPOS>BOND
     1    1    2 1   
     2    2    4 2   
     3    2    5 1   
     4    5    6 1   
     5    5   19 1   
     6    5   20 1   
     7    6    7 1   
     8    7    8 1   
     9    7   21 1   
    10    7   22 1   
    11    8    9 1   
    12    8   23 1   
    13    8   24 1   
    14    9   10 2   
    15    9   13 1   
    16   10   11 2   
    17   11   12 1   
    18   12   17 3   
    19   13   14 3   
    20   15   16 3   
    21   15   26 1   
    22   17   18 1   
    23   18   27 1   
    24   18   28 1   
@<TRIPOS>SUBSTRUCTURE
     1 5HG         1 TEMP              0 ****  ****    0 ROOT
