@<TRIPOS>MOLECULE
5HG
   28    29     1     0     0
SMALL
bcc


@<TRIPOS>ATOM
      1 O36         0.4000   -0.6090    1.2230 o         1 5HG     -0.868000
      2 P30         0.2780   -0.9540   -0.2140 p5        1 5HG      1.339600
      3 O32        -1.0290   -1.0020   -0.9130 o         1 5HG     -0.868000
      4 O34         0.9140   -2.4530   -0.4170 oh        1 5HG     -0.780400
      5 C28         1.3790    0.0480   -1.0900 c3        1 5HG     -0.108800
      6 O26         1.8840   -0.7650   -2.1300 os        1 5HG     -0.407600
      7 C24         2.9640   -0.2020   -2.8630 c3        1 5HG      0.110400
      8 C22         2.4540    0.8090   -3.9050 c3        1 5HG      0.036300
      9 N17         3.4630    1.3600   -4.7500 nh        1 5HG     -0.249200
     10 C15         3.9820    2.6890   -4.6870 c1        1 5HG      0.070400
     11 N13         4.9340    2.8850   -5.6290 ne        1 5HG     -0.686800
     12 C2          5.0670    1.6910   -6.3330 ca        1 5HG     -0.126200
     13 C3          4.1310    0.6810   -5.7800 ca        1 5HG      0.366800
     14 N4          4.0510   -0.5880   -6.2550 nb        1 5HG     -0.719000
     15 C5          4.9170   -0.8370   -7.2720 ca        1 5HG      0.573900
     16 N6          5.8220   -0.0210   -7.8680 nb        1 5HG     -0.783000
     17 C1          5.8900    1.2720   -7.4100 ca        1 5HG      0.569200
     18 N20         6.7440    2.2080   -8.0530 nh        1 5HG     -0.897500
     19 H281        0.8700    0.9460   -1.5180 h1        1 5HG      0.041200
     20 H282        2.2090    0.4090   -0.4340 h1        1 5HG      0.041200
     21 H241        3.4370   -1.0860   -3.3690 h1        1 5HG      0.042200
     22 H242        3.7020    0.2790   -2.1700 h1        1 5HG      0.042200
     23 H221        1.6730    0.2900   -4.5320 h1        1 5HG      0.053700
     24 H222        1.9620    1.6650   -3.3620 h1        1 5HG      0.053700
     25 H15         0.8550   -2.7450   -1.3180 ho        1 5HG      0.420000
     26 H5          4.8830   -1.8670   -7.6750 h5        1 5HG      0.006100
     27 H201        7.6110    1.8000   -8.3390 hn        1 5HG      0.363800
     28 H202        6.9020    2.9980   -7.4590 hn        1 5HG      0.363800
@<TRIPOS>BOND
     1    1    2 1   
     2    2    3 1   
     3    2    4 1   
     4    2    5 1   
     5    4   25 1   
     6    5    6 1   
     7    5   19 1   
     8    5   20 1   
     9    6    7 1   
    10    7    8 1   
    11    7   21 1   
    12    7   22 1   
    13    8    9 1   
    14    8   23 1   
    15    8   24 1   
    16    9   10 2   
    17    9   13 1   
    18   10   11 2   
    19   11   12 1   
    20   12   13 ar  
    21   12   17 ar  
    22   13   14 ar  
    23   14   15 ar  
    24   15   16 ar  
    25   15   26 1   
    26   16   17 ar  
    27   17   18 1   
    28   18   27 1   
    29   18   28 1   
@<TRIPOS>SUBSTRUCTURE
     1 5HG         1 TEMP              0 ****  ****    0 ROOT
