@<TRIPOS>MOLECULE
5HG
   28    29     1     0     0
SMALL
bcc


@<TRIPOS>ATOM
      1 O36        -4.5820    1.6190    1.5550 o         1 5HG     -0.868000
      2 P30        -4.5240    0.5770    0.5020 p5        1 5HG      1.339600
      3 O32        -5.5970    0.4150   -0.5090 o         1 5HG     -0.868000
      4 O34        -4.3800   -0.8410    1.3120 oh        1 5HG     -0.779400
      5 C28        -3.0260    0.6860   -0.3500 c3        1 5HG     -0.101800
      6 O26        -2.0600    0.0630    0.4730 os        1 5HG     -0.409600
      7 C24        -0.7590    0.0530   -0.1150 c3        1 5HG      0.109400
      8 C22         0.1740   -0.6050    0.9170 c3        1 5HG      0.064300
      9 N17         1.5140   -0.8060    0.4710 nh        1 5HG     -0.252200
     10 C15         2.1060   -2.0600    0.1250 c1        1 5HG      0.071400
     11 N13         3.3950   -1.9010   -0.2520 ne        1 5HG     -0.686800
     12 C2          3.6840   -0.5410   -0.1670 ca        1 5HG     -0.126200
     13 C3          2.4810    0.1960    0.2930 ca        1 5HG      0.367800
     14 N4          2.4570    1.5430    0.4550 nb        1 5HG     -0.718000
     15 C5          3.6360    2.1420    0.1420 ca        1 5HG      0.574900
     16 N6          4.8010    1.6020   -0.2920 nb        1 5HG     -0.783000
     17 C1          4.8410    0.2360   -0.4330 ca        1 5HG      0.570200
     18 N20         6.0580   -0.4060   -0.7870 nh        1 5HG     -0.897500
     19 H281       -2.7430    1.7520   -0.5350 h1        1 5HG      0.036200
     20 H282       -3.0800    0.1720   -1.3410 h1        1 5HG      0.036200
     21 H241       -0.4350    1.1030   -0.3380 h1        1 5HG      0.027200
     22 H242       -0.7880   -0.5350   -1.0700 h1        1 5HG      0.027200
     23 H221       -0.2510   -1.6140    1.1840 h1        1 5HG      0.054200
     24 H222        0.1730    0.0410    1.8410 h1        1 5HG      0.054200
     25 H15        -3.6930   -0.8110    1.9660 ho        1 5HG      0.422000
     26 H5          3.6460    3.2430    0.2530 h5        1 5HG      0.007100
     27 H201        6.5860    0.1180   -1.4540 hn        1 5HG      0.363800
     28 H202        5.8760   -1.3310   -1.1240 hn        1 5HG      0.363800
@<TRIPOS>BOND
     1    1    2 1   
     2    2    3 1   
     3    2    4 1   
     4    2    5 1   
     5    4   25 1   
     6    5    6 1   
     7    5   19 1   
     8    5   20 1   
     9    6    7 1   
    10    7    8 1   
    11    7   21 1   
    12    7   22 1   
    13    8    9 1   
    14    8   23 1   
    15    8   24 1   
    16    9   10 2   
    17    9   13 1   
    18   10   11 2   
    19   11   12 1   
    20   12   13 ar  
    21   12   17 ar  
    22   13   14 ar  
    23   14   15 ar  
    24   15   16 ar  
    25   15   26 1   
    26   16   17 ar  
    27   17   18 1   
    28   18   27 1   
    29   18   28 1   
@<TRIPOS>SUBSTRUCTURE
     1 5HG         1 TEMP              0 ****  ****    0 ROOT
