@<TRIPOS>MOLECULE
5HG
   28    29     1     0     0
SMALL
bcc


@<TRIPOS>ATOM
      1 O36         0.3730   -0.5060    1.2240 o         1 5HG     -0.868000
      2 P30         0.1790   -0.7330   -0.2280 p5        1 5HG      1.339600
      3 O32        -1.1300   -0.5360   -0.8960 o         1 5HG     -0.868000
      4 O34         0.5760   -2.2950   -0.5390 oh        1 5HG     -0.780400
      5 C28         1.4080    0.1460   -1.0660 c3        1 5HG     -0.108800
      6 O26         1.7660   -0.6650   -2.1680 os        1 5HG     -0.407600
      7 C24         2.9090   -0.2260   -2.8900 c3        1 5HG      0.110400
      8 C22         2.5450    0.9180   -3.8530 c3        1 5HG      0.036300
      9 N17         3.6140    1.3630   -4.6870 nh        1 5HG     -0.249200
     10 C15         4.3330    2.5900   -4.5530 c1        1 5HG      0.070400
     11 N13         5.2890    2.7000   -5.5040 ne        1 5HG     -0.686800
     12 C2          5.2250    1.5490   -6.2860 ca        1 5HG     -0.126200
     13 C3          4.1530    0.6600   -5.7750 ca        1 5HG      0.366800
     14 N4          3.8700   -0.5470   -6.3280 nb        1 5HG     -0.719000
     15 C5          4.6710   -0.8570   -7.3800 ca        1 5HG      0.573900
     16 N6          5.6820   -0.1520   -7.9450 nb        1 5HG     -0.783000
     17 C1          5.9570    1.0820   -7.4080 ca        1 5HG      0.569200
     18 N20         6.9350    1.9170   -8.0120 nh        1 5HG     -0.897500
     19 H281        1.0360    1.1360   -1.4250 h1        1 5HG      0.041200
     20 H282        2.2930    0.3330   -0.4090 h1        1 5HG      0.041200
     21 H241        3.7220    0.0910   -2.1870 h1        1 5HG      0.042200
     22 H242        3.2330   -1.1360   -3.4630 h1        1 5HG      0.042200
     23 H221        1.6840    0.5670   -4.4920 h1        1 5HG      0.053700
     24 H222        2.1990    1.8010   -3.2450 h1        1 5HG      0.053700
     25 H15         0.4590   -2.5140   -1.4560 ho        1 5HG      0.420000
     26 H5          4.4730   -1.8410   -7.8470 h5        1 5HG      0.006100
     27 H201        7.7240    1.4010   -8.3450 hn        1 5HG      0.363800
     28 H202        7.2230    2.6320   -7.3730 hn        1 5HG      0.363800
@<TRIPOS>BOND
     1    1    2 1   
     2    2    3 1   
     3    2    4 1   
     4    2    5 1   
     5    4   25 1   
     6    5    6 1   
     7    5   19 1   
     8    5   20 1   
     9    6    7 1   
    10    7    8 1   
    11    7   21 1   
    12    7   22 1   
    13    8    9 1   
    14    8   23 1   
    15    8   24 1   
    16    9   10 2   
    17    9   13 1   
    18   10   11 2   
    19   11   12 1   
    20   12   13 ar  
    21   12   17 ar  
    22   13   14 ar  
    23   14   15 ar  
    24   15   16 ar  
    25   15   26 1   
    26   16   17 ar  
    27   17   18 1   
    28   18   27 1   
    29   18   28 1   
@<TRIPOS>SUBSTRUCTURE
     1 5HG         1 TEMP              0 ****  ****    0 ROOT
