@<TRIPOS>MOLECULE
5HI
   72    74     1     0     0
SMALL
bcc


@<TRIPOS>ATOM
      1 N1         -0.2220    0.0080    0.1290 na        1 5HI     -0.158900
      2 N3          1.6410   -0.0420    1.4590 nc        1 5HI     -0.688000
      3 C5          1.2070   -0.0770    0.1840 cd        1 5HI      0.534000
      4 C7         -1.0160   -0.1890   -1.0640 c3        1 5HI      0.009300
      5 C8         -1.4370   -1.6390   -1.3110 c3        1 5HI     -0.110400
      6 C10        -2.4810   -3.1850   -2.9850 c3        1 5HI     -0.124400
      7 C13        -3.0740   -0.6400    1.4570 c3        1 5HI     -0.098100
      8 C15         4.1050    0.8060   -2.0140 ca        1 5HI     -0.170500
      9 C17         2.8430   -2.1030    7.0670 ca        1 5HI     -0.115000
     10 C20         3.8900   -2.9130    7.5070 ca        1 5HI     -0.116000
     11 C21         1.8960   -0.9200   -2.0830 ca        1 5HI     -0.064000
     12 C24         2.7900   -0.9070   -3.1500 ca        1 5HI     -0.170500
     13 C26         4.4200   -0.7620    5.8090 ca        1 5HI     -0.115000
     14 O2         -0.3720    0.3290    4.5020 o         1 5HI     -0.493100
     15 N2          1.9230   -0.0690    4.2750 n4        1 5HI     -0.659800
     16 C1          1.9680   -0.1490    5.7760 c3        1 5HI      0.144800
     17 C14         2.0500    1.2650    6.4000 c3        1 5HI      0.116400
     18 O5          3.0790    2.0220    5.8060 oh        1 5HI     -0.602800
     19 C32         3.1060   -1.0220    6.2200 ca        1 5HI     -0.168300
     20 C23         5.4610   -1.5780    6.2450 ca        1 5HI     -0.116000
     21 C29         5.1970   -2.6540    7.0960 ca        1 5HI     -0.093000
     22 C2          0.4890    0.0880    2.2600 cc        1 5HI      0.114800
     23 C19        -0.6790    0.1400    1.4270 cd        1 5HI      0.000100
     24 C12        -2.5170    1.7940    1.4710 c3        1 5HI     -0.098100
     25 C27         2.0970   -0.0810   -0.9810 ca        1 5HI     -0.190500
     26 C30         3.9010   -0.0440   -3.1190 ca        1 5HI      0.159900
     27 F1          4.7750   -0.0270   -4.1500 f         1 5HI     -0.125900
     28 C18         3.2060    0.7820   -0.9570 ca        1 5HI     -0.064000
     29 C9         -1.9180   -1.7890   -2.7560 c3        1 5HI      0.158100
     30 O4         -0.7890   -1.5250   -3.5800 oh        1 5HI     -0.655800
     31 C11        -3.3610   -3.2340   -4.2350 c3        1 5HI      0.175100
     32 O3         -2.5140   -2.9630   -5.3430 oh        1 5HI     -0.684800
     33 C35        -4.0540   -4.5780   -4.3630 c3        1 5HI     -0.242400
     34 C36        -5.1120   -4.5320   -5.4840 c         1 5HI      0.912600
     35 O6         -6.2080   -5.1160   -5.2870 o         1 5HI     -0.835300
     36 O7         -4.8080   -3.9050   -6.5450 o         1 5HI     -0.835300
     37 H6         -2.0330    0.3860    3.0250 hc        1 5HI      0.088700
     38 H7         -1.9350    0.4590   -0.9850 h1        1 5HI      0.096700
     39 H7A        -0.4030    0.1690   -1.9460 h1        1 5HI      0.096700
     40 H8         -0.5860   -2.3460   -1.1360 hc        1 5HI      0.059200
     41 H8A        -2.2680   -1.9330   -0.6210 hc        1 5HI      0.059200
     42 H10        -1.6370   -3.9120   -3.0990 hc        1 5HI      0.053200
     43 H10A       -3.1020   -3.4920   -2.1060 hc        1 5HI      0.053200
     44 H13        -2.6620   -1.6700    1.5840 hc        1 5HI      0.054033
     45 H13A       -3.9950   -0.5490    2.0850 hc        1 5HI      0.054033
     46 H13B       -3.3730   -0.4950    0.3900 hc        1 5HI      0.054033
     47 H15         4.9720    1.4830   -2.0010 ha        1 5HI      0.165000
     48 H21         1.0230   -1.5960   -2.1410 ha        1 5HI      0.161000
     49 H24         2.6240   -1.5610   -4.0200 ha        1 5HI      0.165000
     50 HN2         2.5170    0.7180    3.9730 hn        1 5HI      0.471800
     51 H1          0.9870   -0.6060    6.1160 hx        1 5HI      0.124700
     52 H14         1.0990    1.8280    6.1830 h1        1 5HI      0.089200
     53 H14A        2.1840    1.1530    7.5060 h1        1 5HI      0.089200
     54 HO5         3.8930    1.8630    6.3020 ho        1 5HI      0.424000
     55 H23         6.4920   -1.3740    5.9180 ha        1 5HI      0.154000
     56 H29         6.0220   -3.2980    7.4400 ha        1 5HI      0.155000
     57 H12        -3.5220    2.0050    1.9130 hc        1 5HI      0.054033
     58 H12A       -1.7980    2.5680    1.8330 hc        1 5HI      0.054033
     59 H12B       -2.6010    1.8770    0.3610 hc        1 5HI      0.054033
     60 H18         3.3690    1.4500   -0.0970 ha        1 5HI      0.161000
     61 H9         -2.7080   -1.0140   -2.9750 h1        1 5HI      0.043700
     62 HO4        -1.0090   -1.8330   -4.4730 ho        1 5HI      0.461000
     63 H11        -4.1390   -2.4180   -4.1780 h1        1 5HI      0.031700
     64 HO3        -3.0290   -3.1760   -6.1470 ho        1 5HI      0.478000
     65 H35        -3.3080   -5.3690   -4.6200 hc        1 5HI      0.038700
     66 H35A       -4.5480   -4.8500   -3.3990 hc        1 5HI      0.038700
     67 C6         -2.0700    0.4050    1.8930 c3        1 5HI     -0.029400
     68 C3          0.5330    0.1440    3.6920 c         1 5HI      0.516600
     69 H17         1.8130   -2.3180    7.3940 ha        1 5HI      0.140000
     70 H20         3.6800   -3.7620    8.1770 ha        1 5HI      0.154000
     71 H22         2.3150   -0.9320    3.8780 hn        1 5HI      0.471800
     72 H26         4.6380    0.0880    5.1440 ha        1 5HI      0.140000
@<TRIPOS>BOND
     1    1    3 1   
     2    1    4 1   
     3    1   23 1   
     4    2    3 2   
     5    2   22 1   
     6    3   25 1   
     7    4    5 1   
     8    4   38 1   
     9    4   39 1   
    10    5   29 1   
    11    5   40 1   
    12    5   41 1   
    13    6   29 1   
    14    6   31 1   
    15    6   42 1   
    16    6   43 1   
    17    7   44 1   
    18    7   45 1   
    19    7   46 1   
    20    7   67 1   
    21    8   26 ar  
    22    8   28 ar  
    23    8   47 1   
    24    9   10 ar  
    25    9   19 ar  
    26    9   69 1   
    27   10   21 ar  
    28   10   70 1   
    29   11   12 ar  
    30   11   25 ar  
    31   11   48 1   
    32   12   26 ar  
    33   12   49 1   
    34   13   19 ar  
    35   13   20 ar  
    36   13   72 1   
    37   14   68 2   
    38   15   16 1   
    39   15   50 1   
    40   15   68 1   
    41   15   71 1   
    42   16   17 1   
    43   16   19 1   
    44   16   51 1   
    45   17   18 1   
    46   17   52 1   
    47   17   53 1   
    48   18   54 1   
    49   20   21 ar  
    50   20   55 1   
    51   21   56 1   
    52   22   23 2   
    53   22   68 1   
    54   23   67 1   
    55   24   57 1   
    56   24   58 1   
    57   24   59 1   
    58   24   67 1   
    59   25   28 ar  
    60   26   27 1   
    61   28   60 1   
    62   29   30 1   
    63   29   61 1   
    64   30   62 1   
    65   31   32 1   
    66   31   33 1   
    67   31   63 1   
    68   32   64 1   
    69   33   34 1   
    70   33   65 1   
    71   33   66 1   
    72   34   35 1   
    73   34   36 1   
    74   37   67 1   
@<TRIPOS>SUBSTRUCTURE
     1 5HI         1 TEMP              0 ****  ****    0 ROOT
