@<TRIPOS>MOLECULE
5HI
   71    65     1     0     0
SMALL
bcc


@<TRIPOS>ATOM
      1 N1         -0.4720   -0.5800   -0.6560 n2        1 5HI     -0.126000
      2 N3          1.2600   -0.8750    0.6710 n2        1 5HI     -0.122000
      3 C5          0.8650   -0.8050   -0.6330 c2        1 5HI     -0.026000
      4 C6         -2.2160   -0.5220    1.4460 c3        1 5HI     -0.064000
      5 C7         -1.3220   -0.4770   -1.8750 c2        1 5HI     -0.034000
      6 C8         -1.2860    0.9340   -2.4010 c3        1 5HI     -0.181000
      7 C10        -2.2180    2.4790   -4.0970 c3        1 5HI     -0.201000
      8 C13        -2.9840   -1.8330    1.1830 c3        1 5HI     -0.214500
      9 C15         3.1700   -0.0360   -3.4730 c1        1 5HI     -0.124500
     10 C17         2.1640   -2.3740    6.6790 c1        1 5HI     -0.124500
     11 C20         3.1520   -3.1690    7.2620 c1        1 5HI     -0.124500
     12 C21         2.0800   -2.2640   -2.1520 c1        1 5HI     -0.074000
     13 C24         3.0010   -2.4400   -3.1960 c1        1 5HI     -0.176000
     14 C26         3.8240   -1.3280    5.3210 c1        1 5HI     -0.125000
     15 O2         -0.8440   -0.4430    3.5510 o         1 5HI     -0.391000
     16 C3          0.1740   -0.6040    2.9740 c1        1 5HI      0.399000
     17 N2          1.4330   -0.5760    3.7070 n2        1 5HI     -0.365000
     18 C1          1.4250   -0.5020    5.1420 c3        1 5HI      0.055000
     19 C14         1.7250    0.9030    5.5690 c3        1 5HI     -0.029000
     20 O5          1.5440    1.0240    6.9760 oh        1 5HI     -0.326000
     21 C32         2.5020   -1.4610    5.7160 c1        1 5HI     -0.084000
     22 C23         4.7860   -2.1010    5.8870 c1        1 5HI     -0.124500
     23 C29         4.4420   -3.0370    6.8740 c1        1 5HI     -0.124500
     24 C2          0.1810   -0.6950    1.4430 c2        1 5HI     -0.212000
     25 C19        -0.9040   -0.5100    0.6180 c2        1 5HI      0.011000
     26 C12        -3.1180    0.6980    1.0220 c3        1 5HI     -0.214500
     27 C27         1.7010   -0.9820   -1.7660 c1        1 5HI     -0.028000
     28 C30         3.5450   -1.3200   -3.8550 c1        1 5HI      0.100000
     29 F1          4.3400   -1.5020   -4.9800 f         1 5HI     -0.106000
     30 C18         2.2440    0.1420   -2.4250 c1        1 5HI     -0.124500
     31 C9         -2.1720    1.0360   -3.6350 c3        1 5HI      0.045000
     32 O4         -3.4550    0.6110   -3.3160 oh        1 5HI     -0.370000
     33 C11        -2.7880    2.5530   -5.5390 c3        1 5HI      0.061000
     34 O3         -4.0690    2.1680   -5.5320 oh        1 5HI     -0.405000
     35 C35        -2.6900    4.0210   -6.0650 c3        1 5HI     -0.265000
     36 C36        -2.9280    4.0350   -7.6020 c2        1 5HI      0.330000
     37 O6         -4.0450    4.4230   -8.0670 o         1 5HI     -0.578000
     38 O7         -2.0060    3.6300   -8.3980 o         1 5HI     -0.578000
     39 H6         -2.0010   -0.4540    2.3940 hc        1 5HI      0.141000
     40 H7         -2.2520   -0.7190   -1.6490 ha        1 5HI      0.119500
     41 H7A        -0.9780   -1.0970   -2.5710 ha        1 5HI      0.119500
     42 H8         -0.3450    1.1790   -2.6410 hc        1 5HI      0.094500
     43 H8A        -1.6130    1.5380   -1.7240 hc        1 5HI      0.094500
     44 H10        -1.3360    2.8430   -4.0870 hc        1 5HI      0.091000
     45 H10A       -2.7900    2.9950   -3.4930 hc        1 5HI      0.091000
     46 H13        -2.3460   -2.6450    1.3210 hc        1 5HI      0.083333
     47 H13A       -3.7770   -1.9020    1.8390 hc        1 5HI      0.083333
     48 H13B       -3.3280   -1.8340    0.2440 hc        1 5HI      0.083333
     49 H15         3.4890    0.7700   -4.0150 ha        1 5HI      0.138167
     50 H17         1.2370   -2.5430    6.8730 ha        1 5HI      0.138167
     51 H20         2.9940   -3.9670    7.8530 ha        1 5HI      0.138167
     52 H21         1.7020   -3.0450   -1.6960 ha        1 5HI      0.149000
     53 H24         3.2230   -3.3580   -3.5110 ha        1 5HI      0.148000
     54 H26         4.3130   -0.5520    4.9310 ha        1 5HI      0.129000
     55 HN2         2.2220   -0.6530    3.2600 hn        1 5HI      0.237000
     56 H1          0.5850   -0.7490    5.4590 h1        1 5HI      0.151000
     57 H14         2.6430    1.1190    5.3430 h1        1 5HI      0.069000
     58 H14A        1.1030    1.5390    5.0940 h1        1 5HI      0.069000
     59 HO5         1.5750    1.8630    7.2010 ho        1 5HI      0.197000
     60 H23         5.7210   -2.0070    5.6020 ha        1 5HI      0.138167
     61 H29         5.1060   -3.6670    7.2120 ha        1 5HI      0.138167
     62 H12        -3.5740    1.0550    1.8090 hc        1 5HI      0.083333
     63 H12A       -2.5540    1.4020    0.6200 hc        1 5HI      0.083333
     64 H12B       -3.7870    0.3970    0.3640 hc        1 5HI      0.083333
     65 H18         1.9890    1.0110   -2.1650 ha        1 5HI      0.138167
     66 H9         -1.7890    0.4430   -4.3870 h1        1 5HI      0.075000
     67 HO4        -3.7020   -0.0270   -3.8740 ho        1 5HI      0.246000
     68 H11        -2.2660    1.9540   -6.1330 h1        1 5HI      0.069000
     69 HO3        -4.3140    1.9610   -6.3450 ho        1 5HI      0.268000
     70 H35        -1.8290    4.3680   -5.8770 hc        1 5HI      0.076500
     71 H35A       -3.3610    4.5670   -5.6290 hc        1 5HI      0.076500
@<TRIPOS>BOND
     1    1    3 1   
     2    1   25 1   
     3    2    3 1   
     4    2   24 1   
     5    3   27 1   
     6    4    8 1   
     7    4   25 1   
     8    4   26 1   
     9    4   39 1   
    10    5    6 1   
    11    5   40 1   
    12    5   41 1   
    13    6   31 1   
    14    6   42 1   
    15    6   43 1   
    16    7   31 1   
    17    7   33 1   
    18    7   44 1   
    19    7   45 1   
    20    8   46 1   
    21    8   47 1   
    22    8   48 1   
    23    9   30 1   
    24    9   49 1   
    25   10   11 1   
    26   10   50 1   
    27   11   51 1   
    28   12   27 1   
    29   12   52 1   
    30   13   28 1   
    31   13   53 1   
    32   14   21 1   
    33   14   54 1   
    34   15   16 1   
    35   16   24 1   
    36   17   18 1   
    37   17   55 1   
    38   18   19 1   
    39   18   21 1   
    40   18   56 1   
    41   19   20 1   
    42   19   57 1   
    43   19   58 1   
    44   20   59 1   
    45   22   23 1   
    46   22   60 1   
    47   23   61 1   
    48   24   25 1   
    49   26   62 1   
    50   26   63 1   
    51   26   64 1   
    52   28   29 1   
    53   30   65 1   
    54   31   32 1   
    55   31   66 1   
    56   32   67 1   
    57   33   34 1   
    58   33   35 1   
    59   33   68 1   
    60   34   69 1   
    61   35   36 1   
    62   35   70 1   
    63   35   71 1   
    64   36   37 1   
    65   36   38 1   
@<TRIPOS>SUBSTRUCTURE
     1 5HI         1 TEMP              0 ****  ****    0 ROOT
