@<TRIPOS>MOLECULE
5HI
   71    73     1     0     0
SMALL
bcc


@<TRIPOS>ATOM
      1 N1         -0.2520   -0.1410    1.3170 na        1 5HI     -0.169900
      2 N3          1.8080    0.8280    1.1220 nc        1 5HI     -0.661000
      3 C5          0.4760    1.0720    1.2120 cd        1 5HI      0.457000
      4 C7         -1.6870   -0.2640    1.2850 c3        1 5HI      0.022300
      5 C8         -2.2920   -0.4460   -0.1100 c3        1 5HI     -0.108400
      6 C10        -4.4630   -0.6080   -1.3640 c3        1 5HI     -0.122400
      7 C13        -0.5390   -3.2460    0.5630 c3        1 5HI     -0.091100
      8 C15         0.1550    4.6750    2.1870 ca        1 5HI     -0.172500
      9 C17         6.0480   -2.2180   -1.8400 ca        1 5HI     -0.113000
     10 C20         6.4420   -2.1710   -3.1770 ca        1 5HI     -0.136000
     11 C21        -1.2610    2.8070    0.6520 ca        1 5HI     -0.077000
     12 C24        -1.7360    4.1120    0.7570 ca        1 5HI     -0.172500
     13 C26         6.4630    0.1550   -1.6380 ca        1 5HI     -0.113000
     14 O2          3.4490   -2.3860    1.5840 o         1 5HI     -0.638100
     15 N2          4.3230   -0.5260    0.5800 n         1 5HI     -0.560900
     16 C1          5.6260   -1.1170    0.3820 c3        1 5HI      0.110000
     17 C14         6.7080   -0.4860    1.2960 c3        1 5HI      0.121400
     18 O5          6.7260    0.9260    1.2850 oh        1 5HI     -0.604800
     19 C32         6.0610   -1.0550   -1.0640 ca        1 5HI     -0.108300
     20 C23         6.8540    0.2000   -2.9750 ca        1 5HI     -0.136000
     21 C29         6.8430   -0.9630   -3.7460 ca        1 5HI     -0.127000
     22 C2          1.9570   -0.5580    1.1880 cc        1 5HI      0.214800
     23 C19         0.6830   -1.1790    1.3250 cd        1 5HI     -0.100900
     24 C12        -0.0110   -2.8890    2.9760 c3        1 5HI     -0.091100
     25 C27        -0.0870    2.4230    1.3080 ca        1 5HI     -0.142500
     26 C30        -1.0280    5.0530    1.5240 ca        1 5HI      0.128900
     27 F1         -1.4820    6.3250    1.6290 f         1 5HI     -0.144900
     28 C18         0.6150    3.3690    2.0760 ca        1 5HI     -0.077000
     29 C9         -3.8040   -0.2220   -0.0450 c3        1 5HI      0.155100
     30 O4         -3.9920    1.1540    0.2630 oh        1 5HI     -0.645800
     31 C11        -5.9750   -0.7850   -1.2180 c3        1 5HI      0.172100
     32 O3         -6.5160    0.5010   -0.9450 oh        1 5HI     -0.678800
     33 C35        -6.5780   -1.3970   -2.4710 c3        1 5HI     -0.236400
     34 C36        -8.0570   -1.7640   -2.2580 c         1 5HI      0.910600
     35 O6         -8.4870   -2.8250   -2.7860 o         1 5HI     -0.842800
     36 O7         -8.7710   -0.9730   -1.5690 o         1 5HI     -0.842800
     37 H6          1.4320   -3.1400    1.4040 hc        1 5HI      0.104700
     38 H7         -1.9790   -1.1440    1.9260 h1        1 5HI      0.079700
     39 H7A        -2.1250    0.6690    1.7490 h1        1 5HI      0.079700
     40 H8         -1.8460    0.2740   -0.8430 hc        1 5HI      0.058700
     41 H8A        -2.0940   -1.4790   -0.4920 hc        1 5HI      0.058700
     42 H10        -4.2570    0.1870   -2.1260 hc        1 5HI      0.052200
     43 H10A       -4.0290   -1.5730   -1.7300 hc        1 5HI      0.052200
     44 H13        -0.3340   -2.8860   -0.4740 hc        1 5HI      0.040200
     45 H13A       -0.4240   -4.3570    0.5790 hc        1 5HI      0.040200
     46 H13B       -1.5970   -3.0070    0.8300 hc        1 5HI      0.040200
     47 H15         0.7040    5.4140    2.7870 ha        1 5HI      0.151500
     48 H21        -1.8430    2.0870    0.0500 ha        1 5HI      0.162500
     49 H24        -2.6650    4.4060    0.2460 ha        1 5HI      0.151500
     50 H26         6.4820    1.0680   -1.0200 ha        1 5HI      0.145000
     51 HN2         4.1560    0.3460    0.1350 hn        1 5HI      0.329500
     52 H1          5.5620   -2.2090    0.6880 h1        1 5HI      0.093700
     53 H14         6.5660   -0.8620    2.3440 h1        1 5HI      0.052200
     54 H14A        7.7230   -0.7850    0.9180 h1        1 5HI      0.052200
     55 HO5         5.9160    1.2320    1.7100 ho        1 5HI      0.408000
     56 H23         7.1680    1.1540   -3.4220 ha        1 5HI      0.129500
     57 H29         7.1490   -0.9270   -4.8020 ha        1 5HI      0.127000
     58 H12        -0.1040   -3.9900    3.1390 hc        1 5HI      0.040200
     59 H12A        0.7430   -2.4840    3.6940 hc        1 5HI      0.040200
     60 H12B       -0.9990   -2.4180    3.1930 hc        1 5HI      0.040200
     61 H18         1.5420    3.0790    2.5950 ha        1 5HI      0.162500
     62 H9         -4.2420   -0.8370    0.7930 h1        1 5HI      0.035700
     63 HO4        -4.9180    1.3660    0.0710 ho        1 5HI      0.449000
     64 H11        -6.1930   -1.4550   -0.3360 h1        1 5HI      0.029700
     65 HO3        -7.4850    0.4180   -1.0250 ho        1 5HI      0.470000
     66 H35        -6.5210   -0.6640   -3.3130 hc        1 5HI      0.038200
     67 H35A       -6.0090   -2.3150   -2.7590 hc        1 5HI      0.038200
     68 C6          0.4300   -2.6280    1.5470 c3        1 5HI     -0.018400
     69 C3          3.2700   -1.2330    1.1330 c         1 5HI      0.615600
     70 H17         5.7210   -3.1720   -1.3970 ha        1 5HI      0.145000
     71 H20         6.4290   -3.0880   -3.7830 ha        1 5HI      0.129500
@<TRIPOS>BOND
     1    1    3 1   
     2    1    4 1   
     3    1   23 1   
     4    2    3 2   
     5    2   22 1   
     6    3   25 1   
     7    4    5 1   
     8    4   38 1   
     9    4   39 1   
    10    5   29 1   
    11    5   40 1   
    12    5   41 1   
    13    6   29 1   
    14    6   31 1   
    15    6   42 1   
    16    6   43 1   
    17    7   44 1   
    18    7   45 1   
    19    7   46 1   
    20    7   68 1   
    21    8   26 ar  
    22    8   28 ar  
    23    8   47 1   
    24    9   10 ar  
    25    9   19 ar  
    26    9   70 1   
    27   10   21 ar  
    28   10   71 1   
    29   11   12 ar  
    30   11   25 ar  
    31   11   48 1   
    32   12   26 ar  
    33   12   49 1   
    34   13   19 ar  
    35   13   20 ar  
    36   13   50 1   
    37   14   69 2   
    38   15   16 1   
    39   15   51 1   
    40   15   69 1   
    41   16   17 1   
    42   16   19 1   
    43   16   52 1   
    44   17   18 1   
    45   17   53 1   
    46   17   54 1   
    47   18   55 1   
    48   20   21 ar  
    49   20   56 1   
    50   21   57 1   
    51   22   23 2   
    52   22   69 1   
    53   23   68 1   
    54   24   58 1   
    55   24   59 1   
    56   24   60 1   
    57   24   68 1   
    58   25   28 ar  
    59   26   27 1   
    60   28   61 1   
    61   29   30 1   
    62   29   62 1   
    63   30   63 1   
    64   31   32 1   
    65   31   33 1   
    66   31   64 1   
    67   32   65 1   
    68   33   34 1   
    69   33   66 1   
    70   33   67 1   
    71   34   35 1   
    72   34   36 1   
    73   37   68 1   
@<TRIPOS>SUBSTRUCTURE
     1 5HI         1 TEMP              0 ****  ****    0 ROOT
