@<TRIPOS>MOLECULE
5HI
   72    74     1     0     0
SMALL
bcc


@<TRIPOS>ATOM
      1 N1         -0.2000    0.2380    0.1790 na        1 5HI     -0.158900
      2 N3          1.6680    0.2320    1.5020 nc        1 5HI     -0.688000
      3 C5          1.2310    0.2000    0.2290 cd        1 5HI      0.534000
      4 C7         -0.9910    0.0320   -1.0150 c3        1 5HI      0.008300
      5 C8         -1.3650   -1.4270   -1.2820 c3        1 5HI     -0.110400
      6 C10        -2.3640   -2.9820   -2.9750 c3        1 5HI     -0.124400
      7 C13        -3.0250   -0.5230    1.5050 c3        1 5HI     -0.098100
      8 C15         4.0910    1.2090   -1.9650 ca        1 5HI     -0.170500
      9 C17         2.9580   -1.8630    7.0780 ca        1 5HI     -0.115000
     10 C20         4.0330   -2.6430    7.5040 ca        1 5HI     -0.116000
     11 C21         1.9400   -0.5880   -2.0520 ca        1 5HI     -0.064000
     12 C24         2.8290   -0.5300   -3.1210 ca        1 5HI     -0.170500
     13 C26         4.4840   -0.4520    5.8340 ca        1 5HI     -0.115000
     14 O2         -0.3470    0.4930    4.5560 o         1 5HI     -0.493100
     15 N2          1.9600    0.1760    4.3170 n4        1 5HI     -0.659800
     16 C1          2.0130    0.0770    5.8170 c3        1 5HI      0.144800
     17 C14         2.0470    1.4840    6.4600 c3        1 5HI      0.116400
     18 O5          3.0480    2.2850    5.8740 oh        1 5HI     -0.602800
     19 C32         3.1810   -0.7620    6.2450 ca        1 5HI     -0.168300
     20 C23         5.5530   -1.2370    6.2570 ca        1 5HI     -0.116000
     21 C29         5.3300   -2.3330    7.0930 ca        1 5HI     -0.093000
     22 C2          0.5140    0.3130    2.3090 cc        1 5HI      0.114800
     23 C19        -0.6570    0.3370    1.4800 cd        1 5HI      0.000100
     24 C12        -2.5490    1.9290    1.5520 c3        1 5HI     -0.098100
     25 C27         2.1170    0.2420   -0.9400 ca        1 5HI     -0.190500
     26 C30         3.9120    0.3680   -3.0820 ca        1 5HI      0.159900
     27 F1          4.7810    0.4280   -4.1140 f         1 5HI     -0.125900
     28 C18         3.1970    1.1400   -0.9050 ca        1 5HI     -0.064000
     29 C9         -1.8460   -1.5720   -2.7270 c3        1 5HI      0.158100
     30 O4         -0.7290   -1.2590   -3.5500 oh        1 5HI     -0.655800
     31 C11        -3.2470   -3.0420   -4.2220 c3        1 5HI      0.175100
     32 O3         -2.4150   -2.7250   -5.3290 oh        1 5HI     -0.684800
     33 C35        -3.8950   -4.4070   -4.3680 c3        1 5HI     -0.242400
     34 C36        -4.9590   -4.3790   -5.4840 c         1 5HI      0.912600
     35 O6         -6.0340   -5.0030   -5.2910 o         1 5HI     -0.835300
     36 O7         -4.6820   -3.7250   -6.5350 o         1 5HI     -0.835300
     37 H6         -2.0140    0.5150    3.0850 hc        1 5HI      0.088700
     38 H7         -1.9310    0.6480   -0.9240 h1        1 5HI      0.096700
     39 H7A        -0.3930    0.4230   -1.8930 h1        1 5HI      0.096700
     40 H8         -2.1840   -1.7580   -0.5940 hc        1 5HI      0.059200
     41 H8A        -0.4900   -2.1080   -1.1200 hc        1 5HI      0.059200
     42 H10        -1.4960   -3.6790   -3.1030 hc        1 5HI      0.053200
     43 H10A       -2.9700   -3.3230   -2.0980 hc        1 5HI      0.053200
     44 H13        -2.5780   -1.5400    1.6170 hc        1 5HI      0.054033
     45 H13A       -3.3320   -0.3720    0.4410 hc        1 5HI      0.054033
     46 H13B       -3.9460   -0.4710    2.1370 hc        1 5HI      0.054033
     47 H15         4.9360    1.9140   -1.9450 ha        1 5HI      0.165000
     48 H21         1.0900   -1.2910   -2.1180 ha        1 5HI      0.161000
     49 H24         2.6820   -1.1770   -4.0000 ha        1 5HI      0.165000
     50 HN2         2.5250    0.9870    4.0240 hn        1 5HI      0.471800
     51 H1          1.0480   -0.4180    6.1530 hx        1 5HI      0.124700
     52 H14         1.0770    2.0170    6.2530 h1        1 5HI      0.089200
     53 H14A        2.1890    1.3620    7.5640 h1        1 5HI      0.089200
     54 HO5         3.8690    2.1470    6.3660 ho        1 5HI      0.424000
     55 H23         6.5760   -0.9930    5.9300 ha        1 5HI      0.154000
     56 H29         6.1770   -2.9530    7.4260 ha        1 5HI      0.155000
     57 H12        -2.6390    2.0240    0.4430 hc        1 5HI      0.054033
     58 H12A       -3.5590    2.0990    2.0000 hc        1 5HI      0.054033
     59 H12B       -1.8550    2.7200    1.9230 hc        1 5HI      0.054033
     60 H18         3.3410    1.8020   -0.0370 ha        1 5HI      0.161000
     61 H9         -2.6620   -0.8210   -2.9320 h1        1 5HI      0.043700
     62 HO4        -0.9430   -1.5610   -4.4480 ho        1 5HI      0.461000
     63 H11        -4.0530   -2.2540   -4.1490 h1        1 5HI      0.031700
     64 HO3        -2.9270   -2.9430   -6.1340 ho        1 5HI      0.478000
     65 H35        -3.1240   -5.1680   -4.6410 hc        1 5HI      0.038700
     66 H35A       -4.3750   -4.7100   -3.4070 hc        1 5HI      0.038700
     67 C6         -2.0550    0.5500    1.9530 c3        1 5HI     -0.029400
     68 C3          0.5610    0.3500    3.7410 c         1 5HI      0.516600
     69 H17         1.9370   -2.1180    7.4040 ha        1 5HI      0.140000
     70 H20         3.8540   -3.5070    8.1630 ha        1 5HI      0.154000
     71 H22         2.3790   -0.6670    3.9070 hn        1 5HI      0.471800
     72 H26         4.6710    0.4150    5.1810 ha        1 5HI      0.140000
@<TRIPOS>BOND
     1    1    3 1   
     2    1    4 1   
     3    1   23 1   
     4    2    3 2   
     5    2   22 1   
     6    3   25 1   
     7    4    5 1   
     8    4   38 1   
     9    4   39 1   
    10    5   29 1   
    11    5   40 1   
    12    5   41 1   
    13    6   29 1   
    14    6   31 1   
    15    6   42 1   
    16    6   43 1   
    17    7   44 1   
    18    7   45 1   
    19    7   46 1   
    20    7   67 1   
    21    8   26 ar  
    22    8   28 ar  
    23    8   47 1   
    24    9   10 ar  
    25    9   19 ar  
    26    9   69 1   
    27   10   21 ar  
    28   10   70 1   
    29   11   12 ar  
    30   11   25 ar  
    31   11   48 1   
    32   12   26 ar  
    33   12   49 1   
    34   13   19 ar  
    35   13   20 ar  
    36   13   72 1   
    37   14   68 2   
    38   15   16 1   
    39   15   50 1   
    40   15   68 1   
    41   15   71 1   
    42   16   17 1   
    43   16   19 1   
    44   16   51 1   
    45   17   18 1   
    46   17   52 1   
    47   17   53 1   
    48   18   54 1   
    49   20   21 ar  
    50   20   55 1   
    51   21   56 1   
    52   22   23 2   
    53   22   68 1   
    54   23   67 1   
    55   24   57 1   
    56   24   58 1   
    57   24   59 1   
    58   24   67 1   
    59   25   28 ar  
    60   26   27 1   
    61   28   60 1   
    62   29   30 1   
    63   29   61 1   
    64   30   62 1   
    65   31   32 1   
    66   31   33 1   
    67   31   63 1   
    68   32   64 1   
    69   33   34 1   
    70   33   65 1   
    71   33   66 1   
    72   34   35 1   
    73   34   36 1   
    74   37   67 1   
@<TRIPOS>SUBSTRUCTURE
     1 5HI         1 TEMP              0 ****  ****    0 ROOT
