@<TRIPOS>MOLECULE
5HI
   72    74     1     0     0
SMALL
bcc


@<TRIPOS>ATOM
      1 N1         -0.1980    0.2500    0.1670 na        1 5HI     -0.158900
      2 N3          1.6700    0.2450    1.4910 nc        1 5HI     -0.688000
      3 C5          1.2340    0.2080    0.2170 cd        1 5HI      0.534000
      4 C7         -0.9890    0.0390   -1.0260 c3        1 5HI      0.009300
      5 C8         -1.3670   -1.4210   -1.2840 c3        1 5HI     -0.110400
      6 C10        -2.3690   -2.9830   -2.9690 c3        1 5HI     -0.124400
      7 C13        -3.0250   -0.4960    1.4970 c3        1 5HI     -0.098100
      8 C15         4.0970    1.1960   -1.9810 ca        1 5HI     -0.170500
      9 C17         2.9520   -1.8220    7.0790 ca        1 5HI     -0.115000
     10 C20         4.0250   -2.6030    7.5090 ca        1 5HI     -0.116000
     11 C21         1.9410   -0.5960   -2.0580 ca        1 5HI     -0.064000
     12 C24         2.8300   -0.5460   -3.1280 ca        1 5HI     -0.170500
     13 C26         4.4820   -0.4230    5.8270 ca        1 5HI     -0.115000
     14 O2         -0.3450    0.5290    4.5430 o         1 5HI     -0.493100
     15 N2          1.9610    0.2040    4.3060 ny        1 5HI     -0.659800
     16 C1          2.0130    0.1130    5.8060 c3        1 5HI      0.144800
     17 C14         2.0520    1.5240    6.4410 c3        1 5HI      0.116400
     18 O5          3.0550    2.3180    5.8510 oh        1 5HI     -0.602800
     19 C32         3.1790   -0.7260    6.2400 ca        1 5HI     -0.168300
     20 C23         5.5500   -1.2090    6.2550 ca        1 5HI     -0.116000
     21 C29         5.3220   -2.3000    7.0970 ca        1 5HI     -0.093000
     22 C2          0.5160    0.3340    2.2970 cc        1 5HI      0.114800
     23 C19        -0.6550    0.3570    1.4670 cd        1 5HI      0.000100
     24 C12        -2.5420    1.9550    1.5300 c3        1 5HI     -0.098100
     25 C27         2.1190    0.2410   -0.9510 ca        1 5HI     -0.190500
     26 C30         3.9150    0.3490   -3.0930 ca        1 5HI      0.159900
     27 F1          4.7850    0.4010   -4.1250 f         1 5HI     -0.125900
     28 C18         3.2020    1.1360   -0.9220 ca        1 5HI     -0.064000
     29 C9         -1.8470   -1.5730   -2.7290 c3        1 5HI      0.158100
     30 O4         -0.7290   -1.2680   -3.5530 oh        1 5HI     -0.655800
     31 C11        -3.2520   -3.0470   -4.2160 c3        1 5HI      0.175100
     32 O3         -2.4170   -2.7410   -5.3250 oh        1 5HI     -0.684800
     33 C35        -3.9040   -4.4110   -4.3540 c3        1 5HI     -0.242400
     34 C36        -4.9660   -4.3880   -5.4720 c         1 5HI      0.912600
     35 O6         -6.0440   -5.0060   -5.2760 o         1 5HI     -0.835300
     36 O7         -4.6860   -3.7410   -6.5270 o         1 5HI     -0.835300
     37 H6         -2.0110    0.5480    3.0710 hc        1 5HI      0.088700
     38 H7         -1.9270    0.6590   -0.9390 h1        1 5HI      0.096700
     39 H7A        -0.3900    0.4230   -1.9060 h1        1 5HI      0.096700
     40 H8         -2.1870   -1.7450   -0.5950 hc        1 5HI      0.059200
     41 H8A        -0.4940   -2.1030   -1.1180 hc        1 5HI      0.059200
     42 H10        -1.5040   -3.6830   -3.0910 hc        1 5HI      0.053200
     43 H10A       -2.9770   -3.3170   -2.0900 hc        1 5HI      0.053200
     44 H13        -3.3320   -0.3500    0.4320 hc        1 5HI      0.054033
     45 H13A       -3.9460   -0.4380    2.1280 hc        1 5HI      0.054033
     46 H13B       -2.5810   -1.5130    1.6140 hc        1 5HI      0.054033
     47 H15         4.9430    1.8990   -1.9650 ha        1 5HI      0.165000
     48 H21         1.0890   -1.2970   -2.1200 ha        1 5HI      0.161000
     49 H24         2.6820   -1.1980   -4.0030 ha        1 5HI      0.165000
     50 HN2         2.5290    1.0120    4.0090 hn        1 5HI      0.471800
     51 H1          1.0470   -0.3770    6.1450 hx        1 5HI      0.124700
     52 H14         2.1930    1.4070    7.5470 h1        1 5HI      0.089200
     53 H14A        1.0840    2.0590    6.2320 h1        1 5HI      0.089200
     54 HO5         3.8760    2.1810    6.3440 ho        1 5HI      0.424000
     55 H23         6.5730   -0.9700    5.9260 ha        1 5HI      0.154000
     56 H29         6.1680   -2.9200    7.4340 ha        1 5HI      0.155000
     57 H12        -1.8460    2.7460    1.8970 hc        1 5HI      0.054033
     58 H12A       -2.6310    2.0440    0.4210 hc        1 5HI      0.054033
     59 H12B       -3.5510    2.1310    1.9770 hc        1 5HI      0.054033
     60 H18         3.3480    1.8020   -0.0570 ha        1 5HI      0.161000
     61 H9         -2.6610   -0.8200   -2.9390 h1        1 5HI      0.043700
     62 HO4        -0.9430   -1.5750   -4.4490 ho        1 5HI      0.461000
     63 H11        -4.0540   -2.2560   -4.1490 h1        1 5HI      0.031700
     64 HO3        -2.9280   -2.9620   -6.1290 ho        1 5HI      0.478000
     65 H35        -3.1340   -5.1770   -4.6210 hc        1 5HI      0.038700
     66 H35A       -4.3860   -4.7070   -3.3920 hc        1 5HI      0.038700
     67 C6         -2.0520    0.5760    1.9390 c3        1 5HI     -0.029400
     68 C3          0.5630    0.3800    3.7280 c         1 5HI      0.516600
     69 H17         1.9300   -2.0720    7.4070 ha        1 5HI      0.140000
     70 H20         3.8430   -3.4630    8.1740 ha        1 5HI      0.154000
     71 H22         2.3780   -0.6430    3.9010 hn        1 5HI      0.471800
     72 H26         4.6720    0.4400    5.1690 ha        1 5HI      0.140000
@<TRIPOS>BOND
     1    1    3 1   
     2    1    4 1   
     3    1   23 1   
     4    2    3 2   
     5    2   22 1   
     6    3   25 1   
     7    4    5 1   
     8    4   38 1   
     9    4   39 1   
    10    5   29 1   
    11    5   40 1   
    12    5   41 1   
    13    6   29 1   
    14    6   31 1   
    15    6   42 1   
    16    6   43 1   
    17    7   44 1   
    18    7   45 1   
    19    7   46 1   
    20    7   67 1   
    21    8   26 ar  
    22    8   28 ar  
    23    8   47 1   
    24    9   10 ar  
    25    9   19 ar  
    26    9   69 1   
    27   10   21 ar  
    28   10   70 1   
    29   11   12 ar  
    30   11   25 ar  
    31   11   48 1   
    32   12   26 ar  
    33   12   49 1   
    34   13   19 ar  
    35   13   20 ar  
    36   13   72 1   
    37   14   68 2   
    38   15   16 1   
    39   15   50 1   
    40   15   68 1   
    41   15   71 1   
    42   16   17 1   
    43   16   19 1   
    44   16   51 1   
    45   17   18 1   
    46   17   52 1   
    47   17   53 1   
    48   18   54 1   
    49   20   21 ar  
    50   20   55 1   
    51   21   56 1   
    52   22   23 2   
    53   22   68 1   
    54   23   67 1   
    55   24   57 1   
    56   24   58 1   
    57   24   59 1   
    58   24   67 1   
    59   25   28 ar  
    60   26   27 1   
    61   28   60 1   
    62   29   30 1   
    63   29   61 1   
    64   30   62 1   
    65   31   32 1   
    66   31   33 1   
    67   31   63 1   
    68   32   64 1   
    69   33   34 1   
    70   33   65 1   
    71   33   66 1   
    72   34   35 1   
    73   34   36 1   
    74   37   67 1   
@<TRIPOS>SUBSTRUCTURE
     1 5HI         1 TEMP              0 ****  ****    0 ROOT
