@<TRIPOS>MOLECULE
5HK
   55    51     1     0     0
SMALL
bcc


@<TRIPOS>ATOM
      1 O5         -0.0850   -1.6920    6.3340 o         1 5HK     -0.374000
      2 C17         1.0150   -1.1470    6.2710 c1        1 5HK      0.307000
      3 N3          1.9050   -1.1920    7.4050 n3        1 5HK     -0.333000
      4 C19         2.3850   -2.4840    7.9070 c3        1 5HK     -0.076500
      5 C18         2.1930    0.0340    8.1560 c3        1 5HK     -0.076500
      6 C16         1.3830   -0.2810    5.0330 c2        1 5HK     -0.142000
      7 C15         0.3140   -0.4360    3.9730 c2        1 5HK     -0.061000
      8 C14        -0.4990   -1.3690    3.3680 c1        1 5HK     -0.148000
      9 C20         0.5790    0.7690    3.3400 c2        1 5HK     -0.132000
     10 C21         0.0160    1.0390    2.0760 c1        1 5HK     -0.145000
     11 C22        -0.8070    0.0940    1.4660 c2        1 5HK     -0.003000
     12 C13        -1.0660   -1.0990    2.0980 c1        1 5HK      0.084000
     13 N2         -2.0700   -1.8500    1.3900 n         1 5HK     -0.318000
     14 C12        -1.4980   -2.5530    0.2750 c2        1 5HK      0.365000
     15 O4         -0.9960   -3.6230    0.3390 o         1 5HK     -0.357000
     16 N4         -1.6320    0.2350    0.2530 n3        1 5HK     -0.219000
     17 C23        -1.0380   -0.4700   -0.8680 c2        1 5HK      0.076000
     18 C11        -1.6150   -1.7150   -1.0290 c2        1 5HK     -0.119000
     19 C10        -1.6180   -2.3330   -2.2970 c1        1 5HK     -0.057000
     20 C9         -1.0350   -1.6830   -3.3960 c1        1 5HK     -0.145000
     21 C24        -0.4530    0.1800   -1.9720 c1        1 5HK     -0.171000
     22 C8         -0.4570   -0.4380   -3.2360 c2        1 5HK     -0.010000
     23 C4         -0.0490    0.4240   -4.4580 c2        1 5HK      0.039000
     24 C5         -0.9970    0.7350   -5.4430 c2        1 5HK     -0.214000
     25 C6         -0.6660    1.6030   -6.4780 c1        1 5HK      0.151000
     26 O3         -1.5580    1.7830   -7.5500 o         1 5HK     -0.167000
     27 C7         -2.6670    2.5950   -7.2380 c3        1 5HK     -0.084000
     28 C3          1.2200    0.9820   -4.5160 c1        1 5HK     -0.171000
     29 C2          1.5540    1.8550   -5.5550 c1        1 5HK     -0.037000
     30 C1          0.6120    2.1650   -6.5360 c2        1 5HK     -0.170000
     31 N1          0.9860    2.9520   -7.6600 no        1 5HK      0.580000
     32 O1          1.9960    3.6270   -7.6230 o         1 5HK     -0.354000
     33 O2          0.2420    2.9040   -8.7970 o         1 5HK     -0.354000
     34 H191        1.6240   -3.1020    8.0050 h1        1 5HK      0.083333
     35 H193        2.8050   -2.3600    8.7540 h1        1 5HK      0.083333
     36 H192        3.0350   -2.8620    7.2720 h1        1 5HK      0.083333
     37 H182        2.6160    0.6760    7.5750 h1        1 5HK      0.083333
     38 H181        2.8100   -0.1800    8.9260 h1        1 5HK      0.083333
     39 H183        1.3570    0.4090    8.5020 h1        1 5HK      0.083333
     40 H9          2.2610   -0.5820    4.6690 ha        1 5HK      0.118500
     41 H8          1.4460    0.6630    5.2990 ha        1 5HK      0.118500
     42 H7         -0.7110   -2.1950    3.8260 ha        1 5HK      0.164000
     43 H10         1.0780    1.4340    3.7850 ha        1 5HK      0.137000
     44 H11         0.2060    1.9040    1.6190 DU        1 5HK      0.138000
     45 H6         -2.9410   -1.8560    1.6010 hn        1 5HK      0.249000
     46 H12        -1.7160    1.0880    0.0540 hn        1 5HK      0.196000
     47 H5         -2.0250   -3.2070   -2.4090 ha        1 5HK      0.164000
     48 H4         -1.0350   -2.1330   -4.3180 ha        1 5HK      0.145000
     49 H13        -0.0360    1.0770   -1.8590 DU        1 5HK      0.138000
     50 H3         -1.8820    0.2830   -5.4400 ha        1 5HK      0.157000
     51 H71        -3.3340    2.0650   -6.6730 h1        1 5HK      0.094000
     52 H72        -2.3660    3.3760   -6.7360 h1        1 5HK      0.094000
     53 H73        -3.1060    2.8910   -8.0760 h1        1 5HK      0.094000
     54 H2          1.8940    0.7620   -3.8140 ha        1 5HK      0.151000
     55 H1          2.4270    2.2370   -5.5940 ha        1 5HK      0.175000
@<TRIPOS>BOND
     1    1    2 1   
     2    2    3 1   
     3    3    4 1   
     4    3    5 1   
     5    4   34 1   
     6    4   35 1   
     7    4   36 1   
     8    5   37 1   
     9    5   38 1   
    10    5   39 1   
    11    6    7 1   
    12    6   40 1   
    13    6   41 1   
    14    7    8 1   
    15    7    9 1   
    16    8   42 1   
    17    9   10 1   
    18    9   43 1   
    19   10   11 1   
    20   11   12 1   
    21   11   16 1   
    22   12   13 1   
    23   13   14 1   
    24   13   45 1   
    25   14   15 1   
    26   14   18 1   
    27   16   17 1   
    28   16   46 1   
    29   17   18 1   
    30   17   21 1   
    31   18   19 1   
    32   19   47 1   
    33   20   22 1   
    34   20   48 1   
    35   21   22 1   
    36   22   23 1   
    37   23   24 1   
    38   23   28 1   
    39   24   25 1   
    40   24   50 1   
    41   25   30 1   
    42   26   27 1   
    43   27   51 1   
    44   27   52 1   
    45   27   53 1   
    46   28   54 1   
    47   29   30 1   
    48   29   55 1   
    49   30   31 1   
    50   31   32 1   
    51   31   33 1   
@<TRIPOS>SUBSTRUCTURE
     1 5HK         1 TEMP              0 ****  ****    0 ROOT
