@<TRIPOS>MOLECULE
5HK
   55    58     1     0     0
SMALL
bcc


@<TRIPOS>ATOM
      1 O5          2.0580   -2.4130   -0.1190 o         1 5HK     -0.613100
      2 C17         2.1640   -1.1830   -0.3120 c         1 5HK      0.663100
      3 N3          1.7610   -0.2780    0.6540 n         1 5HK     -0.474800
      4 C19         1.2810   -0.7300    1.9310 c3        1 5HK      0.078300
      5 C18         1.8800    1.1380    0.4600 c3        1 5HK      0.078300
      6 C16         2.7380   -0.6680   -1.6250 c3        1 5HK     -0.109100
      7 C15         1.6610   -0.3460   -2.6000 ca        1 5HK     -0.054300
      8 C14         0.7140   -1.3180   -2.9240 ca        1 5HK     -0.154000
      9 C20         1.6130    0.9070   -3.2180 ca        1 5HK     -0.150000
     10 C21         0.6220    1.1920   -4.1510 ca        1 5HK     -0.076000
     11 C22        -0.3530    0.2360   -4.4810 ca        1 5HK      0.047600
     12 C13        -0.3010   -1.0500   -3.8660 ca        1 5HK      0.041600
     13 N2         -1.2720   -2.0280   -4.1270 n         1 5HK     -0.471100
     14 C12        -1.8040   -2.3810   -5.3610 c         1 5HK      0.706100
     15 O4         -2.5380   -3.3900   -5.3910 o         1 5HK     -0.622500
     16 N4         -1.3730    0.5940   -5.4180 na        1 5HK     -0.586000
     17 C23        -1.3390   -0.2050   -6.6060 ca        1 5HK      0.117600
     18 C11        -1.5230   -1.6030   -6.5960 ca        1 5HK     -0.152600
     19 C10        -1.4920   -2.3210   -7.7980 ca        1 5HK     -0.072000
     20 C9         -1.2630   -1.6700   -9.0050 ca        1 5HK     -0.125000
     21 C24        -1.1170    0.4470   -7.8350 ca        1 5HK     -0.096000
     22 C8         -1.0750   -0.2810   -9.0290 cp        1 5HK     -0.033000
     23 C4         -0.8390    0.4110  -10.2970 cp        1 5HK      0.041000
     24 C5          0.0150   -0.1480  -11.2500 ca        1 5HK     -0.216000
     25 C6          0.2500    0.5090  -12.4680 ca        1 5HK      0.195100
     26 O3          1.0770    0.0270  -13.4480 os        1 5HK     -0.283900
     27 C7          1.7340   -1.2120  -13.1860 c3        1 5HK      0.106700
     28 C3         -1.4700    1.6380  -10.5600 ca        1 5HK     -0.168000
     29 C2         -1.2510    2.2980  -11.7610 ca        1 5HK     -0.036000
     30 C1         -0.3910    1.7470  -12.7280 ca        1 5HK     -0.215200
     31 N1         -0.1770    2.4790  -13.9980 no        1 5HK      0.325200
     32 O1         -0.7410    3.5340  -14.1510 o         1 5HK     -0.204500
     33 O2          0.5410    2.0170  -14.8390 o         1 5HK     -0.204500
     34 H191        1.9330   -0.3230    2.7510 h1        1 5HK      0.044200
     35 H193        0.2300   -0.3670    2.0930 h1        1 5HK      0.044200
     36 H192        1.2910   -1.8510    1.9760 h1        1 5HK      0.044200
     37 H182        1.5790    1.4190   -0.5860 h1        1 5HK      0.044200
     38 H181        1.2090    1.6760    1.1810 h1        1 5HK      0.044200
     39 H183        2.9380    1.4760    0.6350 h1        1 5HK      0.044200
     40 H9          3.3790   -1.4940   -2.0450 hc        1 5HK      0.080200
     41 H8          3.4010    0.2190   -1.4490 hc        1 5HK      0.080200
     42 H7          0.7710   -2.2990   -2.4210 ha        1 5HK      0.162000
     43 H10         2.3630    1.6740   -2.9710 ha        1 5HK      0.138000
     44 H11         0.5940    2.1840   -4.6300 ha        1 5HK      0.152000
     45 H6         -1.4230   -2.6930   -3.3930 hn        1 5HK      0.333500
     46 H12        -2.2800    0.5230   -4.9840 hn        1 5HK      0.391800
     47 H5         -1.6650   -3.4100   -7.7760 ha        1 5HK      0.163000
     48 H4         -1.2440   -2.2440   -9.9440 ha        1 5HK      0.145000
     49 H13        -0.9680    1.5390   -7.8550 ha        1 5HK      0.158000
     50 H3          0.5110   -1.1060  -11.0350 ha        1 5HK      0.154000
     51 H71         0.9870   -2.0320  -13.0500 h1        1 5HK      0.054033
     52 H72         2.3970   -1.1260  -12.2920 h1        1 5HK      0.054033
     53 H73         2.3370   -1.3740  -14.1160 h1        1 5HK      0.054033
     54 H2         -2.1490    2.0760   -9.8130 ha        1 5HK      0.154000
     55 H1         -1.7520    3.2610  -11.9650 ha        1 5HK      0.175000
@<TRIPOS>BOND
     1    1    2 2   
     2    2    3 1   
     3    2    6 1   
     4    3    4 1   
     5    3    5 1   
     6    4   34 1   
     7    4   35 1   
     8    4   36 1   
     9    5   37 1   
    10    5   38 1   
    11    5   39 1   
    12    6    7 1   
    13    6   40 1   
    14    6   41 1   
    15    7    8 ar  
    16    7    9 ar  
    17    8   12 ar  
    18    8   42 1   
    19    9   10 ar  
    20    9   43 1   
    21   10   11 ar  
    22   10   44 1   
    23   11   12 ar  
    24   11   16 1   
    25   12   13 1   
    26   13   14 1   
    27   13   45 1   
    28   14   15 2   
    29   14   18 1   
    30   16   17 1   
    31   16   46 1   
    32   17   18 ar  
    33   17   21 ar  
    34   18   19 ar  
    35   19   20 ar  
    36   19   47 1   
    37   20   22 ar  
    38   20   48 1   
    39   21   22 ar  
    40   21   49 1   
    41   22   23 1   
    42   23   24 ar  
    43   23   28 ar  
    44   24   25 ar  
    45   24   50 1   
    46   25   26 1   
    47   25   30 ar  
    48   26   27 1   
    49   27   51 1   
    50   27   52 1   
    51   27   53 1   
    52   28   29 ar  
    53   28   54 1   
    54   29   30 ar  
    55   29   55 1   
    56   30   31 1   
    57   31   32 1   
    58   31   33 1   
@<TRIPOS>SUBSTRUCTURE
     1 5HK         1 TEMP              0 ****  ****    0 ROOT
