@<TRIPOS>MOLECULE
5HK
   56    59     1     0     0
SMALL
bcc


@<TRIPOS>ATOM
      1 O5          3.6380    0.5220    0.6170 o         1 5HK     -0.409100
      2 C17         2.8410    0.1280   -0.2180 c         1 5HK      0.547100
      3 N3          1.3850    0.0260    0.2330 nx        1 5HK     -0.593200
      4 C19         0.7980    1.3870    0.3210 c3        1 5HK      0.083100
      5 C18         1.2830   -0.6880    1.5300 c3        1 5HK      0.083100
      6 C16         3.1390   -0.2770   -1.6350 c3        1 5HK     -0.101100
      7 C15         1.9780   -0.2070   -2.5590 ca        1 5HK     -0.139300
      8 C14         1.2790   -1.3710   -2.8850 ca        1 5HK     -0.190000
      9 C20         1.6270    1.0100   -3.1490 ca        1 5HK     -0.156000
     10 C21         0.5680    1.0690   -4.0510 ca        1 5HK     -0.064000
     11 C22        -0.1680   -0.0810   -4.3780 ca        1 5HK      0.081600
     12 C13         0.2110   -1.3380   -3.8100 ca        1 5HK      0.069600
     13 N2         -0.4870   -2.5100   -4.0950 ns        1 5HK     -0.483100
     14 C12        -0.9950   -2.9320   -5.3350 c         1 5HK      0.713100
     15 O4         -1.4500   -4.0890   -5.3580 o         1 5HK     -0.582500
     16 N4         -1.2760    0.0550   -5.2690 na        1 5HK     -0.590000
     17 C23        -1.1110   -0.6660   -6.4950 ca        1 5HK      0.105600
     18 C11        -0.9710   -2.0700   -6.5380 ca        1 5HK     -0.166600
     19 C10        -0.8520   -2.7190   -7.7740 ca        1 5HK     -0.063000
     20 C9         -0.8500   -1.9890   -8.9580 ca        1 5HK     -0.117000
     21 C24        -1.1140    0.0620   -7.6970 ca        1 5HK     -0.094000
     22 C8         -0.9810   -0.5950   -8.9270 cp        1 5HK     -0.008000
     23 C4         -0.9880    0.1800  -10.1700 cp        1 5HK      0.020000
     24 C5         -0.0920   -0.1350  -11.1940 ca        1 5HK     -0.212000
     25 C6         -0.0860    0.6100  -12.3850 ca        1 5HK      0.198100
     26 O3          0.7640    0.3710  -13.4300 os        1 5HK     -0.277900
     27 C7          1.6650   -0.7270  -13.2970 c3        1 5HK      0.105700
     28 C3         -1.8920    1.2400  -10.3320 ca        1 5HK     -0.167000
     29 C2         -1.9010    1.9820  -11.5050 ca        1 5HK     -0.034000
     30 C1         -1.0000    1.6830  -12.5410 ca        1 5HK     -0.207200
     31 N1         -1.0290    2.5030  -13.7780 no        1 5HK      0.324200
     32 O1         -1.8100    3.4180  -13.8320 o         1 5HK     -0.194000
     33 O2         -0.2840    2.2420  -14.6790 o         1 5HK     -0.194000
     34 H191        1.3870    1.9990    1.0580 hx        1 5HK      0.108367
     35 H193       -0.2700    1.3140    0.6600 hx        1 5HK      0.108367
     36 H192        0.8410    1.8670   -0.6950 hx        1 5HK      0.108367
     37 H182        1.8940   -0.1470    2.3030 hx        1 5HK      0.108367
     38 H181        0.2080   -0.7210    1.8540 hx        1 5HK      0.108367
     39 H183        1.6750   -1.7330    1.4090 hx        1 5HK      0.108367
     40 H9          3.9680    0.3990   -1.9990 hc        1 5HK      0.129700
     41 H8          3.5610   -1.3230   -1.5950 hc        1 5HK      0.129700
     42 H7          1.5950   -2.3330   -2.4500 ha        1 5HK      0.143000
     43 H10         2.2020    1.9230   -2.9290 ha        1 5HK      0.148000
     44 H11         0.3020    2.0360   -4.5140 ha        1 5HK      0.175000
     45 H6         -0.4060   -3.2430   -3.4160 hn        1 5HK      0.328500
     46 H12        -2.1290   -0.2260   -4.8120 hn        1 5HK      0.400800
     47 H5         -0.7740   -3.8200   -7.7990 ha        1 5HK      0.168000
     48 H4         -0.7610   -2.5130   -9.9240 ha        1 5HK      0.158000
     49 H13        -1.2220    1.1600   -7.6760 ha        1 5HK      0.163000
     50 H3          0.6170   -0.9660  -11.0620 ha        1 5HK      0.153000
     51 H71         1.1050   -1.6850  -13.1740 h1        1 5HK      0.056367
     52 H72         2.2170   -0.7120  -14.2730 h1        1 5HK      0.056367
     53 H73         2.3650   -0.5610  -12.4430 h1        1 5HK      0.056367
     54 H2         -2.6100    1.4790   -9.5320 ha        1 5HK      0.151000
     55 H1         -2.6180    2.8140  -11.6310 ha        1 5HK      0.181000
     56 H31         0.8700   -0.5070   -0.4850 hn        1 5HK      0.464800
@<TRIPOS>BOND
     1    1    2 2   
     2    2    3 1   
     3    2    6 1   
     4    3    4 1   
     5    3    5 1   
     6    3   56 1   
     7    4   34 1   
     8    4   35 1   
     9    4   36 1   
    10    5   37 1   
    11    5   38 1   
    12    5   39 1   
    13    6    7 1   
    14    6   40 1   
    15    6   41 1   
    16    7    8 ar  
    17    7    9 ar  
    18    8   12 ar  
    19    8   42 1   
    20    9   10 ar  
    21    9   43 1   
    22   10   11 ar  
    23   10   44 1   
    24   11   12 ar  
    25   11   16 1   
    26   12   13 1   
    27   13   14 1   
    28   13   45 1   
    29   14   15 2   
    30   14   18 1   
    31   16   17 1   
    32   16   46 1   
    33   17   18 ar  
    34   17   21 ar  
    35   18   19 ar  
    36   19   20 ar  
    37   19   47 1   
    38   20   22 ar  
    39   20   48 1   
    40   21   22 ar  
    41   21   49 1   
    42   22   23 1   
    43   23   24 ar  
    44   23   28 ar  
    45   24   25 ar  
    46   24   50 1   
    47   25   26 1   
    48   25   30 ar  
    49   26   27 1   
    50   27   51 1   
    51   27   52 1   
    52   27   53 1   
    53   28   29 ar  
    54   28   54 1   
    55   29   30 ar  
    56   29   55 1   
    57   30   31 1   
    58   31   32 1   
    59   31   33 1   
@<TRIPOS>SUBSTRUCTURE
     1 5HK         1 TEMP              0 ****  ****    0 ROOT
