@<TRIPOS>MOLECULE
5HK
   56    59     1     0     0
SMALL
bcc


@<TRIPOS>ATOM
      1 O5          3.6390    0.5010    0.6210 o         1 5HK     -0.409100
      2 C17         2.8470    0.1030   -0.2180 c         1 5HK      0.547100
      3 N3          1.3950   -0.0320    0.2340 n4        1 5HK     -0.593200
      4 C19         0.7820    1.3170    0.3400 c3        1 5HK      0.083100
      5 C18         1.3080   -0.7640    1.5220 c3        1 5HK      0.083100
      6 C16         3.1510   -0.2790   -1.6400 c3        1 5HK     -0.101100
      7 C15         1.9870   -0.2180   -2.5620 ca        1 5HK     -0.139300
      8 C14         1.3080   -1.3890   -2.9010 ca        1 5HK     -0.190000
      9 C20         1.6140    1.0000   -3.1370 ca        1 5HK     -0.155000
     10 C21         0.5530    1.0520   -4.0350 ca        1 5HK     -0.064000
     11 C22        -0.1640   -0.1060   -4.3760 ca        1 5HK      0.081600
     12 C13         0.2370   -1.3640   -3.8240 ca        1 5HK      0.069600
     13 N2         -0.4410   -2.5440   -4.1210 n         1 5HK     -0.483100
     14 C12        -0.9440   -2.9590   -5.3650 c         1 5HK      0.713100
     15 O4         -1.3800   -4.1230   -5.4020 o         1 5HK     -0.582500
     16 N4         -1.2750    0.0220   -5.2630 na        1 5HK     -0.590000
     17 C23        -1.1010   -0.6820   -6.4980 ca        1 5HK      0.105600
     18 C11        -0.9370   -2.0830   -6.5580 ca        1 5HK     -0.166600
     19 C10        -0.8090   -2.7150   -7.8020 ca        1 5HK     -0.063000
     20 C9         -0.8210   -1.9710   -8.9780 ca        1 5HK     -0.117000
     21 C24        -1.1180    0.0600   -7.6910 ca        1 5HK     -0.094000
     22 C8         -0.9760   -0.5800   -8.9290 cp        1 5HK     -0.008000
     23 C4         -0.9980    0.2090  -10.1630 cp        1 5HK      0.020000
     24 C5         -0.0990   -0.0790  -11.1920 ca        1 5HK     -0.212000
     25 C6         -0.1070    0.6800  -12.3740 ca        1 5HK      0.198100
     26 O3          0.7450    0.4690  -13.4240 os        1 5HK     -0.277900
     27 C7          1.6640   -0.6160  -13.3050 c3        1 5HK      0.105700
     28 C3         -1.9200    1.2560  -10.3110 ca        1 5HK     -0.167000
     29 C2         -1.9430    2.0120  -11.4750 ca        1 5HK     -0.034000
     30 C1         -1.0390    1.7400  -12.5150 ca        1 5HK     -0.207200
     31 N1         -1.0840    2.5750  -13.7430 no        1 5HK      0.324200
     32 O1         -1.8800    3.4780  -13.7850 o         1 5HK     -0.194000
     33 O2         -0.3370    2.3370  -14.6480 o         1 5HK     -0.194000
     34 H191        1.3600    1.9300    1.0830 hx        1 5HK      0.108367
     35 H193        0.8140    1.8100   -0.6710 hx        1 5HK      0.108367
     36 H192       -0.2830    1.2200    0.6800 hx        1 5HK      0.108367
     37 H182        1.7200   -1.7990    1.3880 hx        1 5HK      0.108367
     38 H181        0.2350   -0.8210    1.8480 hx        1 5HK      0.108367
     39 H183        1.9100   -0.2210    2.3010 hx        1 5HK      0.108367
     40 H9          3.5910   -1.3180   -1.6130 hc        1 5HK      0.129700
     41 H8          3.9670    0.4160   -1.9960 hc        1 5HK      0.129700
     42 H7          1.6410   -2.3510   -2.4780 ha        1 5HK      0.142000
     43 H10         2.1740    1.9200   -2.9060 ha        1 5HK      0.148000
     44 H11         0.2690    2.0200   -4.4870 ha        1 5HK      0.175000
     45 H6         -0.3460   -3.2830   -3.4510 hn        1 5HK      0.328500
     46 H12        -2.1230   -0.2790   -4.8090 hn        1 5HK      0.400800
     47 H5         -0.7130   -3.8140   -7.8400 ha        1 5HK      0.168000
     48 H4         -0.7260   -2.4820   -9.9490 ha        1 5HK      0.158000
     49 H13        -1.2440    1.1560   -7.6570 ha        1 5HK      0.163000
     50 H3          0.6240   -0.8990  -11.0700 ha        1 5HK      0.153000
     51 H71         2.3620   -0.4490  -12.4500 h1        1 5HK      0.056367
     52 H72         1.1190   -1.5850  -13.1930 h1        1 5HK      0.056367
     53 H73         2.2150   -0.5810  -14.2810 h1        1 5HK      0.056367
     54 H2         -2.6400    1.4740   -9.5070 ha        1 5HK      0.151000
     55 H1         -2.6740    2.8340  -11.5900 ha        1 5HK      0.181000
     56 H31         0.8880   -0.5660   -0.4890 hn        1 5HK      0.464800
@<TRIPOS>BOND
     1    1    2 2   
     2    2    3 1   
     3    2    6 1   
     4    3    4 1   
     5    3    5 1   
     6    3   56 1   
     7    4   34 1   
     8    4   35 1   
     9    4   36 1   
    10    5   37 1   
    11    5   38 1   
    12    5   39 1   
    13    6    7 1   
    14    6   40 1   
    15    6   41 1   
    16    7    8 ar  
    17    7    9 ar  
    18    8   12 ar  
    19    8   42 1   
    20    9   10 ar  
    21    9   43 1   
    22   10   11 ar  
    23   10   44 1   
    24   11   12 ar  
    25   11   16 1   
    26   12   13 1   
    27   13   14 1   
    28   13   45 1   
    29   14   15 2   
    30   14   18 1   
    31   16   17 1   
    32   16   46 1   
    33   17   18 ar  
    34   17   21 ar  
    35   18   19 ar  
    36   19   20 ar  
    37   19   47 1   
    38   20   22 ar  
    39   20   48 1   
    40   21   22 ar  
    41   21   49 1   
    42   22   23 1   
    43   23   24 ar  
    44   23   28 ar  
    45   24   25 ar  
    46   24   50 1   
    47   25   26 1   
    48   25   30 ar  
    49   26   27 1   
    50   27   51 1   
    51   27   52 1   
    52   27   53 1   
    53   28   29 ar  
    54   28   54 1   
    55   29   30 ar  
    56   29   55 1   
    57   30   31 1   
    58   31   32 1   
    59   31   33 1   
@<TRIPOS>SUBSTRUCTURE
     1 5HK         1 TEMP              0 ****  ****    0 ROOT
