@<TRIPOS>MOLECULE
5HK
   55    58     1     0     0
SMALL
bcc


@<TRIPOS>ATOM
      1 O5          7.3380   -1.1220   -1.7120 o         1 5HK     -0.613100
      2 C17         7.0300    0.0730   -1.5200 c         1 5HK      0.663100
      3 N3          7.8080    0.8840   -0.7120 n         1 5HK     -0.474800
      4 C19         9.0240    0.3900   -0.1280 c3        1 5HK      0.078800
      5 C18         7.4790    2.2590   -0.4800 c3        1 5HK      0.078800
      6 C16         5.7840    0.6500   -2.1790 c3        1 5HK     -0.106100
      7 C15         4.6130    0.6050   -1.2620 ca        1 5HK     -0.068300
      8 C14         4.2460   -0.6030   -0.6710 ca        1 5HK     -0.148000
      9 C20         3.8570    1.7540   -1.0150 ca        1 5HK     -0.132000
     10 C21         2.7420    1.6890   -0.1900 ca        1 5HK     -0.144000
     11 C22         2.3590    0.4830    0.4320 ca        1 5HK      0.078600
     12 C13         3.1270   -0.6930    0.1860 ca        1 5HK      0.076600
     13 N2          2.8590   -1.9250    0.7940 n         1 5HK     -0.464100
     14 C12         1.6430   -2.4620    1.1800 c         1 5HK      0.727100
     15 O4          1.6730   -3.5930    1.7100 o         1 5HK     -0.631500
     16 N4          1.2720    0.4700    1.3460 na        1 5HK     -0.587000
     17 C23         0.1810   -0.3760    1.0330 ca        1 5HK      0.157600
     18 C11         0.3500   -1.7740    0.9410 ca        1 5HK     -0.138600
     19 C10        -0.7590   -2.5940    0.6950 ca        1 5HK     -0.057000
     20 C9         -2.0290   -2.0530    0.5380 ca        1 5HK     -0.145000
     21 C24        -1.1190    0.1610    0.8940 ca        1 5HK     -0.172000
     22 C8         -2.2160   -0.6680    0.6490 cp        1 5HK     -0.009000
     23 C4         -3.5530   -0.0890    0.5060 cp        1 5HK      0.040000
     24 C5         -4.4040   -0.5410   -0.5050 ca        1 5HK     -0.215000
     25 C6         -5.6860    0.0120   -0.6530 ca        1 5HK      0.196100
     26 O3         -6.5750   -0.3730   -1.6230 os        1 5HK     -0.283900
     27 C7         -6.1480   -1.3980   -2.5190 c3        1 5HK      0.105700
     28 C3         -3.9830    0.9210    1.3810 ca        1 5HK     -0.170000
     29 C2         -5.2490    1.4730    1.2500 ca        1 5HK     -0.036000
     30 C1         -6.1150    1.0320    0.2340 ca        1 5HK     -0.215200
     31 N1         -7.4580    1.6470    0.1180 no        1 5HK      0.325200
     32 O1         -7.7510    2.5260    0.8890 o         1 5HK     -0.204000
     33 O2         -8.2180    1.2650   -0.7280 o         1 5HK     -0.204000
     34 H191        9.1970   -0.6770   -0.4320 h1        1 5HK      0.044200
     35 H193        9.8940    1.0140   -0.4680 h1        1 5HK      0.044200
     36 H192        8.9590    0.4440    0.9920 h1        1 5HK      0.044200
     37 H182        6.3720    2.3790   -0.3240 h1        1 5HK      0.044200
     38 H181        8.0100    2.6270    0.4380 h1        1 5HK      0.044200
     39 H183        7.7910    2.8970   -1.3520 h1        1 5HK      0.044200
     40 H9          5.9730    1.6950   -2.5390 hc        1 5HK      0.079200
     41 H8          5.5690    0.0130   -3.0820 hc        1 5HK      0.079200
     42 H7          4.8630   -1.4970   -0.8780 ha        1 5HK      0.164000
     43 H10         4.1380    2.7120   -1.4770 ha        1 5HK      0.137000
     44 H11         2.1590    2.6070   -0.0120 ha        1 5HK      0.135000
     45 H6          3.6550   -2.5150    0.9390 hn        1 5HK      0.335500
     46 H12         0.9690    1.4010    1.5690 hn        1 5HK      0.399800
     47 H5         -0.6090   -3.6870    0.6470 ha        1 5HK      0.165000
     48 H4         -2.8890   -2.7120    0.3490 ha        1 5HK      0.145000
     49 H13        -1.2790    1.2480    0.9760 ha        1 5HK      0.141000
     50 H3         -4.0590   -1.3300   -1.1900 ha        1 5HK      0.155000
     51 H71        -5.2520   -1.0680   -3.0980 h1        1 5HK      0.054367
     52 H72        -5.9370   -2.3440   -1.9640 h1        1 5HK      0.054367
     53 H73        -7.0340   -1.5220   -3.1930 h1        1 5HK      0.054367
     54 H2         -3.3170    1.2680    2.1860 ha        1 5HK      0.152000
     55 H1         -5.5850    2.2650    1.9440 ha        1 5HK      0.175000
@<TRIPOS>BOND
     1    1    2 2   
     2    2    3 1   
     3    2    6 1   
     4    3    4 1   
     5    3    5 1   
     6    4   34 1   
     7    4   35 1   
     8    4   36 1   
     9    5   37 1   
    10    5   38 1   
    11    5   39 1   
    12    6    7 1   
    13    6   40 1   
    14    6   41 1   
    15    7    8 ar  
    16    7    9 ar  
    17    8   12 ar  
    18    8   42 1   
    19    9   10 ar  
    20    9   43 1   
    21   10   11 ar  
    22   10   44 1   
    23   11   12 ar  
    24   11   16 1   
    25   12   13 1   
    26   13   14 1   
    27   13   45 1   
    28   14   15 2   
    29   14   18 1   
    30   16   17 1   
    31   16   46 1   
    32   17   18 ar  
    33   17   21 ar  
    34   18   19 ar  
    35   19   20 ar  
    36   19   47 1   
    37   20   22 ar  
    38   20   48 1   
    39   21   22 ar  
    40   21   49 1   
    41   22   23 1   
    42   23   24 ar  
    43   23   28 ar  
    44   24   25 ar  
    45   24   50 1   
    46   25   26 1   
    47   25   30 ar  
    48   26   27 1   
    49   27   51 1   
    50   27   52 1   
    51   27   53 1   
    52   28   29 ar  
    53   28   54 1   
    54   29   30 ar  
    55   29   55 1   
    56   30   31 1   
    57   31   32 1   
    58   31   33 1   
@<TRIPOS>SUBSTRUCTURE
     1 5HK         1 TEMP              0 ****  ****    0 ROOT
