@<TRIPOS>MOLECULE
5HN
   14    14     1     0     0
SMALL
bcc


@<TRIPOS>ATOM
      1 OAA         0.1040   -0.0820    0.0130 o         1 5HN     -0.825300
      2 CAH         1.3630    0.0040    0.0320 c         1 5HN      0.912200
      3 OAB         2.0620    0.0800    1.0820 o         1 5HN     -0.825300
      4 CAJ         2.0940    0.0150   -1.3010 ca        1 5HN     -0.198900
      5 CAF         3.4850    0.1070   -1.3550 ca        1 5HN     -0.154000
      6 CAI         4.1040    0.1130   -2.6130 ca        1 5HN     -0.034200
      7 OAC         5.4720    0.2000   -2.7820 oh        1 5HN     -0.518100
      8 CAD         3.3130    0.0280   -3.7800 ca        1 5HN      0.338200
      9 NAG         1.9700   -0.0610   -3.7330 nb        1 5HN     -0.682000
     10 CAE         1.3850   -0.0670   -2.5210 ca        1 5HN      0.375200
     11 H2          4.0570    0.1720   -0.4170 ha        1 5HN      0.157000
     12 H3          5.8620    0.2510   -1.8980 ho        1 5HN      0.409000
     13 H4          3.7820    0.0310   -4.7750 h4        1 5HN      0.006100
     14 H5          0.2820   -0.1400   -2.4920 h4        1 5HN      0.040100
@<TRIPOS>BOND
     1    1    2 1   
     2    2    3 1   
     3    2    4 1   
     4    4    5 ar  
     5    4   10 ar  
     6    5    6 ar  
     7    5   11 1   
     8    6    7 1   
     9    6    8 ar  
    10    7   12 1   
    11    8    9 ar  
    12    8   13 1   
    13    9   10 ar  
    14   10   14 1   
@<TRIPOS>SUBSTRUCTURE
     1 5HN         1 TEMP              0 ****  ****    0 ROOT
