@<TRIPOS>MOLECULE
5HN
   14    14     1     0     0
SMALL
bcc


@<TRIPOS>ATOM
      1 OAA         2.8470   -0.5250    0.0530 o         1 5HN     -0.825300
      2 CAH         1.9530    0.3610   -0.0320 c         1 5HN      0.912200
      3 OAB         2.1760    1.6020   -0.1190 o         1 5HN     -0.825300
      4 CAJ         0.5010   -0.0930   -0.0300 ca        1 5HN     -0.198900
      5 CAF        -0.5380    0.8320   -0.1210 ca        1 5HN     -0.154000
      6 CAI        -1.8570    0.3540   -0.1150 ca        1 5HN     -0.034200
      7 OAC        -2.9610    1.1800   -0.2000 oh        1 5HN     -0.518100
      8 CAD        -2.0950   -1.0340   -0.0170 ca        1 5HN      0.338200
      9 NAG        -1.0940   -1.9310    0.0710 nb        1 5HN     -0.682000
     10 CAE         0.1680   -1.4630    0.0640 ca        1 5HN      0.375200
     11 H2         -0.3010    1.9040   -0.1950 ha        1 5HN      0.157000
     12 H3         -2.6290    2.0870   -0.2600 ho        1 5HN      0.409000
     13 H4         -3.1230   -1.4270   -0.0100 h4        1 5HN      0.006100
     14 H5          0.9840   -2.2060    0.1370 h4        1 5HN      0.040100
@<TRIPOS>BOND
     1    1    2 1   
     2    2    3 1   
     3    2    4 1   
     4    4    5 ar  
     5    4   10 ar  
     6    5    6 ar  
     7    5   11 1   
     8    6    7 1   
     9    6    8 ar  
    10    7   12 1   
    11    8    9 ar  
    12    8   13 1   
    13    9   10 ar  
    14   10   14 1   
@<TRIPOS>SUBSTRUCTURE
     1 5HN         1 TEMP              0 ****  ****    0 ROOT
