@<TRIPOS>MOLECULE
5HN
   14    12     1     0     0
SMALL
bcc


@<TRIPOS>ATOM
      1 OAA        -1.7760    0.9580    2.4160 o         1 5HN     -0.560000
      2 CAH        -1.5550   -0.0510    1.8400 c2        1 5HN      0.361000
      3 OAB        -1.8890   -1.1200    2.3320 o         1 5HN     -0.560000
      4 CAJ        -0.7520   -0.0290    0.5610 c2        1 5HN     -0.113000
      5 CAF         0.5600   -0.0580    0.6050 c1        1 5HN     -0.154000
      6 CAI         1.2890   -0.0880   -0.5730 c1        1 5HN     -0.014000
      7 OAC         2.7540   -0.1250   -0.5320 oh        1 5HN     -0.272000
      8 CAD         0.6350   -0.0850   -1.7920 c1        1 5HN     -0.127000
      9 NAG        -0.7000   -0.0550   -1.8350 n1        1 5HN     -0.156000
     10 CAE        -1.4150   -0.0260   -0.6850 c2        1 5HN     -0.090000
     11 H2          1.0420    0.0330    1.5040 ha        1 5HN      0.157000
     12 H3          3.0980    0.7620   -0.4800 ho        1 5HN      0.208000
     13 H4          1.1600   -0.1100   -2.6410 ha        1 5HN      0.143000
     14 H5         -2.4500   -0.0060   -0.7190 h4        1 5HN      0.177000
@<TRIPOS>BOND
     1    1    2 1   
     2    2    3 1   
     3    2    4 1   
     4    4    5 1   
     5    4   10 1   
     6    5   11 1   
     7    6    7 1   
     8    6    8 1   
     9    7   12 1   
    10    8   13 1   
    11    9   10 1   
    12   10   14 1   
@<TRIPOS>SUBSTRUCTURE
     1 5HN         1 TEMP              0 ****  ****    0 ROOT
