@<TRIPOS>MOLECULE
5HP
   15    15     1     0     0
SMALL
bcc


@<TRIPOS>ATOM
      1 N           0.6700    0.7350   -0.6960 n         1 5HP     -0.503900
      2 CA         -0.2750    0.5980    0.4150 c3        1 5HP     -0.070300
      3 C           0.3000   -0.1630    1.6530 c         1 5HP      0.906600
      4 O           1.5550   -0.2300    1.7700 o         1 5HP     -0.830300
      5 CB         -1.5410   -0.0880   -0.1480 c3        1 5HP     -0.080400
      6 CG         -1.2370   -0.3990   -1.6100 c3        1 5HP     -0.168400
      7 CD          0.2050    0.0600   -1.8220 c         1 5HP      0.671500
      8 OD          0.8440   -0.0890   -2.8820 o         1 5HP     -0.682500
      9 OXT        -0.5330   -0.6380    2.4690 o         1 5HP     -0.830300
     10 H           1.6330    0.6550   -0.4430 hn        1 5HP      0.323500
     11 HA         -0.5270    1.6370    0.7650 h1        1 5HP      0.047700
     12 HB1        -1.7550   -1.0130    0.4420 hc        1 5HP      0.053700
     13 HB2        -2.4220    0.5910   -0.0580 hc        1 5HP      0.053700
     14 HG1        -1.3040   -1.4920   -1.8290 hc        1 5HP      0.054200
     15 HG2        -1.9140    0.1450   -2.3090 hc        1 5HP      0.054200
@<TRIPOS>BOND
     1    1    2 1   
     2    1    7 1   
     3    1   10 1   
     4    2    3 1   
     5    2    5 1   
     6    2   11 1   
     7    3    4 1   
     8    3    9 1   
     9    5    6 1   
    10    5   12 1   
    11    5   13 1   
    12    6    7 1   
    13    6   14 1   
    14    6   15 1   
    15    7    8 2   
@<TRIPOS>SUBSTRUCTURE
     1 5HP         1 TEMP              0 ****  ****    0 ROOT
