@<TRIPOS>MOLECULE
5HR
   30    30     1     0     0
SMALL
bcc


@<TRIPOS>ATOM
      1 N1         -0.0170   -0.8200   -0.1090 n7        1 5HR     -0.865200
      2 C20        -2.1660   -0.0520   -1.0250 ca        1 5HR     -0.089300
      3 C21        -2.5290   -1.1150   -1.8590 ca        1 5HR     -0.124000
      4 C22        -3.8740   -1.3840   -2.1070 ca        1 5HR     -0.126500
      5 C24        -4.5060    0.4710   -0.6960 ca        1 5HR     -0.126500
      6 O10         1.1470    2.2310    1.0580 oh        1 5HR     -0.811400
      7 P4          2.4660    1.4330    1.6010 p5        1 5HR      1.305600
      8 O8          3.4680    1.5710    0.5420 o         1 5HR     -0.805000
      9 O9          2.5270    1.6450    3.0650 o         1 5HR     -0.805000
     10 C3          1.7480   -0.2160    1.5610 c3        1 5HR     -0.097700
     11 N6          0.6410   -0.1640    2.5280 nz        1 5HR     -0.791600
     12 C2          1.3920   -0.5670    0.1140 c3        1 5HR      0.172800
     13 C1         -0.7200    0.2610   -0.7790 c3        1 5HR      0.196100
     14 C25        -3.1610    0.7390   -0.4430 ca        1 5HR     -0.124000
     15 C23        -4.8640   -0.5920   -1.5250 ca        1 5HR     -0.126000
     16 H11         1.3080    2.7890    0.3050 ho        1 5HR      0.456000
     17 H211       -1.7520   -1.7350   -2.3300 ha        1 5HR      0.131500
     18 H221       -4.1540   -2.2200   -2.7640 ha        1 5HR      0.134500
     19 H241       -5.2850    1.1000   -0.2400 ha        1 5HR      0.134500
     20 H31         2.5090   -0.9500    1.9360 hx        1 5HR      0.103700
     21 H62         1.0380    0.2460    3.4000 hn        1 5HR      0.457467
     22 H61         0.2210   -1.0750    2.6910 hn        1 5HR      0.457467
     23 H22         1.9800   -1.4880   -0.1720 h1        1 5HR      0.067200
     24 H21         1.7830    0.2820   -0.5290 h1        1 5HR      0.067200
     25 H12        -0.2460    0.5150   -1.7750 h1        1 5HR      0.056200
     26 H13        -0.6270    1.1810   -0.1280 h1        1 5HR      0.056200
     27 H251       -2.8840    1.5810    0.2090 ha        1 5HR      0.131500
     28 H231       -5.9250   -0.8030   -1.7230 ha        1 5HR      0.134000
     29 H121       -0.1560   -1.6860   -0.5930 hn        1 5HR      0.374800
     30 H63        -0.0650    0.4840    2.1590 hn        1 5HR      0.457467
@<TRIPOS>BOND
     1    1   12 1   
     2    1   13 1   
     3    1   29 1   
     4    2    3 ar  
     5    2   13 1   
     6    2   14 ar  
     7    3    4 ar  
     8    3   17 1   
     9    4   15 ar  
    10    4   18 1   
    11    5   14 ar  
    12    5   15 ar  
    13    5   19 1   
    14    6    7 1   
    15    6   16 1   
    16    7    8 1   
    17    7    9 1   
    18    7   10 1   
    19   10   11 1   
    20   10   12 1   
    21   10   20 1   
    22   11   21 1   
    23   11   22 1   
    24   11   30 1   
    25   12   23 1   
    26   12   24 1   
    27   13   25 1   
    28   13   26 1   
    29   14   27 1   
    30   15   28 1   
@<TRIPOS>SUBSTRUCTURE
     1 5HR         1 TEMP              0 ****  ****    0 ROOT
