@<TRIPOS>MOLECULE
5HR
   30    30     1     0     0
SMALL
bcc


@<TRIPOS>ATOM
      1 N1         -0.0080   -0.8050   -0.1350 n3        1 5HR     -0.865200
      2 C20        -2.1620   -0.0280   -1.0310 ca        1 5HR     -0.089300
      3 C21        -2.5090   -1.0620   -1.9060 ca        1 5HR     -0.124000
      4 C22        -3.8500   -1.3370   -2.1700 ca        1 5HR     -0.126500
      5 C24        -4.5090    0.4550   -0.6920 ca        1 5HR     -0.126500
      6 O10         1.1210    2.2140    1.1450 oh        1 5HR     -0.811400
      7 P4          2.4470    1.4110    1.6620 p5        1 5HR      1.305600
      8 O8          3.4500    1.5990    0.6120 o         1 5HR     -0.805000
      9 O9          2.5020    1.5710    3.1330 o         1 5HR     -0.805000
     10 C3          1.7470   -0.2430    1.5600 c3        1 5HR     -0.097700
     11 N6          0.6370   -0.2380    2.5260 n4        1 5HR     -0.791600
     12 C2          1.3980   -0.5450    0.1020 c3        1 5HR      0.172800
     13 C1         -0.7200    0.2920   -0.7670 c3        1 5HR      0.196100
     14 C25        -3.1680    0.7300   -0.4230 ca        1 5HR     -0.124000
     15 C23        -4.8510   -0.5790   -1.5620 ca        1 5HR     -0.126000
     16 H11         1.2770    2.8000    0.4120 ho        1 5HR      0.456000
     17 H211       -1.7230   -1.6550   -2.3970 ha        1 5HR      0.131500
     18 H221       -4.1180   -2.1510   -2.8600 ha        1 5HR      0.134500
     19 H241       -5.2970    1.0570   -0.2160 ha        1 5HR      0.134500
     20 H31         2.5150   -0.9820    1.9110 hx        1 5HR      0.103700
     21 H62        -0.0750    0.4150    2.1780 hn        1 5HR      0.457467
     22 H61         1.0280    0.1450    3.4140 hn        1 5HR      0.457467
     23 H22         1.9960   -1.4500   -0.2160 h1        1 5HR      0.067200
     24 H21         1.7810    0.3300   -0.5090 h1        1 5HR      0.067200
     25 H12        -0.2450    0.5880   -1.7520 h1        1 5HR      0.055700
     26 H13        -0.6400    1.1880   -0.0830 h1        1 5HR      0.055700
     27 H251       -2.9030    1.5490    0.2620 ha        1 5HR      0.131500
     28 H231       -5.9090   -0.7950   -1.7720 ha        1 5HR      0.134000
     29 H121       -0.1360   -1.6540   -0.6500 hn        1 5HR      0.374800
     30 H63         0.2270   -1.1580    2.6550 hn        1 5HR      0.457467
@<TRIPOS>BOND
     1    1   12 1   
     2    1   13 1   
     3    1   29 1   
     4    2    3 ar  
     5    2   13 1   
     6    2   14 ar  
     7    3    4 ar  
     8    3   17 1   
     9    4   15 ar  
    10    4   18 1   
    11    5   14 ar  
    12    5   15 ar  
    13    5   19 1   
    14    6    7 1   
    15    6   16 1   
    16    7    8 1   
    17    7    9 1   
    18    7   10 1   
    19   10   11 1   
    20   10   12 1   
    21   10   20 1   
    22   11   21 1   
    23   11   22 1   
    24   11   30 1   
    25   12   23 1   
    26   12   24 1   
    27   13   25 1   
    28   13   26 1   
    29   14   27 1   
    30   15   28 1   
@<TRIPOS>SUBSTRUCTURE
     1 5HR         1 TEMP              0 ****  ****    0 ROOT
