@<TRIPOS>MOLECULE
5HT
   34    35     1     0     0
SMALL
bcc


@<TRIPOS>ATOM
      1 O5'         2.2670    0.7470   -3.0780 oh        1 5HT     -0.594800
      2 C5'         0.8680    0.9080   -2.9890 c3        1 5HT      0.116400
      3 C4'         0.1600   -0.4410   -2.8720 c3        1 5HT      0.100100
      4 O4'         0.5990   -1.0920   -1.6700 os        1 5HT     -0.446600
      5 C3'        -1.3700   -0.2870   -2.8000 c3        1 5HT      0.123100
      6 O3'        -1.9120   -0.9290   -3.9410 oh        1 5HT     -0.591800
      7 C2'        -1.7960   -0.9820   -1.5020 c3        1 5HT     -0.133400
      8 C1'        -0.4890   -1.2780   -0.7450 c3        1 5HT      0.305500
      9 N1         -0.2820   -0.5230    0.4890 n         1 5HT     -0.453800
     10 C2         -0.4820    0.8760    0.5020 c         1 5HT      0.806500
     11 O2         -1.0830    1.4950   -0.4040 o         1 5HT     -0.654500
     12 N3         -0.0590    1.6220    1.6250 n         1 5HT     -0.586500
     13 C4          0.5590    1.0660    2.7340 c         1 5HT      0.676500
     14 O4          0.9500    1.7820    3.6700 o         1 5HT     -0.607500
     15 C5          0.7340   -0.4600    2.7760 c3        1 5HT      0.091800
     16 C5M        -0.3700   -1.0550    3.6370 c3        1 5HT     -0.124100
     17 O5          2.0120   -0.7610    3.3140 oh        1 5HT     -0.580800
     18 C6          0.7490   -1.0650    1.3550 c3        1 5HT      0.078000
     19 HO5'        2.5410    0.2150   -2.3190 ho        1 5HT      0.408000
     20 H5'         0.5690    1.4140   -3.9450 h1        1 5HT      0.060700
     21 H5''        0.6040    1.5580   -2.1110 h1        1 5HT      0.060700
     22 H4'         0.4650   -1.1220   -3.7140 h1        1 5HT      0.099700
     23 H3'        -1.6640    0.7980   -2.7820 h1        1 5HT      0.074700
     24 HO3'       -2.8560   -0.7310   -3.9480 ho        1 5HT      0.407000
     25 H2'        -2.3080   -1.9500   -1.7300 hc        1 5HT      0.078700
     26 H2''       -2.4950   -0.3380   -0.9150 hc        1 5HT      0.078700
     27 H1'        -0.4330   -2.3710   -0.4530 h2        1 5HT      0.086700
     28 H3         -0.2270    2.6070    1.5940 hn        1 5HT      0.352500
     29 H71        -0.3910   -0.5510    4.6340 hc        1 5HT      0.060700
     30 H72        -1.3610   -0.9280    3.1430 hc        1 5HT      0.060700
     31 H73        -0.1730   -2.1440    3.7910 hc        1 5HT      0.060700
     32 HO5         2.0860   -0.2820    4.1540 ho        1 5HT      0.433000
     33 H61         1.7740   -0.9050    0.9100 h1        1 5HT      0.076700
     34 H62         0.5830   -2.1750    1.4520 h1        1 5HT      0.076700
@<TRIPOS>BOND
     1    1    2 1   
     2    1   19 1   
     3    2    3 1   
     4    2   20 1   
     5    2   21 1   
     6    3    4 1   
     7    3    5 1   
     8    3   22 1   
     9    4    8 1   
    10    5    6 1   
    11    5    7 1   
    12    5   23 1   
    13    6   24 1   
    14    7    8 1   
    15    7   25 1   
    16    7   26 1   
    17    8    9 1   
    18    8   27 1   
    19    9   10 1   
    20    9   18 1   
    21   10   11 2   
    22   10   12 1   
    23   12   13 1   
    24   12   28 1   
    25   13   14 2   
    26   13   15 1   
    27   15   16 1   
    28   15   17 1   
    29   15   18 1   
    30   16   29 1   
    31   16   30 1   
    32   16   31 1   
    33   17   32 1   
    34   18   33 1   
    35   18   34 1   
@<TRIPOS>SUBSTRUCTURE
     1 5HT         1 TEMP              0 ****  ****    0 ROOT
