@<TRIPOS>MOLECULE
5HT
   34    35     1     0     0
SMALL
bcc


@<TRIPOS>ATOM
      1 O5'        -3.6830   -0.1420    0.4690 oh        1 5HT     -0.610800
      2 C5'        -2.2730   -0.1420    0.4690 c3        1 5HT      0.107400
      3 C4'        -1.7690   -0.1420    1.8950 c3        1 5HT      0.106100
      4 O4'        -0.2810   -0.7620    1.9560 os        1 5HT     -0.437600
      5 C3'        -1.6770    1.0680    2.3320 c3        1 5HT      0.130100
      6 O3'        -1.9210    1.1060    3.7940 oh        1 5HT     -0.597800
      7 C2'        -0.2050    1.5020    2.0160 c3        1 5HT     -0.097400
      8 C1'         0.5300    0.2050    1.6210 c3        1 5HT      0.303500
      9 N1          0.7760    0.1830    0.2060 n         1 5HT     -0.448800
     10 C2          0.8810    1.4200   -0.5230 c         1 5HT      0.810500
     11 O2          0.8890    2.4760    0.0760 o         1 5HT     -0.656500
     12 N3          1.0800    1.4010   -1.9380 n         1 5HT     -0.584500
     13 C4          1.6990    0.2900   -2.5480 c         1 5HT      0.677500
     14 O4          2.1680    0.3920   -3.6630 o         1 5HT     -0.609500
     15 C5          1.8080   -1.0340   -1.7900 c3        1 5HT      0.090800
     16 C5M         1.3500   -2.2260   -2.7210 c3        1 5HT     -0.126100
     17 O5          3.1600   -1.3690   -1.5830 oh        1 5HT     -0.577800
     18 C6          1.0610   -1.0570   -0.4480 c3        1 5HT      0.087000
     19 HO5'       -3.9790   -0.4120   -0.3230 ho        1 5HT      0.408000
     20 H5'        -1.9480    0.6550    0.0090 h1        1 5HT      0.045700
     21 H5''       -1.9480   -0.9390    0.0090 h1        1 5HT      0.045700
     22 H4'        -2.3710   -0.6590    2.4640 h1        1 5HT      0.083700
     23 H3'        -2.3100    1.6470    1.8660 h1        1 5HT      0.076700
     24 HO3'       -2.4470    1.7940    3.9880 ho        1 5HT      0.415000
     25 H2'         0.2080    1.8970    2.8080 hc        1 5HT      0.085700
     26 H2''       -0.1920    2.1370    1.2750 hc        1 5HT      0.085700
     27 H1'         1.3700    0.1290    2.1130 h2        1 5HT      0.086700
     28 H3          0.8030    2.1050   -2.4470 hn        1 5HT      0.349500
     29 H71         0.4290   -2.0790   -3.0090 hc        1 5HT      0.062033
     30 H72         1.9320   -2.2710   -3.5040 hc        1 5HT      0.062033
     31 H73         1.4060   -3.0660   -2.2260 hc        1 5HT      0.062033
     32 HO5         3.6570   -0.9970   -2.2180 ho        1 5HT      0.422000
     33 H61         1.5870   -1.5990    0.1710 h1        1 5HT      0.072700
     34 H62         0.2110   -1.5130   -0.5940 h1        1 5HT      0.072700
@<TRIPOS>BOND
     1    1    2 1   
     2    1   19 1   
     3    2    3 1   
     4    2   20 1   
     5    2   21 1   
     6    3    4 1   
     7    3    5 1   
     8    3   22 1   
     9    4    8 1   
    10    5    6 1   
    11    5    7 1   
    12    5   23 1   
    13    6   24 1   
    14    7    8 1   
    15    7   25 1   
    16    7   26 1   
    17    8    9 1   
    18    8   27 1   
    19    9   10 1   
    20    9   18 1   
    21   10   11 2   
    22   10   12 1   
    23   12   13 1   
    24   12   28 1   
    25   13   14 2   
    26   13   15 1   
    27   15   16 1   
    28   15   17 1   
    29   15   18 1   
    30   16   29 1   
    31   16   30 1   
    32   16   31 1   
    33   17   32 1   
    34   18   33 1   
    35   18   34 1   
@<TRIPOS>SUBSTRUCTURE
     1 5HT         1 TEMP              0 ****  ****    0 ROOT
