@<TRIPOS>MOLECULE
5HU
   35    36     1     0     0
SMALL
bcc


@<TRIPOS>ATOM
      1 P          -1.9590    1.1840   -1.4250 p5        1 5HU      1.350900
      2 OP1        -0.5500    1.4130   -0.8940 o         1 5HU     -0.926167
      3 OP2        -2.4560    2.1260   -2.4690 o         1 5HU     -0.926167
      4 OP3        -2.8810    0.7070   -0.3300 o         1 5HU     -0.926167
      5 O5'        -1.7600   -0.3330   -2.2320 os        1 5HU     -0.569200
      6 C5'        -0.5900   -1.0160   -2.0500 c3        1 5HU      0.222400
      7 C4'        -0.6750   -2.0720   -0.9230 c3        1 5HU      0.062100
      8 O4'         0.6540   -2.6080   -0.7000 os        1 5HU     -0.437600
      9 C3'        -1.1800   -1.5250    0.4300 c3        1 5HU      0.109100
     10 O3'        -2.4800   -1.9840    0.7220 oh        1 5HU     -0.652800
     11 C2'        -0.1850   -2.0440    1.4680 c3        1 5HU     -0.120400
     12 C1'         1.0740   -2.3820    0.6420 c3        1 5HU      0.303500
     13 N1          2.1100   -1.3340    0.7130 n         1 5HU     -0.369000
     14 C2          3.4180   -1.7150    1.0790 c         1 5HU      0.797500
     15 O2          3.7260   -2.8940    1.3940 o         1 5HU     -0.712500
     16 N3          4.4150   -0.7280    1.1360 n         1 5HU     -0.598500
     17 C4          4.1770    0.6270    0.8170 c         1 5HU      0.726700
     18 O4          5.1430    1.4100    0.9340 o         1 5HU     -0.685500
     19 C5          2.8180    0.9530    0.4030 cc        1 5HU     -0.340400
     20 C5A         2.4980    2.3640    0.0180 c3        1 5HU      0.230600
     21 C6          1.8540   -0.0190    0.3530 cd        1 5HU      0.071600
     22 O5B         2.1120    2.4880   -1.3270 oh        1 5HU     -0.652800
     23 H5'         0.2680   -0.3190   -1.8350 h1        1 5HU      0.000700
     24 H5''       -0.3520   -1.5870   -2.9970 h1        1 5HU      0.000700
     25 HC4'       -1.2990   -2.9450   -1.2490 h1        1 5HU      0.047700
     26 HC3'       -1.1860   -0.3860    0.3880 h1        1 5HU      0.147700
     27 HO3'       -3.0720   -1.2630    0.4150 ho        1 5HU      0.479000
     28 H2'        -0.5640   -2.9780    1.9500 hc        1 5HU      0.052200
     29 H2''        0.0010   -1.2840    2.2610 hc        1 5HU      0.052200
     30 HC1'        1.5600   -3.3470    0.9740 h2        1 5HU      0.086700
     31 HN3         5.3280   -1.0230    1.3940 hn        1 5HU      0.321500
     32 H5A1        3.4190    3.0010    0.1270 h1        1 5HU      0.035200
     33 H5A2        1.6850    2.7480    0.6950 h1        1 5HU      0.035200
     34 HC6         0.8020    0.2480    0.0120 h4        1 5HU      0.295000
     35 HO5B        1.1950    2.1440   -1.4070 ho        1 5HU      0.490000
@<TRIPOS>BOND
     1    1    2 1   
     2    1    3 1   
     3    1    4 1   
     4    1    5 1   
     5    5    6 1   
     6    6    7 1   
     7    6   23 1   
     8    6   24 1   
     9    7    8 1   
    10    7    9 1   
    11    7   25 1   
    12    8   12 1   
    13    9   10 1   
    14    9   11 1   
    15    9   26 1   
    16   10   27 1   
    17   11   12 1   
    18   11   28 1   
    19   11   29 1   
    20   12   13 1   
    21   12   30 1   
    22   13   14 1   
    23   13   21 1   
    24   14   15 2   
    25   14   16 1   
    26   16   17 1   
    27   16   31 1   
    28   17   18 2   
    29   17   19 1   
    30   19   20 1   
    31   19   21 2   
    32   20   22 1   
    33   20   32 1   
    34   20   33 1   
    35   21   34 1   
    36   22   35 1   
@<TRIPOS>SUBSTRUCTURE
     1 5HU         1 TEMP              0 ****  ****    0 ROOT
