@<TRIPOS>MOLECULE
5HU
   35    35     1     0     0
SMALL
bcc


@<TRIPOS>ATOM
      1 P           3.8520    1.9670    0.6040 p4        1 5HU      1.698200
      2 OP1         5.2170    1.3830    0.8510 o         1 5HU     -0.928500
      3 OP2         3.2070    2.3090    1.9210 os        1 5HU     -1.248000
      4 OP3         3.9820    3.2160   -0.2300 o         1 5HU     -0.977300
      5 O5'         2.9700    0.9270   -0.1550 os        1 5HU     -0.550200
      6 C5'         1.6000    1.2310   -0.3630 c3        1 5HU      0.224400
      7 C4'         1.2170    0.8160   -1.6420 c3        1 5HU      0.049100
      8 O4'         0.9260   -0.6130   -1.6440 os        1 5HU     -0.437600
      9 C3'        -0.1500    1.5370   -2.0770 c3        1 5HU      0.154100
     10 O3'         0.1150    2.5460   -3.1870 oh        1 5HU     -0.668800
     11 C2'        -0.8580    0.6390   -2.4890 c3        1 5HU     -0.131400
     12 C1'        -0.3780   -0.6910   -1.7380 c3        1 5HU      0.307500
     13 N1         -0.9610   -0.7590   -0.4380 n         1 5HU     -0.369000
     14 C2         -2.2820   -0.1480   -0.1960 c         1 5HU      0.800500
     15 O2         -2.9150    0.3180   -1.1280 o         1 5HU     -0.680500
     16 N3         -2.8770   -0.1880    1.1490 n         1 5HU     -0.591500
     17 C4         -2.2930   -1.0020    2.1620 c         1 5HU      0.728700
     18 O4         -2.8810   -1.1680    3.2270 o         1 5HU     -0.690500
     19 C5         -1.0270   -1.7320    1.8860 cc        1 5HU     -0.359400
     20 C5A        -0.5060   -2.7620    2.8800 c3        1 5HU      0.207600
     21 C6         -0.3560   -1.5680    0.5700 cd        1 5HU      0.109600
     22 O5B        -1.4710   -3.7410    3.0860 oh        1 5HU     -0.615800
     23 H5'         1.0550    0.7630    0.3120 h1        1 5HU     -0.002800
     24 H5''        1.4630    2.2060   -0.2790 h1        1 5HU     -0.002800
     25 HC4'        1.9300    1.0190   -2.2920 h1        1 5HU      0.078700
     26 HC3'       -0.5680    1.9780   -1.3010 h1        1 5HU      0.107700
     27 HO3'       -0.4460    3.2730   -3.0840 ho        1 5HU      0.501000
     28 H2'        -1.8030    0.8250   -2.2750 hc        1 5HU      0.055200
     29 H2''       -0.7430    0.5360   -3.4710 hc        1 5HU      0.055200
     30 HC1'       -0.6340   -1.4930   -2.2690 h2        1 5HU      0.081700
     31 HN3        -3.6810    0.2580    1.3160 hn        1 5HU      0.331500
     32 H5A1       -0.2970   -2.3150    3.7440 h1        1 5HU      0.062700
     33 H5A2        0.3190   -3.1840    2.5170 h1        1 5HU      0.062700
     34 HC6         0.4450   -2.0550    0.3750 h4        1 5HU      0.232000
     35 HO5B       -1.1720   -4.3270    3.6600 ho        1 5HU      0.409000
@<TRIPOS>BOND
     1    1    2 1   
     2    1    4 2   
     3    1    5 1   
     4    5    6 1   
     5    6    7 1   
     6    6   23 1   
     7    6   24 1   
     8    7    8 1   
     9    7    9 1   
    10    7   25 1   
    11    8   12 1   
    12    9   10 1   
    13    9   11 1   
    14    9   26 1   
    15   10   27 1   
    16   11   12 1   
    17   11   28 1   
    18   11   29 1   
    19   12   13 1   
    20   12   30 1   
    21   13   14 1   
    22   13   21 1   
    23   14   15 2   
    24   14   16 1   
    25   16   17 1   
    26   16   31 1   
    27   17   18 2   
    28   17   19 1   
    29   19   20 1   
    30   19   21 2   
    31   20   22 1   
    32   20   32 1   
    33   20   33 1   
    34   21   34 1   
    35   22   35 1   
@<TRIPOS>SUBSTRUCTURE
     1 5HU         1 TEMP              0 ****  ****    0 ROOT
