@<TRIPOS>MOLECULE
5HY
   16    15     1     0     0
SMALL
bcc


@<TRIPOS>ATOM
      1 C          -1.2990   -0.2020    0.0410 c1        1 5HY      0.524500
      2 N           0.5640   -0.1210    1.4130 n         1 5HY     -0.459500
      3 O          -2.0210   -0.2520   -0.9660 o         1 5HY     -0.579500
      4 CA          0.2090   -0.2820    0.0480 c2        1 5HY      0.200500
      5 CB          0.9030    0.7580   -0.9080 c3        1 5HY     -0.299700
      6 CG          1.0200    0.1590   -2.3210 c         1 5HY      0.913600
      7 OAB        -0.6550   -0.4740    3.3920 o         1 5HY     -0.619100
      8 NAF        -1.7460   -0.1930    1.3650 n         1 5HY     -0.567500
      9 CAI        -0.6260   -0.2850    2.2100 c         1 5HY      0.738100
     10 OD1         0.1960    0.4930   -3.2180 o         1 5HY     -0.832300
     11 OD2         1.9740   -0.6260   -2.5980 o         1 5HY     -0.832300
     12 HN          1.4010   -0.1220    1.7310 hn        1 5HY      0.373500
     13 HA          0.5300   -1.1280   -0.3150 h4        1 5HY      0.006800
     14 HB          0.3720    1.5680   -0.9440 hc        1 5HY      0.049700
     15 HBA         1.8060    0.9710   -0.5650 hc        1 5HY      0.049700
     16 HNAF       -2.6290   -0.2640    1.6350 hn        1 5HY      0.333500
@<TRIPOS>BOND
     1    1    3 2   
     2    1    8 2   
     3    2    4 2   
     4    2    9 1   
     5    2   12 1   
     6    4    5 1   
     7    4   13 1   
     8    5    6 1   
     9    5   14 1   
    10    5   15 1   
    11    6   10 1   
    12    6   11 1   
    13    7    9 2   
    14    8    9 1   
    15    8   16 1   
@<TRIPOS>SUBSTRUCTURE
     1 5HY         1 TEMP              0 ****  ****    0 ROOT
