@<TRIPOS>MOLECULE
5HY
   16    16     1     0     0
SMALL
bcc


@<TRIPOS>ATOM
      1 C           1.2700   -1.2480    0.0060 c         1 5HY      0.683500
      2 N           0.5020    0.9130   -0.6600 n         1 5HY     -0.496900
      3 O           1.4130   -2.4650    0.1650 o         1 5HY     -0.621500
      4 CA          0.0200   -0.4720   -0.4960 c3        1 5HY      0.022700
      5 CB         -1.1390   -0.6580    0.4690 c3        1 5HY     -0.224400
      6 CG         -2.3220    0.2750    0.1300 c         1 5HY      0.913600
      7 OAB         2.4910    2.0350    0.0470 o         1 5HY     -0.655500
      8 NAF         2.2690   -0.2930    0.2510 n         1 5HY     -0.634500
      9 CAI         1.7910    1.0130   -0.0850 c         1 5HY      0.774500
     10 OD1        -3.4250   -0.2570   -0.1600 o         1 5HY     -0.832300
     11 OD2        -2.1190    1.5250    0.1840 o         1 5HY     -0.832300
     12 HN         -0.1740    1.6300   -0.4300 hn        1 5HY      0.373500
     13 HA         -0.2650   -0.8560   -1.5160 h1        1 5HY      0.096700
     14 HB         -1.4760   -1.7230    0.4150 hc        1 5HY      0.049700
     15 HBA        -0.8160   -0.4380    1.5160 hc        1 5HY      0.049700
     16 HNAF        3.1800   -0.4690    0.5790 hn        1 5HY      0.333500
@<TRIPOS>BOND
     1    1    3 2   
     2    1    4 1   
     3    1    8 1   
     4    2    4 1   
     5    2    9 1   
     6    2   12 1   
     7    4    5 1   
     8    4   13 1   
     9    5    6 1   
    10    5   14 1   
    11    5   15 1   
    12    6   10 1   
    13    6   11 1   
    14    7    9 2   
    15    8    9 1   
    16    8   16 1   
@<TRIPOS>SUBSTRUCTURE
     1 5HY         1 TEMP              0 ****  ****    0 ROOT
