@<TRIPOS>MOLECULE
5HY
   16    16     1     0     0
SMALL
bcc


@<TRIPOS>ATOM
      1 C          -0.0600    0.1010   -0.0300 c         1 5HY      0.683500
      2 N           1.9190   -0.3830    1.2180 ns        1 5HY     -0.496900
      3 O          -0.8900    0.2680   -0.9290 o         1 5HY     -0.621500
      4 CA          1.4880    0.0110   -0.1370 c3        1 5HY      0.022700
      5 CB          2.0570    1.3210   -0.6560 c3        1 5HY     -0.224400
      6 CG          3.5980    1.3540   -0.5620 c         1 5HY      0.913600
      7 OAB         0.7890   -0.4570    3.3230 o         1 5HY     -0.655500
      8 NAF        -0.3820   -0.0620    1.3270 ns        1 5HY     -0.634500
      9 CAI         0.8080   -0.2860    2.0890 c         1 5HY      0.774500
     10 OD1         4.2480    1.4880   -1.6310 o         1 5HY     -0.832300
     11 OD2         4.1190    1.2670    0.5900 o         1 5HY     -0.832300
     12 HN          2.7940    0.0240    1.5220 hn        1 5HY      0.373500
     13 HA          1.7600   -0.8280   -0.8380 h1        1 5HY      0.096700
     14 HB          1.6580    2.1830   -0.0660 hc        1 5HY      0.049700
     15 HBA         1.7450    1.4440   -1.7230 hc        1 5HY      0.049700
     16 HNAF       -1.2840   -0.0540    1.7200 hn        1 5HY      0.333500
@<TRIPOS>BOND
     1    1    3 2   
     2    1    4 1   
     3    1    8 1   
     4    2    4 1   
     5    2    9 1   
     6    2   12 1   
     7    4    5 1   
     8    4   13 1   
     9    5    6 1   
    10    5   14 1   
    11    5   15 1   
    12    6   10 1   
    13    6   11 1   
    14    7    9 2   
    15    8    9 1   
    16    8   16 1   
@<TRIPOS>SUBSTRUCTURE
     1 5HY         1 TEMP              0 ****  ****    0 ROOT
