@<TRIPOS>MOLECULE
5HY
   16    16     1     0     0
SMALL
bcc


@<TRIPOS>ATOM
      1 C          -0.0450    0.0760   -0.0470 c         1 5HY      0.683500
      2 N           1.9070   -0.3210    1.2690 n         1 5HY     -0.496900
      3 O          -0.8570    0.1850   -0.9730 o         1 5HY     -0.621500
      4 CA          1.5050   -0.0110   -0.1160 c3        1 5HY      0.022700
      5 CB          2.0790    1.2710   -0.6990 c3        1 5HY     -0.224400
      6 CG          3.6160    1.3180   -0.5730 c         1 5HY      0.913600
      7 OAB         0.7320   -0.2790    3.3500 o         1 5HY     -0.655500
      8 NAF        -0.3960   -0.0080    1.3090 n         1 5HY     -0.634500
      9 CAI         0.7770   -0.1810    2.1090 c         1 5HY      0.774500
     10 OD1         4.2900    1.3920   -1.6330 o         1 5HY     -0.832300
     11 OD2         4.1130    1.3030    0.5930 o         1 5HY     -0.832300
     12 HN          2.7730    0.1080    1.5680 hn        1 5HY      0.373500
     13 HA          1.7960   -0.8870   -0.7600 h1        1 5HY      0.096700
     14 HB          1.6620    2.1630   -0.1690 hc        1 5HY      0.049700
     15 HBA         1.7890    1.3280   -1.7780 hc        1 5HY      0.049700
     16 HNAF       -1.3070    0.0170    1.6810 hn        1 5HY      0.333500
@<TRIPOS>BOND
     1    1    3 2   
     2    1    4 1   
     3    1    8 1   
     4    2    4 1   
     5    2    9 1   
     6    2   12 1   
     7    4    5 1   
     8    4   13 1   
     9    5    6 1   
    10    5   14 1   
    11    5   15 1   
    12    6   10 1   
    13    6   11 1   
    14    7    9 2   
    15    8    9 1   
    16    8   16 1   
@<TRIPOS>SUBSTRUCTURE
     1 5HY         1 TEMP              0 ****  ****    0 ROOT
