@<TRIPOS>MOLECULE
5I5
   33    35     1     0     0
SMALL
bcc


@<TRIPOS>ATOM
      1 N1          0.2290   -0.5830   -0.0100 nb        1 5I5     -0.684000
      2 C1          1.4800   -0.0600    0.0680 ca        1 5I5      0.502200
      3 C2          2.1240    0.1850    1.2920 ca        1 5I5     -0.252400
      4 C3          1.3330   -0.1680    2.4920 ca        1 5I5      0.470800
      5 N2          0.0820   -0.6890    2.4310 nb        1 5I5     -0.616000
      6 C4         -0.3910   -0.8640    1.1710 ca        1 5I5      0.666900
      7 C5          3.3730    0.7080    1.7610 cc        1 5I5     -0.128400
      8 C6          3.3250    0.6730    3.1630 cd        1 5I5      0.048900
      9 N3          2.1230    0.1410    3.6110 na        1 5I5     -0.165100
     10 I           4.8760    1.3630    0.6420 i         1 5I5     -0.047800
     11 N4          2.1680    0.2580   -1.2000 n4        1 5I5     -0.828300
     12 C7          2.5980   -1.6040    6.5820 c3        1 5I5      0.082100
     13 C8          1.4990   -1.4310    5.5070 c3        1 5I5      0.089100
     14 C9          1.6670    0.0390    5.0000 c3        1 5I5      0.207800
     15 O3          2.6000    0.6910    5.8480 os        1 5I5     -0.404600
     16 C10         3.3350   -0.2540    6.6570 c3        1 5I5      0.127100
     17 O2          2.0060   -1.8250    7.8470 oh        1 5I5     -0.582800
     18 O1          0.2100   -1.6170    6.0270 oh        1 5I5     -0.565800
     19 C11         4.7640   -0.3450    6.1760 c3        1 5I5     -0.122100
     20 H4         -1.4180   -1.2900    1.0850 h5        1 5I5      0.100100
     21 H6          4.0820    1.0040    3.8930 h4        1 5I5      0.224000
     22 HN41        3.1040    0.6480   -0.9820 hn        1 5I5      0.474800
     23 HN42        1.6190    0.9470   -1.7290 hn        1 5I5      0.474800
     24 H7          3.2950   -2.4410    6.3160 h1        1 5I5      0.075700
     25 H8          1.5890   -2.1880    4.6830 h1        1 5I5      0.105700
     26 H9          0.6950    0.6150    5.0800 h2        1 5I5      0.127700
     27 H10         3.2850    0.1740    7.6990 h1        1 5I5      0.119700
     28 HO2         1.6480   -2.7240    7.8430 ho        1 5I5      0.429000
     29 HO1         0.1440   -1.1270    6.8620 ho        1 5I5      0.431000
     30 H111        5.2100    0.6780    6.1160 hc        1 5I5      0.056367
     31 H112        4.8240   -0.8210    5.1680 hc        1 5I5      0.056367
     32 H113        5.3610   -0.9540    6.8980 hc        1 5I5      0.056367
     33 H43         2.2670   -0.5930   -1.7660 hn        1 5I5      0.474800
@<TRIPOS>BOND
     1    1    2 ar  
     2    1    6 ar  
     3    2    3 ar  
     4    2   11 1   
     5    3    4 ar  
     6    3    7 1   
     7    4    5 ar  
     8    4    9 1   
     9    5    6 ar  
    10    6   20 1   
    11    7    8 2   
    12    7   10 1   
    13    8    9 1   
    14    8   21 1   
    15    9   14 1   
    16   11   22 1   
    17   11   23 1   
    18   11   33 1   
    19   12   13 1   
    20   12   16 1   
    21   12   17 1   
    22   12   24 1   
    23   13   14 1   
    24   13   18 1   
    25   13   25 1   
    26   14   15 1   
    27   14   26 1   
    28   15   16 1   
    29   16   19 1   
    30   16   27 1   
    31   17   28 1   
    32   18   29 1   
    33   19   30 1   
    34   19   31 1   
    35   19   32 1   
@<TRIPOS>SUBSTRUCTURE
     1 5I5         1 TEMP              0 ****  ****    0 ROOT
