@<TRIPOS>MOLECULE
5I5
   32    34     1     0     0
SMALL
bcc


@<TRIPOS>ATOM
      1 N1         -2.6670    0.4310   -4.2170 nb        1 5I5     -0.794000
      2 C1         -1.4430    0.5850   -4.8280 ca        1 5I5      0.746200
      3 C2         -0.3290    1.0700   -4.0670 ca        1 5I5     -0.348400
      4 C3         -0.5800    1.3530   -2.6640 ca        1 5I5      0.468800
      5 N2         -1.7950    1.1840   -2.0510 nb        1 5I5     -0.765000
      6 C4         -2.7490    0.7330   -2.8940 ca        1 5I5      0.687900
      7 C5          1.0560    1.3800   -4.3080 cc        1 5I5     -0.048400
      8 C6          1.5940    1.8250   -3.0990 cd        1 5I5     -0.051100
      9 N3          0.6210    1.8100   -2.0990 na        1 5I5     -0.187100
     10 I           2.0740    1.2340   -6.0120 i         1 5I5     -0.098800
     11 N4         -1.2960    0.2370   -6.1490 nh        1 5I5     -0.960500
     12 C7          1.7160    0.9240    1.1140 c3        1 5I5      0.119100
     13 C8          0.4060    1.1480    0.3280 c3        1 5I5      0.130100
     14 C9          0.7540    2.2570   -0.7240 c3        1 5I5      0.216800
     15 O3          2.0880    2.7000   -0.4770 os        1 5I5     -0.402600
     16 C10         2.7740    1.8050    0.4150 c3        1 5I5      0.096100
     17 O2          1.5160    1.3170    2.4550 oh        1 5I5     -0.551800
     18 O1         -0.5990    1.6170    1.1930 oh        1 5I5     -0.555800
     19 C11         3.7890    0.9920   -0.3580 c3        1 5I5     -0.121100
     20 H4         -3.7560    0.5870   -2.4470 h5        1 5I5      0.051100
     21 H6          2.6090    2.1630   -2.8610 h4        1 5I5      0.193000
     22 HN41       -2.0910   -0.0020   -6.6890 hn        1 5I5      0.443300
     23 HN42       -0.4560    0.4850   -6.6120 hn        1 5I5      0.443300
     24 H7          2.0080   -0.1600    1.0670 h1        1 5I5      0.053700
     25 H8          0.0910    0.1880   -0.1630 h1        1 5I5      0.070700
     26 H9          0.0930    3.1650   -0.5790 h2        1 5I5      0.110700
     27 H10         3.2820    2.4840    1.1550 h1        1 5I5      0.085700
     28 HO2         2.3210    1.0760    2.9320 ho        1 5I5      0.398000
     29 HO1        -1.4300    1.5620    0.6990 ho        1 5I5      0.421000
     30 H111        4.4850    1.6740   -0.9040 hc        1 5I5      0.049700
     31 H112        4.3800    0.3570    0.3440 hc        1 5I5      0.049700
     32 H113        3.2830    0.3350   -1.1070 hc        1 5I5      0.049700
@<TRIPOS>BOND
     1    1    2 ar  
     2    1    6 ar  
     3    2    3 ar  
     4    2   11 1   
     5    3    4 ar  
     6    3    7 1   
     7    4    5 ar  
     8    4    9 1   
     9    5    6 ar  
    10    6   20 1   
    11    7    8 2   
    12    7   10 1   
    13    8    9 1   
    14    8   21 1   
    15    9   14 1   
    16   11   22 1   
    17   11   23 1   
    18   12   13 1   
    19   12   16 1   
    20   12   17 1   
    21   12   24 1   
    22   13   14 1   
    23   13   18 1   
    24   13   25 1   
    25   14   15 1   
    26   14   26 1   
    27   15   16 1   
    28   16   19 1   
    29   16   27 1   
    30   17   28 1   
    31   18   29 1   
    32   19   30 1   
    33   19   31 1   
    34   19   32 1   
@<TRIPOS>SUBSTRUCTURE
     1 5I5         1 TEMP              0 ****  ****    0 ROOT
