@<TRIPOS>MOLECULE
5I5
   32    34     1     0     0
SMALL
bcc


@<TRIPOS>ATOM
      1 N1          0.3200   -0.7380    0.0940 nb        1 5I5     -0.794000
      2 C1          1.5440   -0.1090    0.1110 ca        1 5I5      0.748200
      3 C2          2.1500    0.2230    1.3680 ca        1 5I5     -0.348400
      4 C3          1.4120   -0.1570    2.5600 ca        1 5I5      0.468800
      5 N2          0.1990   -0.7970    2.5430 nb        1 5I5     -0.767000
      6 C4         -0.2500   -1.0340    1.2910 ca        1 5I5      0.688900
      7 C5          3.3560    0.8690    1.8180 cc        1 5I5     -0.047400
      8 C6          3.3270    0.8680    3.2140 cd        1 5I5     -0.050100
      9 N3          2.1630    0.2480    3.6740 na        1 5I5     -0.187100
     10 I           4.8220    1.6440    0.7190 i         1 5I5     -0.097800
     11 N4          2.1820    0.1650   -1.0730 nh        1 5I5     -0.962500
     12 C7          2.5790   -1.6560    6.5560 c3        1 5I5      0.128100
     13 C8          1.5090   -1.3940    5.4730 c3        1 5I5      0.083100
     14 C9          1.7150    0.0980    5.0450 c3        1 5I5      0.219800
     15 O3          2.6490    0.6830    5.9500 os        1 5I5     -0.408600
     16 C10         3.3560   -0.3290    6.6910 c3        1 5I5      0.095100
     17 O2          2.0490   -2.0780    7.7870 oh        1 5I5     -0.575800
     18 O1          0.2330   -1.5300    6.0590 oh        1 5I5     -0.593800
     19 C11         4.7770   -0.4360    6.1830 c3        1 5I5     -0.117100
     20 H4         -1.2340   -1.5470    1.2230 h5        1 5I5      0.050100
     21 H6          4.0480    1.2670    3.9350 h4        1 5I5      0.194000
     22 HN41        3.0000    0.7240   -1.0540 hn        1 5I5      0.444800
     23 HN42        1.7200    0.0090   -1.9350 hn        1 5I5      0.444800
     24 H7          3.2620   -2.4920    6.2410 h1        1 5I5      0.094700
     25 H8          1.6290   -2.1060    4.6140 h1        1 5I5      0.082700
     26 H9          0.7550    0.6870    5.1700 h2        1 5I5      0.106700
     27 H10         3.3400    0.0350    7.7560 h1        1 5I5      0.089700
     28 HO2         1.2800   -1.5280    7.9910 ho        1 5I5      0.424000
     29 HO1        -0.4040   -1.5750    5.3330 ho        1 5I5      0.434000
     30 H111        5.3480   -1.1550    6.8170 hc        1 5I5      0.050367
     31 H112        5.2730    0.5640    6.2290 hc        1 5I5      0.050367
     32 H113        4.7940   -0.7890    5.1240 hc        1 5I5      0.050367
@<TRIPOS>BOND
     1    1    2 ar  
     2    1    6 ar  
     3    2    3 ar  
     4    2   11 1   
     5    3    4 ar  
     6    3    7 1   
     7    4    5 ar  
     8    4    9 1   
     9    5    6 ar  
    10    6   20 1   
    11    7    8 2   
    12    7   10 1   
    13    8    9 1   
    14    8   21 1   
    15    9   14 1   
    16   11   22 1   
    17   11   23 1   
    18   12   13 1   
    19   12   16 1   
    20   12   17 1   
    21   12   24 1   
    22   13   14 1   
    23   13   18 1   
    24   13   25 1   
    25   14   15 1   
    26   14   26 1   
    27   15   16 1   
    28   16   19 1   
    29   16   27 1   
    30   17   28 1   
    31   18   29 1   
    32   19   30 1   
    33   19   31 1   
    34   19   32 1   
@<TRIPOS>SUBSTRUCTURE
     1 5I5         1 TEMP              0 ****  ****    0 ROOT
