@<TRIPOS>MOLECULE
5I5
   32    26     1     0     0
SMALL
bcc


@<TRIPOS>ATOM
      1 N1         -1.8440   -0.1500   -3.6600 n1        1 5I5     -0.266000
      2 C1         -0.5000   -0.1500   -3.6600 c1        1 5I5      0.217000
      3 C2          0.1920   -0.1500   -2.4610 c1        1 5I5     -0.207000
      4 C3         -0.4880   -0.1500   -1.2880 c1        1 5I5      0.083000
      5 N2         -1.8490   -0.1500   -1.2920 n1        1 5I5     -0.212000
      6 C4         -2.5290   -0.1500   -2.4760 c1        1 5I5      0.020000
      7 C5          1.5420   -0.1530   -2.1710 c1        1 5I5     -0.330000
      8 C6          1.6820   -0.1550   -0.8050 c1        1 5I5     -0.030000
      9 N3          0.4380   -0.1530   -0.2560 n1        1 5I5     -0.174000
     10 I           3.2640   -0.1490   -3.3860 i         1 5I5      0.172000
     11 N4         -0.3040    0.2680   -5.0010 n3        1 5I5     -0.354000
     12 C7         -0.2000    0.1280    3.0240 c3        1 5I5     -0.036000
     13 C8         -0.6320    0.8270    1.7190 c3        1 5I5      0.018000
     14 C9          0.6100    0.8100    0.8110 c2        1 5I5      0.163000
     15 O3          1.5870    0.4560    1.5820 os        1 5I5     -0.261000
     16 C10         0.9380   -0.4210    2.7490 c3        1 5I5     -0.011000
     17 O2         -0.0390    1.1310    4.1190 oh        1 5I5     -0.321000
     18 O1         -1.0090    2.1020    1.9730 oh        1 5I5     -0.307000
     19 C11         0.7270   -1.8480    2.2750 c3        1 5I5     -0.238000
     20 H4         -3.5050   -0.1500   -2.4770 ha        1 5I5      0.189000
     21 H6          2.5250   -0.1820   -0.3140 DU        1 5I5      0.192000
     22 HN41       -0.1370    1.1450   -5.1850 hn        1 5I5      0.233500
     23 HN42       -0.3010   -0.3470   -5.6740 hn        1 5I5      0.233500
     24 H7         -0.8530   -0.5510    3.2780 h1        1 5I5      0.100000
     25 H8         -1.3630    0.3360    1.2990 h1        1 5I5      0.124000
     26 H9          0.7740    1.6990    0.4430 h4        1 5I5      0.166000
     27 H10         1.5140   -0.4110    3.5370 h1        1 5I5      0.122000
     28 HO2        -0.3930    0.8120    4.8670 ho        1 5I5      0.215000
     29 HO1        -1.8930    2.1680    1.9130 ho        1 5I5      0.230000
     30 H111        0.9020   -2.4650    3.0100 hc        1 5I5      0.090000
     31 H112       -0.1940   -1.9570    1.9710 hc        1 5I5      0.090000
     32 H113        1.3380   -2.0390    1.5370 hc        1 5I5      0.090000
@<TRIPOS>BOND
     1    1    6 1   
     2    2    3 1   
     3    2   11 1   
     4    4    5 1   
     5    6   20 1   
     6    7    8 1   
     7    8    9 1   
     8   11   22 1   
     9   11   23 1   
    10   12   13 1   
    11   12   16 1   
    12   12   17 1   
    13   12   24 1   
    14   13   14 1   
    15   13   18 1   
    16   13   25 1   
    17   14   15 1   
    18   14   26 1   
    19   15   16 1   
    20   16   19 1   
    21   16   27 1   
    22   17   28 1   
    23   18   29 1   
    24   19   30 1   
    25   19   31 1   
    26   19   32 1   
@<TRIPOS>SUBSTRUCTURE
     1 5I5         1 TEMP              0 ****  ****    0 ROOT
