@<TRIPOS>MOLECULE
5I5
   32    34     1     0     0
SMALL
bcc


@<TRIPOS>ATOM
      1 N1          0.3190   -0.7740    0.1000 nb        1 5I5     -0.794000
      2 C1          1.5400   -0.1380    0.1100 ca        1 5I5      0.748200
      3 C2          2.1460    0.2080    1.3630 ca        1 5I5     -0.348400
      4 C3          1.4130   -0.1670    2.5600 ca        1 5I5      0.468800
      5 N2          0.2030   -0.8140    2.5500 nb        1 5I5     -0.767000
      6 C4         -0.2460   -1.0640    1.3010 ca        1 5I5      0.688900
      7 C5          3.3500    0.8640    1.8060 cc        1 5I5     -0.047400
      8 C6          3.3230    0.8730    3.2020 cd        1 5I5     -0.050100
      9 N3          2.1640    0.2510    3.6700 na        1 5I5     -0.187100
     10 I           4.8100    1.6380    0.6980 i         1 5I5     -0.097800
     11 N4          2.1740    0.1300   -1.0770 nv        1 5I5     -0.962500
     12 C7          2.5940   -1.6280    6.5650 c3        1 5I5      0.128100
     13 C8          1.5210   -1.3800    5.4820 c3        1 5I5      0.083100
     14 C9          1.7180    0.1090    5.0420 c3        1 5I5      0.219800
     15 O3          2.6510    0.7060    5.9410 os        1 5I5     -0.408600
     16 C10         3.3650   -0.2950    6.6880 c3        1 5I5      0.095100
     17 O2          2.0690   -2.0420    7.8010 oh        1 5I5     -0.575800
     18 O1          0.2470   -1.5190    6.0720 oh        1 5I5     -0.593800
     19 C11         4.7850   -0.3990    6.1790 c3        1 5I5     -0.117100
     20 H4         -1.2280   -1.5820    1.2380 h5        1 5I5      0.050100
     21 H6          4.0430    1.2820    3.9190 h4        1 5I5      0.194000
     22 HN41        2.9890    0.6940   -1.0650 hn        1 5I5      0.444800
     23 HN42        1.7130   -0.0360   -1.9370 hn        1 5I5      0.444800
     24 H7          3.2820   -2.4620    6.2560 h1        1 5I5      0.094700
     25 H8          1.6440   -2.0980    4.6290 h1        1 5I5      0.082700
     26 H9          0.7560    0.6940    5.1640 h2        1 5I5      0.106700
     27 H10         3.3480    0.0770    7.7500 h1        1 5I5      0.089700
     28 HO2         1.2970   -1.4960    8.0020 ho        1 5I5      0.424000
     29 HO1        -0.3910   -1.5730    5.3470 ho        1 5I5      0.434000
     30 H111        5.2760    0.6040    6.2160 hc        1 5I5      0.050367
     31 H112        5.3620   -1.1100    6.8170 hc        1 5I5      0.050367
     32 H113        4.8030   -0.7600    5.1220 hc        1 5I5      0.050367
@<TRIPOS>BOND
     1    1    2 ar  
     2    1    6 ar  
     3    2    3 ar  
     4    2   11 1   
     5    3    4 ar  
     6    3    7 1   
     7    4    5 ar  
     8    4    9 1   
     9    5    6 ar  
    10    6   20 1   
    11    7    8 2   
    12    7   10 1   
    13    8    9 1   
    14    8   21 1   
    15    9   14 1   
    16   11   22 1   
    17   11   23 1   
    18   12   13 1   
    19   12   16 1   
    20   12   17 1   
    21   12   24 1   
    22   13   14 1   
    23   13   18 1   
    24   13   25 1   
    25   14   15 1   
    26   14   26 1   
    27   15   16 1   
    28   16   19 1   
    29   16   27 1   
    30   17   28 1   
    31   18   29 1   
    32   19   30 1   
    33   19   31 1   
    34   19   32 1   
@<TRIPOS>SUBSTRUCTURE
     1 5I5         1 TEMP              0 ****  ****    0 ROOT
