@<TRIPOS>MOLECULE
5IC
   33    34     1     0     0
SMALL
bcc


@<TRIPOS>ATOM
      1 O2'         0.3970    0.2980   -1.6450 oh        1 5IC     -0.630800
      2 C2'         0.9420    0.4980   -0.3700 c3        1 5IC      0.112100
      3 C3'         2.4240    0.0480   -0.3350 c3        1 5IC      0.078100
      4 O3'         2.6110   -0.9610    0.6420 oh        1 5IC     -0.597800
      5 C4'         3.2450    1.3130   -0.0300 c3        1 5IC      0.091100
      6 O4'         2.3400    2.4200    0.0890 os        1 5IC     -0.424600
      7 C1'         0.9720    1.9540    0.1890 c3        1 5IC      0.279500
      8 N1          0.0710    2.9100   -0.4170 n         1 5IC     -0.324400
      9 C6         -0.0350    2.9860   -1.7700 c1        1 5IC     -0.060900
     10 C5         -0.8650    3.9700   -2.3300 ce        1 5IC     -0.420900
     11 I          -1.0040    4.0030   -4.3350 i         1 5IC     -0.213800
     12 C4         -1.5430    4.8900   -1.4750 ce        1 5IC      0.724500
     13 N3         -1.4780    4.7980   -0.1230 nf        1 5IC     -0.793100
     14 C2         -0.6670    3.8090    0.4390 c         1 5IC      0.764500
     15 O2         -0.6060    3.6640    1.6900 o         1 5IC     -0.682100
     16 N4         -2.2840    5.9580   -2.0260 nh        1 5IC     -0.897800
     17 C5'         4.3000    1.6610   -1.0930 c3        1 5IC      0.182400
     18 O5'         5.5650    1.5910   -0.5100 os        1 5IC     -0.587200
     19 P           6.7480    0.7470   -1.2870 p5        1 5IC      1.427800
     20 OP1         7.7590    0.3930   -0.2670 o         1 5IC     -0.841000
     21 OP3         7.4300    2.0210   -2.0580 oh        1 5IC     -0.779400
     22 OP2         6.1420   -0.1630   -2.2790 o         1 5IC     -0.841000
     23 HO2'        0.5150    1.1210   -2.1710 ho        1 5IC      0.472000
     24 H2'         0.3280   -0.1460    0.3190 h1        1 5IC      0.051700
     25 H3'         2.7230   -0.4370   -1.3030 h1        1 5IC      0.115700
     26 HO3'        2.5230   -0.5420    1.5060 ho        1 5IC      0.385000
     27 H4'         3.7590    1.2120    0.9690 h1        1 5IC      0.058700
     28 H1'         0.7400    1.9160    1.2980 h2        1 5IC      0.071700
     29 H6          8.0320    2.4860   -1.4900 ho        1 5IC      0.417000
     30 H41        -2.9290    6.3920   -1.4030 hn        1 5IC      0.378800
     31 H42        -2.6870    5.7340   -2.9090 hn        1 5IC      0.378800
     32 H5'         4.1120    2.7200   -1.4350 h1        1 5IC      0.052200
     33 H5''        4.2370    0.9600   -1.9710 h1        1 5IC      0.052200
@<TRIPOS>BOND
     1    1    2 1   
     2    1   23 1   
     3    2    3 1   
     4    2    7 1   
     5    2   24 1   
     6    3    4 1   
     7    3    5 1   
     8    3   25 1   
     9    4   26 1   
    10    5    6 1   
    11    5   17 1   
    12    5   27 1   
    13    6    7 1   
    14    7    8 1   
    15    7   28 1   
    16    8    9 2   
    17    8   14 1   
    18    9   10 2   
    19   10   11 1   
    20   10   12 1   
    21   12   13 2   
    22   12   16 1   
    23   13   14 1   
    24   14   15 2   
    25   16   30 1   
    26   16   31 1   
    27   17   18 1   
    28   17   32 1   
    29   17   33 1   
    30   18   19 1   
    31   19   20 1   
    32   19   21 1   
    33   19   22 1   
    34   21   29 1   
@<TRIPOS>SUBSTRUCTURE
     1 5IC         1 TEMP              0 ****  ****    0 ROOT
