@<TRIPOS>MOLECULE
5IC
   33    32     1     0     0
SMALL
bcc


@<TRIPOS>ATOM
      1 O2'        -1.2680    1.4440   -0.3850 oh        1 5IC     -0.385000
      2 C2'         0.2190    1.6520   -0.5810 c3        1 5IC      0.043000
      3 C3'         0.8730    2.0590    0.7510 c3        1 5IC     -0.070000
      4 O3'         1.7000    3.1060    0.5650 oh        1 5IC     -0.358000
      5 C4'         1.6570    0.8470    1.2070 c3        1 5IC     -0.029000
      6 O4'         1.2580   -0.1300    0.4330 os        1 5IC     -0.302000
      7 C1'         0.7890    0.5410   -0.9130 c3        1 5IC      0.100000
      8 N1         -0.1730   -0.3290   -1.6060 n3        1 5IC     -0.226000
      9 C6         -1.0470    0.2210   -2.6080 c2        1 5IC      0.148000
     10 C5         -2.1050   -0.6410   -3.2310 c1        1 5IC     -0.529000
     11 I          -3.5830    0.2210   -4.4880 i         1 5IC      0.144000
     12 C4         -2.1640   -2.0850   -2.9010 c2        1 5IC      0.215000
     13 N3         -1.2690   -2.6360   -1.9000 n1        1 5IC     -0.339000
     14 C2         -0.2240   -1.7820   -1.2910 c1        1 5IC      0.344000
     15 O2          0.5280   -2.2490   -0.4480 o         1 5IC     -0.396000
     16 N4         -3.0730   -2.9360   -3.5910 n3        1 5IC     -0.342000
     17 C5'         1.3320    0.5270    2.6830 c3        1 5IC      0.066000
     18 O5'         1.8090   -0.7730    3.0020 os        1 5IC     -0.734000
     19 P           1.5160   -1.3580    4.4640 p5        1 5IC      1.575500
     20 OP1         2.0700   -0.4250    5.4920 o         1 5IC     -0.914500
     21 OP3         2.1590   -2.6830    4.6040 o         1 5IC     -0.914500
     22 OP2         0.0200   -1.5020    4.6630 o         1 5IC     -0.914500
     23 HO2'       -1.6720    2.2400   -0.3020 ho        1 5IC      0.305000
     24 H2'         0.3870    2.3530   -1.2810 h1        1 5IC      0.092000
     25 H3'         0.1810    2.2840    1.4120 h1        1 5IC      0.226000
     26 HO3'        1.4360    3.7930    1.0850 ho        1 5IC      0.203000
     27 H4'         2.6680    1.0090    1.0870 h1        1 5IC      0.082000
     28 H1'         1.5810    0.7210   -1.5060 h2        1 5IC      0.128000
     29 H6         -0.9630    1.1350   -2.8660 h4        1 5IC      0.311000
     30 H41        -3.0510   -3.8190   -3.4510 hn        1 5IC      0.195000
     31 H42        -3.6960   -2.5690   -4.1980 hn        1 5IC      0.195000
     32 H5'         0.3310    0.5610    2.8230 h1        1 5IC      0.039500
     33 H5''        1.7750    1.2020    3.2750 h1        1 5IC      0.039500
@<TRIPOS>BOND
     1    1    2 1   
     2    1   23 1   
     3    2    3 1   
     4    2    7 1   
     5    2   24 1   
     6    3    4 1   
     7    3    5 1   
     8    3   25 1   
     9    4   26 1   
    10    5    6 1   
    11    5   17 1   
    12    5   27 1   
    13    6    7 1   
    14    7    8 1   
    15    7   28 1   
    16    8    9 1   
    17    8   14 1   
    18    9   10 1   
    19    9   29 1   
    20   10   12 1   
    21   12   13 1   
    22   12   16 1   
    23   14   15 1   
    24   16   30 1   
    25   16   31 1   
    26   17   18 1   
    27   17   32 1   
    28   17   33 1   
    29   18   19 1   
    30   19   20 1   
    31   19   21 1   
    32   19   22 1   
@<TRIPOS>SUBSTRUCTURE
     1 5IC         1 TEMP              0 ****  ****    0 ROOT
