@<TRIPOS>MOLECULE
5ID
   33    35     1     0     0
SMALL
bcc


@<TRIPOS>ATOM
      1 O5'         0.8230   -1.1740   -0.4020 oh        1 5ID     -0.589800
      2 C5'         2.0980   -1.1580    0.2180 c3        1 5ID      0.109400
      3 C4'         2.0500   -0.0760    1.2970 c3        1 5ID      0.126100
      4 O4'         1.3730   -0.5660    2.4640 os        1 5ID     -0.392600
      5 C1'         2.3020   -0.9130    3.4910 c3        1 5ID      0.218800
      6 N9          2.3030   -2.3490    3.7000 na        1 5ID     -0.189100
      7 C8          1.4380   -3.2870    3.1300 cc        1 5ID     -0.049100
      8 C7          1.6940   -4.5590    3.6460 cd        1 5ID     -0.049400
      9 C5          2.7660   -4.4230    4.5980 ca        1 5ID     -0.347400
     10 C6          3.5060   -5.2850    5.4730 ca        1 5ID      0.747200
     11 N1          4.4830   -4.7520    6.2830 nb        1 5ID     -0.794000
     12 C2          4.7130   -3.4160    6.1910 ca        1 5ID      0.688900
     13 N3          4.1130   -2.4880    5.4140 nb        1 5ID     -0.773000
     14 C4          3.1290   -3.0160    4.6180 ca        1 5ID      0.468800
     15 N6          3.2760   -6.6380    5.4890 nv        1 5ID     -0.959500
     16 C2'         3.7000   -0.3400    3.0860 c3        1 5ID      0.085100
     17 O2'         4.1230    0.6200    4.0260 oh        1 5ID     -0.598800
     18 C3'         3.4670    0.3580    1.7280 c3        1 5ID      0.130100
     19 O3'         3.4710    1.7690    1.7830 oh        1 5ID     -0.586800
     20 IAE         0.7140   -6.2090    3.1220 i         1 5ID     -0.096800
     21 H5'         0.8530   -1.8670   -1.0730 ho        1 5ID      0.404000
     22 H5'1        2.8870   -0.9090   -0.5410 h1        1 5ID      0.034200
     23 H5'2        2.3170   -2.1590    0.6770 h1        1 5ID      0.034200
     24 H4'         1.4320    0.8000    0.9530 h1        1 5ID      0.124700
     25 H1'         1.9230   -0.4140    4.4350 h2        1 5ID      0.107700
     26 H8          0.6940   -2.9590    2.3950 h4        1 5ID      0.201000
     27 H2          5.5140   -3.0360    6.8620 h5        1 5ID      0.050100
     28 H6N1        2.4820   -6.9890    5.0100 hn        1 5ID      0.444300
     29 H6N2        3.7230   -7.2090    6.1640 hn        1 5ID      0.444300
     30 H2'         4.4720   -1.1490    2.9780 h1        1 5ID      0.075700
     31 HA          4.4070    0.1370    4.8160 ho        1 5ID      0.441000
     32 H3'         4.2480    0.0280    0.9900 h1        1 5ID      0.057700
     33 HB          4.1160    2.0450    2.4480 ho        1 5ID      0.432000
@<TRIPOS>BOND
     1    1    2 1   
     2    1   21 1   
     3    2    3 1   
     4    2   22 1   
     5    2   23 1   
     6    3    4 1   
     7    3   18 1   
     8    3   24 1   
     9    4    5 1   
    10    5    6 1   
    11    5   16 1   
    12    5   25 1   
    13    6    7 1   
    14    6   14 1   
    15    7    8 2   
    16    7   26 1   
    17    8    9 1   
    18    8   20 1   
    19    9   10 ar  
    20    9   14 ar  
    21   10   11 ar  
    22   10   15 1   
    23   11   12 ar  
    24   12   13 ar  
    25   12   27 1   
    26   13   14 ar  
    27   15   28 1   
    28   15   29 1   
    29   16   17 1   
    30   16   18 1   
    31   16   30 1   
    32   17   31 1   
    33   18   19 1   
    34   18   32 1   
    35   19   33 1   
@<TRIPOS>SUBSTRUCTURE
     1 5ID         1 TEMP              0 ****  ****    0 ROOT
