@<TRIPOS>MOLECULE
5ID
   33    30     1     0     0
SMALL
bcc


@<TRIPOS>ATOM
      1 O5'        -2.6010    2.7160   -3.0390 oh        1 5ID     -0.589800
      2 C5'        -1.2690    2.2540   -3.0040 c3        1 5ID      0.109400
      3 C4'        -0.7910    2.2490   -1.6080 c3        1 5ID      0.126100
      4 O4'        -1.0910    1.1020   -1.0260 os        1 5ID     -0.391600
      5 C1'         0.0970    0.7940   -0.0230 c3        1 5ID      0.396300
      6 N9          0.1760   -0.5870    0.2280 n3        1 5ID     -0.441800
      7 C8          0.0040   -1.6450   -0.6200 c1        1 5ID      0.033800
      8 C7         -0.1710   -2.7820    0.1470 cg        1 5ID     -0.334000
      9 C5         -0.1040   -2.4090    1.4900 cg        1 5ID     -0.205000
     10 C6         -0.1760   -3.1470    2.6670 c1        1 5ID      0.281800
     11 N1         -0.0350   -2.5300    3.8590 n1        1 5ID     -0.593800
     12 C2          0.1780   -1.1820    3.9100 c1        1 5ID      0.409300
     13 N3          0.2500   -0.4500    2.7460 n1        1 5ID     -0.572800
     14 C4          0.1080   -1.0680    1.5420 c1        1 5ID      0.458600
     15 N6         -0.3780   -4.4920    3.0830 n3        1 5ID     -0.822400
     16 C2'         1.2240    1.2170   -0.6310 c3        1 5ID      0.085100
     17 O2'         2.1630    1.7400    0.3520 oh        1 5ID     -0.598800
     18 C3'         0.7760    2.3320   -1.5690 c3        1 5ID      0.130100
     19 O3'         1.1670    3.5280   -1.0900 oh        1 5ID     -0.586800
     20 IAE        -0.4160   -4.6410   -0.8210 i         1 5ID      0.176000
     21 H5'        -2.8890    2.7080   -3.8620 ho        1 5ID      0.404000
     22 H5'1       -0.7050    2.8450   -3.5380 h1        1 5ID      0.034200
     23 H5'2       -1.2270    1.3460   -3.3670 h1        1 5ID      0.034200
     24 H4'        -1.1870    3.0040   -1.1050 h1        1 5ID      0.124700
     25 H1'        -0.0370    1.2790    0.8140 h2        1 5ID      0.107700
     26 H8          0.0920   -1.6190   -1.6060 DU        1 5ID      0.201000
     27 H2          0.2830   -0.7220    4.8010 ha        1 5ID      0.129500
     28 H6N1       -0.5420   -5.1610    2.4450 hn        1 5ID      0.444300
     29 H6N2       -0.3160   -4.7130    3.9800 hn        1 5ID      0.444300
     30 H2'         1.6420    0.4690   -1.1510 h1        1 5ID      0.075700
     31 HA          2.9470    1.4210    0.1970 ho        1 5ID      0.441000
     32 H3'         1.1490    2.1860   -2.4760 h1        1 5ID      0.057700
     33 HB          1.6810    3.9610   -1.7230 ho        1 5ID      0.432000
@<TRIPOS>BOND
     1    1    2 1   
     2    1   21 1   
     3    2    3 1   
     4    2   22 1   
     5    2   23 1   
     6    3    4 1   
     7    3   18 1   
     8    3   24 1   
     9    4    5 1   
    10    5    6 1   
    11    5   16 1   
    12    5   25 1   
    13    6    7 1   
    14    6   14 1   
    15    7    8 3   
    16    8    9 1   
    17    9   10 3   
    18   10   15 1   
    19   11   12 3   
    20   12   27 1   
    21   13   14 3   
    22   15   28 1   
    23   15   29 1   
    24   16   17 1   
    25   16   18 1   
    26   16   30 1   
    27   17   31 1   
    28   18   19 1   
    29   18   32 1   
    30   19   33 1   
@<TRIPOS>SUBSTRUCTURE
     1 5ID         1 TEMP              0 ****  ****    0 ROOT
