@<TRIPOS>MOLECULE
5ID
   33    35     1     0     0
SMALL
bcc


@<TRIPOS>ATOM
      1 O5'        -0.0890   -1.1600    1.1100 oh        1 5ID     -0.588800
      2 C5'         1.2690   -1.1180    0.7320 c3        1 5ID      0.121400
      3 C4'         2.0380   -0.0880    1.5580 c3        1 5ID      0.053100
      4 O4'         2.0040   -0.4640    2.9410 os        1 5ID     -0.414600
      5 C1'         3.2840   -0.9300    3.3970 c3        1 5ID      0.247800
      6 N9          3.2760   -2.3570    3.6190 na        1 5ID     -0.184100
      7 C8          3.3620   -3.3650    2.6480 cc        1 5ID     -0.083100
      8 C7          3.1780   -4.6200    3.2230 cd        1 5ID     -0.022400
      9 C5          2.9360   -4.4100    4.6280 ca        1 5ID     -0.361400
     10 C6          2.6800   -5.2290    5.7760 ca        1 5ID      0.747200
     11 N1          2.4770   -4.6350    7.0010 nb        1 5ID     -0.792000
     12 C2          2.5540   -3.2800    7.0570 ca        1 5ID      0.689900
     13 N3          2.7960   -2.3860    6.0720 nb        1 5ID     -0.740000
     14 C4          2.9850   -2.9740    4.8510 ca        1 5ID      0.497800
     15 N6          2.6680   -6.5990    5.6780 nh        1 5ID     -0.962500
     16 C2'         4.3340   -0.4760    2.3360 c3        1 5ID      0.075100
     17 O2'         5.0570    0.5820    2.9360 oh        1 5ID     -0.585800
     18 C3'         3.5100    0.0350    1.1310 c3        1 5ID      0.087100
     19 O3'         3.8700    1.3570    0.8020 oh        1 5ID     -0.584800
     20 IAE         3.2510   -6.3410    2.2250 i         1 5ID     -0.095800
     21 H5'        -0.1150   -1.3300    2.0620 ho        1 5ID      0.417000
     22 H5'1        1.7350   -2.1340    0.8470 h1        1 5ID      0.050700
     23 H5'2        1.2630   -0.8180   -0.3500 h1        1 5ID      0.050700
     24 H4'         1.5100    0.9050    1.5130 h1        1 5ID      0.098700
     25 H1'         3.4520   -0.4100    4.3900 h2        1 5ID      0.147700
     26 H8          3.5680   -3.1090    1.6050 h4        1 5ID      0.174000
     27 H2          2.3880   -2.8440    8.0670 h5        1 5ID      0.054100
     28 H6N1        2.6790   -7.0110    4.7770 hn        1 5ID      0.443800
     29 H6N2        2.4040   -7.1500    6.4580 hn        1 5ID      0.443800
     30 H2'         5.0360   -1.2960    2.0340 h1        1 5ID      0.070700
     31 HA          5.6740    0.9110    2.2670 ho        1 5ID      0.425000
     32 H3'         3.7240   -0.5570    0.2010 h1        1 5ID      0.095700
     33 HB          3.6720    1.9150    1.5680 ho        1 5ID      0.421000
@<TRIPOS>BOND
     1    1    2 1   
     2    1   21 1   
     3    2    3 1   
     4    2   22 1   
     5    2   23 1   
     6    3    4 1   
     7    3   18 1   
     8    3   24 1   
     9    4    5 1   
    10    5    6 1   
    11    5   16 1   
    12    5   25 1   
    13    6    7 1   
    14    6   14 1   
    15    7    8 2   
    16    7   26 1   
    17    8    9 1   
    18    8   20 1   
    19    9   10 ar  
    20    9   14 ar  
    21   10   11 ar  
    22   10   15 1   
    23   11   12 ar  
    24   12   13 ar  
    25   12   27 1   
    26   13   14 ar  
    27   15   28 1   
    28   15   29 1   
    29   16   17 1   
    30   16   18 1   
    31   16   30 1   
    32   17   31 1   
    33   18   19 1   
    34   18   32 1   
    35   19   33 1   
@<TRIPOS>SUBSTRUCTURE
     1 5ID         1 TEMP              0 ****  ****    0 ROOT
