@<TRIPOS>MOLECULE
5ID
   34    36     1     0     0
SMALL
bcc


@<TRIPOS>ATOM
      1 O5'         0.6700   -1.8270    0.4240 oh        1 5ID     -0.600800
      2 C5'         1.9100   -1.1850    0.2170 c3        1 5ID      0.110400
      3 C4'         2.1750   -0.1170    1.2790 c3        1 5ID      0.082100
      4 O4'         1.5840   -0.5120    2.5320 os        1 5ID     -0.395600
      5 C1'         2.5740   -0.8930    3.4790 c3        1 5ID      0.209800
      6 N9          2.5080   -2.3370    3.7040 na        1 5ID     -0.171100
      7 C8          1.6880   -3.2540    3.0550 cc        1 5ID      0.054900
      8 C7          1.8090   -4.5300    3.6270 cd        1 5ID     -0.134400
      9 C5          2.7430   -4.4150    4.7070 ca        1 5ID     -0.247400
     10 C6          3.3180   -5.2360    5.6900 ca        1 5ID      0.497200
     11 N1          4.2060   -4.7690    6.6080 nb        1 5ID     -0.684000
     12 C2          4.5190   -3.4460    6.5350 ca        1 5ID      0.664900
     13 N3          4.0580   -2.5190    5.6560 nb        1 5ID     -0.620000
     14 C4          3.1750   -3.0010    4.7470 ca        1 5ID      0.467800
     15 N6          2.9570   -6.6670    5.7530 n4        1 5ID     -0.828300
     16 C2'         3.9590   -0.3910    2.9510 c3        1 5ID      0.089100
     17 O2'         4.4550    0.6260    3.7800 oh        1 5ID     -0.564800
     18 C3'         3.6770    0.1120    1.5150 c3        1 5ID      0.088100
     19 O3'         3.9010    1.5060    1.4350 oh        1 5ID     -0.583800
     20 IAE         0.8650   -6.1800    3.0550 i         1 5ID     -0.047800
     21 H5'        -0.0160   -1.1470    0.4340 ho        1 5ID      0.422000
     22 H5'1        2.6650   -2.0150    0.2670 h1        1 5ID      0.064700
     23 H5'2        1.9460   -0.7080   -0.7980 h1        1 5ID      0.064700
     24 H4'         1.6530    0.8470    1.0170 h1        1 5ID      0.118700
     25 H1'         2.3000   -0.3840    4.4540 h2        1 5ID      0.126700
     26 H8          1.0560   -2.9250    2.2070 h4        1 5ID      0.249000
     27 H2          5.2470   -3.0820    7.2980 h5        1 5ID      0.099100
     28 H6N1        2.2750   -6.8710    4.9970 hn        1 5ID      0.474133
     29 H6N2        3.7980   -7.2440    5.6300 hn        1 5ID      0.474133
     30 H2'         4.7480   -1.1900    2.9730 h1        1 5ID      0.108700
     31 HA          3.8970    1.4120    3.6650 ho        1 5ID      0.430000
     32 H3'         4.3060   -0.4340    0.7640 h1        1 5ID      0.075700
     33 HB          4.8580    1.6450    1.4830 ho        1 5ID      0.431000
     34 H63         2.5390   -6.8800    6.6670 hn        1 5ID      0.474133
@<TRIPOS>BOND
     1    1    2 1   
     2    1   21 1   
     3    2    3 1   
     4    2   22 1   
     5    2   23 1   
     6    3    4 1   
     7    3   18 1   
     8    3   24 1   
     9    4    5 1   
    10    5    6 1   
    11    5   16 1   
    12    5   25 1   
    13    6    7 1   
    14    6   14 1   
    15    7    8 2   
    16    7   26 1   
    17    8    9 1   
    18    8   20 1   
    19    9   10 ar  
    20    9   14 ar  
    21   10   11 ar  
    22   10   15 1   
    23   11   12 ar  
    24   12   13 ar  
    25   12   27 1   
    26   13   14 ar  
    27   15   28 1   
    28   15   29 1   
    29   15   34 1   
    30   16   17 1   
    31   16   18 1   
    32   16   30 1   
    33   17   31 1   
    34   18   19 1   
    35   18   32 1   
    36   19   33 1   
@<TRIPOS>SUBSTRUCTURE
     1 5ID         1 TEMP              0 ****  ****    0 ROOT
