@<TRIPOS>MOLECULE
5ID
   33    35     1     0     0
SMALL
bcc


@<TRIPOS>ATOM
      1 O5'        -3.0940   -2.3530    1.9710 oh        1 5ID     -0.588800
      2 C5'        -3.2920   -2.0700    0.6040 c3        1 5ID      0.121400
      3 C4'        -4.0060   -0.7310    0.4170 c3        1 5ID      0.053100
      4 O4'        -3.1910    0.3220    0.9460 os        1 5ID     -0.414600
      5 C1'        -2.6300    1.1340   -0.0990 c3        1 5ID      0.247800
      6 N9         -1.2110    0.9060   -0.2370 na        1 5ID     -0.184100
      7 C8         -0.5850   -0.1750   -0.8740 cc        1 5ID     -0.083100
      8 C7          0.7930   -0.1300   -0.6840 cd        1 5ID     -0.022400
      9 C5          1.0690    1.0210    0.1380 ca        1 5ID     -0.361400
     10 C6          2.2290    1.6490    0.6980 ca        1 5ID      0.747200
     11 N1          2.0810    2.7750    1.4760 nb        1 5ID     -0.792000
     12 C2          0.8210    3.2490    1.6540 ca        1 5ID      0.689900
     13 N3         -0.3550    2.7760    1.1840 nb        1 5ID     -0.740000
     14 C4         -0.2110    1.6480    0.4220 ca        1 5ID      0.497800
     15 N6          3.4880    1.1630    0.4430 nh        1 5ID     -0.962500
     16 C2'        -3.4360    0.8210   -1.3970 c3        1 5ID      0.075100
     17 O2'        -4.2490    1.9540   -1.6290 oh        1 5ID     -0.585800
     18 C3'        -4.2990   -0.4170   -1.0590 c3        1 5ID      0.087100
     19 O3'        -5.6630   -0.1570   -1.2970 oh        1 5ID     -0.584800
     20 IAE         2.0820   -1.4470   -1.4380 i         1 5ID     -0.095800
     21 H5'        -2.6160   -1.6030    2.3520 ho        1 5ID      0.417000
     22 H5'1       -3.9340   -2.9070    0.2210 h1        1 5ID      0.050700
     23 H5'2       -2.3070   -2.0620    0.0640 h1        1 5ID      0.050700
     24 H4'        -4.9450   -0.7130    1.0390 h1        1 5ID      0.098700
     25 H1'        -2.7930    2.2040    0.2390 h2        1 5ID      0.147700
     26 H8         -1.1790   -0.8980   -1.4400 h4        1 5ID      0.174000
     27 H2          0.7510    4.1630    2.2840 h5        1 5ID      0.054100
     28 H6N1        4.2730    1.5520    0.9050 hn        1 5ID      0.443800
     29 H6N2        3.5760    0.2810   -0.0000 hn        1 5ID      0.443800
     30 H2'        -2.7790    0.6310   -2.2860 h1        1 5ID      0.070700
     31 HA         -4.7980    1.7500   -2.4010 ho        1 5ID      0.425000
     32 H3'        -4.0560   -1.2870   -1.7260 h1        1 5ID      0.095700
     33 HB         -5.9290    0.5720   -0.7160 ho        1 5ID      0.421000
@<TRIPOS>BOND
     1    1    2 1   
     2    1   21 1   
     3    2    3 1   
     4    2   22 1   
     5    2   23 1   
     6    3    4 1   
     7    3   18 1   
     8    3   24 1   
     9    4    5 1   
    10    5    6 1   
    11    5   16 1   
    12    5   25 1   
    13    6    7 1   
    14    6   14 1   
    15    7    8 2   
    16    7   26 1   
    17    8    9 1   
    18    8   20 1   
    19    9   10 ar  
    20    9   14 ar  
    21   10   11 ar  
    22   10   15 1   
    23   11   12 ar  
    24   12   13 ar  
    25   12   27 1   
    26   13   14 ar  
    27   15   28 1   
    28   15   29 1   
    29   16   17 1   
    30   16   18 1   
    31   16   30 1   
    32   17   31 1   
    33   18   19 1   
    34   18   32 1   
    35   19   33 1   
@<TRIPOS>SUBSTRUCTURE
     1 5ID         1 TEMP              0 ****  ****    0 ROOT
