@<TRIPOS>MOLECULE
5IG
   55    57     1     0     0
SMALL
bcc


@<TRIPOS>ATOM
      1 C1         -3.0520   -0.1350    1.4910 ca        1 5IG      0.719200
      2 N1         -4.3540    0.2820    1.5430 nb        1 5IG     -0.821000
      3 C2         -5.0900    0.1460    0.3800 ca        1 5IG      0.903900
      4 N2         -4.6060   -0.3390   -0.8260 nb        1 5IG     -0.786000
      5 C3         -3.3230   -0.7620   -0.8430 ca        1 5IG      0.527600
      6 C4         -2.4890   -0.7090    0.2960 cp        1 5IG     -0.395600
      7 N3         -2.2510    0.0660    2.6090 nh        1 5IG     -0.943500
      8 N4         -6.4510    0.4680    0.4460 nh        1 5IG     -0.927500
      9 C6         -2.7940   -1.2960   -2.1500 c3        1 5IG     -0.139700
     10 C7         -0.8520   -2.5720    0.2230 ca        1 5IG     -0.128000
     11 C8          0.4580   -3.0410    0.2340 ca        1 5IG     -0.123000
     12 C9          1.5130   -2.1310    0.3370 ca        1 5IG      0.070100
     13 C10         1.2780   -0.7330    0.4250 ca        1 5IG      0.019600
     14 C11        -0.0560   -0.2850    0.3920 ca        1 5IG     -0.142000
     15 C12        -1.1140   -1.1980    0.2970 cp        1 5IG     -0.011000
     16 O3          2.7890   -2.6590    0.4290 os        1 5IG     -0.315900
     17 C14         3.8300   -1.8190   -0.1050 c3        1 5IG      0.097800
     18 C15         3.6640   -0.3410    0.2880 c         1 5IG      0.680500
     19 N5          2.3790    0.1390    0.5500 n         1 5IG     -0.365000
     20 C16         2.1790    1.5430    0.8380 c3        1 5IG      0.092000
     21 C17         1.8810    2.4120   -0.3840 c3        1 5IG     -0.109400
     22 C18         1.6940    3.8510    0.0640 c3        1 5IG      0.130400
     23 O1          1.3540    4.5960   -1.1050 os        1 5IG     -0.420600
     24 C19         1.1840    5.9760   -0.8370 c3        1 5IG      0.115700
     25 C21         5.1180   -2.3680    0.4980 c3        1 5IG     -0.102100
     26 C20         3.8450   -1.9100   -1.6250 c3        1 5IG     -0.102100
     27 O4          4.6500    0.4130    0.3580 o         1 5IG     -0.615500
     28 C5         -2.6690   -0.2060   -3.1860 c3        1 5IG     -0.087100
     29 HN31       -2.7010    0.2610    3.4730 hn        1 5IG      0.423800
     30 HN32       -1.4300   -0.4930    2.6560 hn        1 5IG      0.423800
     31 HN41       -6.9120    0.6160   -0.4220 hn        1 5IG      0.425800
     32 HN42       -6.7350    1.0480    1.2000 hn        1 5IG      0.425800
     33 H61        -3.4850   -2.0980   -2.5270 hc        1 5IG      0.061200
     34 H62        -1.7920   -1.7710   -1.9770 hc        1 5IG      0.061200
     35 H8          0.6790   -4.1160    0.1750 ha        1 5IG      0.154000
     36 H11        -0.2890    0.7900    0.4380 ha        1 5IG      0.154000
     37 H161        1.3360    1.6370    1.5800 h1        1 5IG      0.067200
     38 H162        3.1220    1.9260    1.3290 h1        1 5IG      0.067200
     39 H171        2.7270    2.3570   -1.1170 hc        1 5IG      0.066700
     40 H172        0.9560    2.0620   -0.9110 hc        1 5IG      0.066700
     41 H181        0.8650    3.9370    0.8160 h1        1 5IG      0.028200
     42 H182        2.6390    4.2590    0.5120 h1        1 5IG      0.028200
     43 H191        0.9240    6.4230   -1.8290 h1        1 5IG      0.033700
     44 H192        0.3550    6.1370   -0.1040 h1        1 5IG      0.033700
     45 H193        2.1310    6.4220   -0.4420 h1        1 5IG      0.033700
     46 H211        5.2830   -3.4120    0.1420 hc        1 5IG      0.059533
     47 H212        5.9710   -1.7200    0.1830 hc        1 5IG      0.059533
     48 H213        5.0490   -2.3720    1.6110 hc        1 5IG      0.059533
     49 H201        2.8710   -1.5620   -2.0450 hc        1 5IG      0.059533
     50 H202        4.6700   -1.2780   -2.0310 hc        1 5IG      0.059533
     51 H203        4.0080   -2.9710   -1.9330 hc        1 5IG      0.059533
     52 H51        -2.0020    0.6120   -2.8230 hc        1 5IG      0.041033
     53 H52        -2.2320   -0.6290   -4.1240 hc        1 5IG      0.041033
     54 H53        -3.6670    0.2320   -3.4270 hc        1 5IG      0.041033
     55 H7         -1.6870   -3.2850    0.1500 ha        1 5IG      0.145000
@<TRIPOS>BOND
     1    1    2 ar  
     2    1    6 ar  
     3    1    7 1   
     4    2    3 ar  
     5    3    4 ar  
     6    3    8 1   
     7    4    5 ar  
     8    5    6 ar  
     9    5    9 1   
    10    6   15 1   
    11    7   29 1   
    12    7   30 1   
    13    8   31 1   
    14    8   32 1   
    15    9   28 1   
    16    9   33 1   
    17    9   34 1   
    18   10   11 ar  
    19   10   15 ar  
    20   10   55 1   
    21   11   12 ar  
    22   11   35 1   
    23   12   13 ar  
    24   12   16 1   
    25   13   14 ar  
    26   13   19 1   
    27   14   15 ar  
    28   14   36 1   
    29   16   17 1   
    30   17   18 1   
    31   17   25 1   
    32   17   26 1   
    33   18   19 1   
    34   18   27 2   
    35   19   20 1   
    36   20   21 1   
    37   20   37 1   
    38   20   38 1   
    39   21   22 1   
    40   21   39 1   
    41   21   40 1   
    42   22   23 1   
    43   22   41 1   
    44   22   42 1   
    45   23   24 1   
    46   24   43 1   
    47   24   44 1   
    48   24   45 1   
    49   25   46 1   
    50   25   47 1   
    51   25   48 1   
    52   26   49 1   
    53   26   50 1   
    54   26   51 1   
    55   28   52 1   
    56   28   53 1   
    57   28   54 1   
@<TRIPOS>SUBSTRUCTURE
     1 5IG         1 TEMP              0 ****  ****    0 ROOT
