@<TRIPOS>MOLECULE
5IG
   55    57     1     0     0
SMALL
bcc


@<TRIPOS>ATOM
      1 C1         -0.0660   -0.1930   -0.0530 ca        1 5IG      0.719200
      2 N1          1.2920   -0.2720   -0.1910 nb        1 5IG     -0.821000
      3 C2          2.0360   -0.1680    0.9700 ca        1 5IG      0.903900
      4 N2          1.5180    0.0430    2.2400 nb        1 5IG     -0.786000
      5 C3          0.1730    0.0970    2.3490 ca        1 5IG      0.527600
      6 C4         -0.6870   -0.0370    1.2370 cp        1 5IG     -0.395600
      7 N3         -0.8460   -0.2020   -1.2030 nh        1 5IG     -0.943500
      8 N4          3.4190   -0.3540    0.8610 nh        1 5IG     -0.927500
      9 C6         -0.3950    0.3210    3.7280 c3        1 5IG     -0.139700
     10 C7         -2.8200   -1.0880    1.9470 ca        1 5IG     -0.128000
     11 C8         -4.2070   -1.0750    2.0480 ca        1 5IG     -0.123000
     12 C9         -4.9240    0.0080    1.5330 ca        1 5IG      0.070100
     13 C10        -4.2660    1.1030    0.9130 ca        1 5IG      0.019600
     14 C11        -2.8610    1.0730    0.8420 ca        1 5IG     -0.142000
     15 C12        -2.1420   -0.0170    1.3500 cp        1 5IG     -0.011000
     16 O3         -6.3050   -0.0740    1.5850 os        1 5IG     -0.315900
     17 C14        -6.9810    1.1940    1.6820 c3        1 5IG      0.097800
     18 C15        -6.3860    2.2600    0.7470 c         1 5IG      0.680500
     19 N5         -5.0400    2.1580    0.3900 n         1 5IG     -0.365000
     20 C16        -4.4280    3.1920   -0.4170 c3        1 5IG      0.092000
     21 C17        -3.7760    4.3240    0.3760 c3        1 5IG     -0.109400
     22 C18        -3.1780    5.3290   -0.5920 c3        1 5IG      0.130400
     23 O1         -2.5310    6.3200    0.2040 os        1 5IG     -0.420600
     24 C19        -1.9530    7.3510   -0.5780 c3        1 5IG      0.115700
     25 C21        -8.4190    0.8980    1.2730 c3        1 5IG     -0.102100
     26 C20        -6.9050    1.7160    3.1110 c3        1 5IG     -0.102100
     27 O4         -7.0840    3.2000    0.3280 o         1 5IG     -0.615500
     28 C5         -0.0880    1.7070    4.2380 c3        1 5IG     -0.087100
     29 HN31       -1.8030   -0.4380   -1.0720 hn        1 5IG      0.423800
     30 HN32       -0.4260   -0.5180   -2.0470 hn        1 5IG      0.423800
     31 HN41        3.8130   -0.2420   -0.0440 hn        1 5IG      0.425800
     32 HN42        3.9700   -0.0340    1.6240 hn        1 5IG      0.425800
     33 H61        -1.5060    0.1650    3.7000 hc        1 5IG      0.061200
     34 H62         0.0340   -0.4430    4.4310 hc        1 5IG      0.061200
     35 H8         -4.7520   -1.9090    2.5150 ha        1 5IG      0.154000
     36 H11        -2.3020    1.9060    0.3880 ha        1 5IG      0.154000
     37 H161       -5.2360    3.6320   -1.0730 h1        1 5IG      0.067200
     38 H162       -3.6590    2.7110   -1.0870 h1        1 5IG      0.067200
     39 H171       -2.9710    3.9310    1.0500 hc        1 5IG      0.066700
     40 H172       -4.5360    4.8360    1.0220 hc        1 5IG      0.066700
     41 H181       -3.9770    5.8090   -1.2190 h1        1 5IG      0.028200
     42 H182       -2.4250    4.8420   -1.2690 h1        1 5IG      0.028200
     43 H191       -1.4890    8.0410    0.1700 h1        1 5IG      0.033700
     44 H192       -1.1750    6.9360   -1.2650 h1        1 5IG      0.033700
     45 H193       -2.7370    7.8840   -1.1710 h1        1 5IG      0.033700
     46 H211       -8.4420    0.4360    0.2580 hc        1 5IG      0.059533
     47 H212       -8.8780    0.1900    2.0030 hc        1 5IG      0.059533
     48 H213       -8.9960    1.8540    1.2560 hc        1 5IG      0.059533
     49 H201       -7.4530    2.6850    3.1850 hc        1 5IG      0.059533
     50 H202       -5.8420    1.8670    3.4140 hc        1 5IG      0.059533
     51 H203       -7.3720    0.9750    3.8030 hc        1 5IG      0.059533
     52 H51        -0.4870    2.4840    3.5420 hc        1 5IG      0.041033
     53 H52        -0.5610    1.8520    5.2390 hc        1 5IG      0.041033
     54 H53         1.0140    1.8590    4.3420 hc        1 5IG      0.041033
     55 H7         -2.2500   -1.9420    2.3440 ha        1 5IG      0.145000
@<TRIPOS>BOND
     1    1    2 ar  
     2    1    6 ar  
     3    1    7 1   
     4    2    3 ar  
     5    3    4 ar  
     6    3    8 1   
     7    4    5 ar  
     8    5    6 ar  
     9    5    9 1   
    10    6   15 1   
    11    7   29 1   
    12    7   30 1   
    13    8   31 1   
    14    8   32 1   
    15    9   28 1   
    16    9   33 1   
    17    9   34 1   
    18   10   11 ar  
    19   10   15 ar  
    20   10   55 1   
    21   11   12 ar  
    22   11   35 1   
    23   12   13 ar  
    24   12   16 1   
    25   13   14 ar  
    26   13   19 1   
    27   14   15 ar  
    28   14   36 1   
    29   16   17 1   
    30   17   18 1   
    31   17   25 1   
    32   17   26 1   
    33   18   19 1   
    34   18   27 2   
    35   19   20 1   
    36   20   21 1   
    37   20   37 1   
    38   20   38 1   
    39   21   22 1   
    40   21   39 1   
    41   21   40 1   
    42   22   23 1   
    43   22   41 1   
    44   22   42 1   
    45   23   24 1   
    46   24   43 1   
    47   24   44 1   
    48   24   45 1   
    49   25   46 1   
    50   25   47 1   
    51   25   48 1   
    52   26   49 1   
    53   26   50 1   
    54   26   51 1   
    55   28   52 1   
    56   28   53 1   
    57   28   54 1   
@<TRIPOS>SUBSTRUCTURE
     1 5IG         1 TEMP              0 ****  ****    0 ROOT
