@<TRIPOS>MOLECULE
5IG
   55    57     1     0     0
SMALL
bcc


@<TRIPOS>ATOM
      1 C1         -0.0810   -0.1990   -0.0810 ca        1 5IG      0.719200
      2 N1          1.2760   -0.2790   -0.2330 nb        1 5IG     -0.821000
      3 C2          2.0320   -0.1740    0.9200 ca        1 5IG      0.903900
      4 N2          1.5280    0.0410    2.1950 nb        1 5IG     -0.786000
      5 C3          0.1840    0.0960    2.3180 ca        1 5IG      0.527600
      6 C4         -0.6880   -0.0400    1.2150 cp        1 5IG     -0.395600
      7 N3         -0.8740   -0.2100   -1.2220 nv        1 5IG     -0.943500
      8 N4          3.4140   -0.3600    0.7960 nv        1 5IG     -0.927500
      9 C6         -0.3690    0.3230    3.7020 c3        1 5IG     -0.139700
     10 C7         -2.8140   -1.0880    1.9510 ca        1 5IG     -0.128000
     11 C8         -4.2000   -1.0740    2.0660 ca        1 5IG     -0.123000
     12 C9         -4.9220    0.0080    1.5560 ca        1 5IG      0.070100
     13 C10        -4.2690    1.1010    0.9260 ca        1 5IG      0.019600
     14 C11        -2.8650    1.0700    0.8410 ca        1 5IG     -0.142000
     15 C12        -2.1420   -0.0180    1.3440 cp        1 5IG     -0.011000
     16 O3         -6.3020   -0.0720    1.6220 os        1 5IG     -0.315900
     17 C14        -6.9760    1.1960    1.7240 c3        1 5IG      0.097800
     18 C15        -6.3900    2.2600    0.7790 c         1 5IG      0.680500
     19 N5         -5.0480    2.1560    0.4090 n         1 5IG     -0.365000
     20 C16        -4.4440    3.1880   -0.4070 c3        1 5IG      0.092000
     21 C17        -3.7830    4.3210    0.3760 c3        1 5IG     -0.109400
     22 C18        -3.1940    5.3230   -0.6000 c3        1 5IG      0.130400
     23 O1         -2.5370    6.3150    0.1860 os        1 5IG     -0.420600
     24 C19        -1.9670    7.3440   -0.6040 c3        1 5IG      0.115700
     25 C21        -8.4180    0.9000    1.3300 c3        1 5IG     -0.102100
     26 C20        -6.8860    1.7220    3.1500 c3        1 5IG     -0.102100
     27 O4         -7.0920    3.1990    0.3660 o         1 5IG     -0.615500
     28 C5         -0.0560    1.7100    4.2060 c3        1 5IG     -0.087100
     29 HN31       -0.4630   -0.5280   -2.0700 hn        1 5IG      0.423800
     30 HN32       -1.8290   -0.4450   -1.0810 hn        1 5IG      0.423800
     31 HN41        3.9720   -0.0390    1.5520 hn        1 5IG      0.425800
     32 HN42        3.7980   -0.2510   -0.1130 hn        1 5IG      0.425800
     33 H61         0.0670   -0.4400    4.4030 hc        1 5IG      0.061200
     34 H62        -1.4800    0.1670    3.6870 hc        1 5IG      0.061200
     35 H8         -4.7400   -1.9050    2.5410 ha        1 5IG      0.154000
     36 H11        -2.3110    1.9030    0.3790 ha        1 5IG      0.154000
     37 H161       -5.2590    3.6270   -1.0550 h1        1 5IG      0.067200
     38 H162       -3.6830    2.7040   -1.0840 h1        1 5IG      0.067200
     39 H171       -2.9710    3.9290    1.0430 hc        1 5IG      0.066700
     40 H172       -4.5350    4.8350    1.0290 hc        1 5IG      0.066700
     41 H181       -2.4490    4.8340   -1.2840 h1        1 5IG      0.028200
     42 H182       -3.9990    5.8030   -1.2200 h1        1 5IG      0.028200
     43 H191       -2.7570    7.8770   -1.1890 h1        1 5IG      0.033700
     44 H192       -1.4940    8.0350    0.1370 h1        1 5IG      0.033700
     45 H193       -1.1960    6.9260   -1.2990 h1        1 5IG      0.033700
     46 H211       -8.8710    0.1950    2.0670 hc        1 5IG      0.059533
     47 H212       -8.9950    1.8570    1.3170 hc        1 5IG      0.059533
     48 H213       -8.4520    0.4350    0.3170 hc        1 5IG      0.059533
     49 H201       -5.8190    1.8740    3.4420 hc        1 5IG      0.059533
     50 H202       -7.4320    2.6920    3.2280 hc        1 5IG      0.059533
     51 H203       -7.3450    0.9830    3.8490 hc        1 5IG      0.059533
     52 H51        -0.4630    2.4850    3.5130 hc        1 5IG      0.041033
     53 H52         1.0470    1.8610    4.2980 hc        1 5IG      0.041033
     54 H53        -0.5180    1.8570    5.2120 hc        1 5IG      0.041033
     55 H7         -2.2410   -1.9410    2.3440 ha        1 5IG      0.145000
@<TRIPOS>BOND
     1    1    2 ar  
     2    1    6 ar  
     3    1    7 1   
     4    2    3 ar  
     5    3    4 ar  
     6    3    8 1   
     7    4    5 ar  
     8    5    6 ar  
     9    5    9 1   
    10    6   15 1   
    11    7   29 1   
    12    7   30 1   
    13    8   31 1   
    14    8   32 1   
    15    9   28 1   
    16    9   33 1   
    17    9   34 1   
    18   10   11 ar  
    19   10   15 ar  
    20   10   55 1   
    21   11   12 ar  
    22   11   35 1   
    23   12   13 ar  
    24   12   16 1   
    25   13   14 ar  
    26   13   19 1   
    27   14   15 ar  
    28   14   36 1   
    29   16   17 1   
    30   17   18 1   
    31   17   25 1   
    32   17   26 1   
    33   18   19 1   
    34   18   27 2   
    35   19   20 1   
    36   20   21 1   
    37   20   37 1   
    38   20   38 1   
    39   21   22 1   
    40   21   39 1   
    41   21   40 1   
    42   22   23 1   
    43   22   41 1   
    44   22   42 1   
    45   23   24 1   
    46   24   43 1   
    47   24   44 1   
    48   24   45 1   
    49   25   46 1   
    50   25   47 1   
    51   25   48 1   
    52   26   49 1   
    53   26   50 1   
    54   26   51 1   
    55   28   52 1   
    56   28   53 1   
    57   28   54 1   
@<TRIPOS>SUBSTRUCTURE
     1 5IG         1 TEMP              0 ****  ****    0 ROOT
