@<TRIPOS>MOLECULE
5IG
   55    50     1     0     0
SMALL
bcc


@<TRIPOS>ATOM
      1 C1          3.0250    2.5630   -0.8910 c1        1 5IG      0.269800
      2 N1          4.3630    2.5220   -0.9820 n1        1 5IG     -0.627800
      3 C2          5.1140    2.1460    0.1020 c1        1 5IG      0.573600
      4 N2          4.4920    1.8100    1.2900 n1        1 5IG     -0.585800
      5 C3          3.1730    1.8480    1.3850 c1        1 5IG      0.460700
      6 C4          2.4100    2.2270    0.2910 c1        1 5IG     -0.286000
      7 N3          2.2530    3.0980   -1.9720 n3        1 5IG     -0.817400
      8 N4          6.5360    2.2410    0.0510 n3        1 5IG     -0.795400
      9 C6          2.4910    1.4930    2.7030 c3        1 5IG     -0.069300
     10 C7          0.1950    3.0190    1.0350 c1        1 5IG     -0.083500
     11 C8         -1.2140    2.8090    1.1500 c1        1 5IG     -0.064500
     12 C9         -1.8120    1.6490    0.5680 c1        1 5IG      0.052600
     13 C10        -0.9750    0.6660   -0.1530 c1        1 5IG      0.036200
     14 C11         0.4100    0.8760   -0.2640 c1        1 5IG     -0.079500
     15 C12         1.0150    2.0600    0.3300 c1        1 5IG     -0.002000
     16 O3         -3.2760    1.3360    0.7480 os        1 5IG     -0.299400
     17 C14        -3.7670    0.2820    0.1100 c3        1 5IG      0.097800
     18 C15        -2.7670   -0.8770    0.0300 c         1 5IG      0.644100
     19 N5         -1.5620   -0.6260   -0.4560 n         1 5IG     -0.379600
     20 C16        -0.7440   -1.6960   -0.9460 c3        1 5IG      0.096000
     21 C17        -1.5740   -2.6390   -1.7100 c3        1 5IG     -0.140400
     22 C18        -0.7600   -4.0510   -1.9010 c3        1 5IG      0.128400
     23 O1         -1.6780   -5.1010   -2.0970 os        1 5IG     -0.415600
     24 C19        -1.2780   -6.3400   -1.5010 c3        1 5IG      0.112700
     25 C21        -4.3050    0.6670   -1.3010 c3        1 5IG     -0.102100
     26 C20        -5.0760   -0.1880    0.7980 c3        1 5IG     -0.102100
     27 O4         -3.1570   -2.0650    0.1960 o         1 5IG     -0.581100
     28 C5          3.5230    1.0150    3.6920 c3        1 5IG     -0.083100
     29 HN31        2.6980    3.3880   -2.7900 hn        1 5IG      0.430300
     30 HN32        1.3290    3.2330   -1.8680 hn        1 5IG      0.430300
     31 HN41        7.0560    2.0380    0.8350 hn        1 5IG      0.428800
     32 HN42        6.9190    2.5970   -0.6390 hn        1 5IG      0.428800
     33 H61         1.7990    0.7460    2.5430 hc        1 5IG      0.059700
     34 H62         2.0130    2.3320    3.0810 hc        1 5IG      0.059700
     35 H7          0.6010    3.8610    1.3830 ha        1 5IG      0.083500
     36 H8         -1.7630    3.4540    1.6230 ha        1 5IG      0.095500
     37 H11         0.9910    0.1860   -0.7130 ha        1 5IG      0.094500
     38 H161       -0.0770   -1.3500   -1.5030 h1        1 5IG      0.066700
     39 H162       -0.3410   -2.1490   -0.2140 h1        1 5IG      0.066700
     40 H171       -1.7860   -2.2340   -2.6410 hc        1 5IG      0.061200
     41 H172       -2.3950   -2.8000   -1.2370 hc        1 5IG      0.061200
     42 H181       -0.2390   -4.2270   -1.1250 h1        1 5IG      0.048700
     43 H182       -0.1710   -3.9840   -2.6790 h1        1 5IG      0.048700
     44 H191       -0.4440   -6.6730   -1.9500 h1        1 5IG      0.034033
     45 H192       -1.0990   -6.2000   -0.5300 h1        1 5IG      0.034033
     46 H193       -2.0180   -7.0210   -1.6120 h1        1 5IG      0.034033
     47 H211       -3.5850    1.1780   -1.8110 hc        1 5IG      0.059200
     48 H212       -5.1250    1.2490   -1.2050 hc        1 5IG      0.059200
     49 H213       -4.5420   -0.1620   -1.8030 hc        1 5IG      0.059200
     50 H201       -5.7170    0.5860    0.8640 hc        1 5IG      0.059200
     51 H202       -4.8780   -0.5070    1.6650 hc        1 5IG      0.059200
     52 H203       -5.4830   -0.9060    0.2710 hc        1 5IG      0.059200
     53 H51         3.8840    0.0530    3.3970 hc        1 5IG      0.040367
     54 H52         3.0900    0.9500    4.6390 hc        1 5IG      0.040367
     55 H53         4.2320    1.6170    3.7160 hc        1 5IG      0.040367
@<TRIPOS>BOND
     1    1    6 3   
     2    1    7 1   
     3    2    3 3   
     4    3    8 1   
     5    4    5 3   
     6    5    9 1   
     7    7   29 1   
     8    7   30 1   
     9    8   31 1   
    10    8   32 1   
    11    9   28 1   
    12    9   33 1   
    13    9   34 1   
    14   10   15 3   
    15   10   35 1   
    16   11   12 3   
    17   11   36 1   
    18   12   16 1   
    19   13   14 3   
    20   13   19 1   
    21   14   37 1   
    22   16   17 1   
    23   17   18 1   
    24   17   25 1   
    25   17   26 1   
    26   18   19 1   
    27   18   27 2   
    28   19   20 1   
    29   20   21 1   
    30   20   38 1   
    31   20   39 1   
    32   21   22 1   
    33   21   40 1   
    34   21   41 1   
    35   22   23 1   
    36   22   42 1   
    37   22   43 1   
    38   23   24 1   
    39   24   44 1   
    40   24   45 1   
    41   24   46 1   
    42   25   47 1   
    43   25   48 1   
    44   25   49 1   
    45   26   50 1   
    46   26   51 1   
    47   26   52 1   
    48   28   53 1   
    49   28   54 1   
    50   28   55 1   
@<TRIPOS>SUBSTRUCTURE
     1 5IG         1 TEMP              0 ****  ****    0 ROOT
