@<TRIPOS>MOLECULE
5IG
   57    59     1     0     0
SMALL
bcc


@<TRIPOS>ATOM
      1 C1         -0.1160    1.0260    0.2490 ca        1 5IG      0.476200
      2 N1          1.2400    1.1760    0.1130 nb        1 5IG     -0.666000
      3 C2          1.9570    0.9280    1.2380 ca        1 5IG      0.717900
      4 N2          1.4680    0.5690    2.4780 nb        1 5IG     -0.639000
      5 C3          0.1360    0.4320    2.5930 ca        1 5IG      0.522600
      6 C4         -0.7470    0.6390    1.4610 cp        1 5IG     -0.094600
      7 N3         -0.9260    1.2880   -0.9550 n4        1 5IG     -0.829300
      8 N4          3.4400    1.0610    1.1440 n4        1 5IG     -0.812300
      9 C6         -0.4450    0.0690    3.9320 c3        1 5IG     -0.151700
     10 C7         -2.7370   -0.6970    2.1010 ca        1 5IG     -0.063000
     11 C8         -4.1170   -0.8540    2.1700 ca        1 5IG     -0.132000
     12 C9         -4.9610    0.1400    1.6580 ca        1 5IG      0.170100
     13 C10        -4.4180    1.3110    1.0320 ca        1 5IG      0.044600
     14 C11        -3.0270    1.4700    1.0310 ca        1 5IG     -0.195000
     15 C12        -2.1800    0.4610    1.5380 cp        1 5IG     -0.175000
     16 O3         -6.3030   -0.0900    1.7190 os        1 5IG     -0.288900
     17 C14        -7.1740    1.0710    1.6460 c3        1 5IG      0.102800
     18 C15        -6.6690    2.1420    0.6700 c         1 5IG      0.681500
     19 N5         -5.2820    2.2250    0.4240 n         1 5IG     -0.382000
     20 C16        -4.7600    3.1790   -0.5310 c3        1 5IG      0.093000
     21 C17        -4.0990    4.4230    0.0640 c3        1 5IG     -0.116400
     22 C18        -3.1340    5.0360   -0.9310 c3        1 5IG      0.133400
     23 O1         -1.9750    4.1850   -1.0350 os        1 5IG     -0.522600
     24 C19        -0.9470    4.8040   -1.8020 c3        1 5IG      0.111700
     25 C21        -8.5030    0.5100    1.1550 c3        1 5IG     -0.110600
     26 C20        -7.2970    1.6860    3.0310 c3        1 5IG     -0.110600
     27 O4         -7.4360    2.9400    0.1220 o         1 5IG     -0.540500
     28 C5          0.3330    0.5960    5.1120 c3        1 5IG     -0.100100
     29 HN31       -1.2050    2.2910   -0.9720 hn        1 5IG      0.494800
     30 HN32       -1.7830    0.7110   -0.9020 hn        1 5IG      0.494800
     31 HN41        3.7580    1.7650    1.8280 hn        1 5IG      0.494467
     32 HN42        3.7220    1.3490    0.1960 hn        1 5IG      0.494467
     33 H61        -1.5010    0.4610    3.9730 hc        1 5IG      0.099700
     34 H62        -0.4940   -1.0560    3.9870 hc        1 5IG      0.099700
     35 H11        -2.5980    2.4330    0.7040 ha        1 5IG      0.152000
     36 H161       -5.6160    3.5080   -1.1920 h1        1 5IG      0.067200
     37 H162       -4.0060    2.6420   -1.1790 h1        1 5IG      0.067200
     38 H171       -4.8890    5.1880    0.2970 hc        1 5IG      0.078200
     39 H172       -3.5650    4.2010    1.0230 hc        1 5IG      0.078200
     40 H181       -2.8070    6.0500   -0.5760 h1        1 5IG      0.064200
     41 H182       -3.5960    5.1250   -1.9500 h1        1 5IG      0.064200
     42 H191       -1.3040    5.0050   -2.8420 h1        1 5IG      0.045367
     43 H192       -0.6180    5.7570   -1.3180 h1        1 5IG      0.045367
     44 H193       -0.1070    4.0650   -1.8100 h1        1 5IG      0.045367
     45 H211       -8.9040   -0.2130    1.9050 hc        1 5IG      0.076367
     46 H212       -9.2240    1.3530    1.0220 hc        1 5IG      0.076367
     47 H213       -8.3690   -0.0170    0.1800 hc        1 5IG      0.076367
     48 H201       -6.3090    2.0580    3.3900 hc        1 5IG      0.076367
     49 H202       -8.0220    2.5370    2.9960 hc        1 5IG      0.076367
     50 H203       -7.6760    0.9180    3.7490 hc        1 5IG      0.076367
     51 H51         1.3360    0.1130    5.1920 hc        1 5IG      0.065367
     52 H52         0.4690    1.7020    5.0440 hc        1 5IG      0.065367
     53 H53        -0.2360    0.3700    6.0500 hc        1 5IG      0.065367
     54 H7         -2.0880   -1.5020    2.4820 ha        1 5IG      0.154000
     55 H33        -0.4070    1.0640   -1.8140 hn        1 5IG      0.494800
     56 H43         3.8720    0.1520    1.3700 hn        1 5IG      0.494467
     57 H8         -4.5640   -1.7580    2.6180 ha        1 5IG      0.194000
@<TRIPOS>BOND
     1    1    2 ar  
     2    1    6 ar  
     3    1    7 1   
     4    2    3 ar  
     5    3    4 ar  
     6    3    8 1   
     7    4    5 ar  
     8    5    6 ar  
     9    5    9 1   
    10    6   15 1   
    11    7   29 1   
    12    7   30 1   
    13    7   55 1   
    14    8   31 1   
    15    8   32 1   
    16    8   56 1   
    17    9   28 1   
    18    9   33 1   
    19    9   34 1   
    20   10   11 ar  
    21   10   15 ar  
    22   10   54 1   
    23   11   12 ar  
    24   11   57 1   
    25   12   13 ar  
    26   12   16 1   
    27   13   14 ar  
    28   13   19 1   
    29   14   15 ar  
    30   14   35 1   
    31   16   17 1   
    32   17   18 1   
    33   17   25 1   
    34   17   26 1   
    35   18   19 1   
    36   18   27 2   
    37   19   20 1   
    38   20   21 1   
    39   20   36 1   
    40   20   37 1   
    41   21   22 1   
    42   21   38 1   
    43   21   39 1   
    44   22   23 1   
    45   22   40 1   
    46   22   41 1   
    47   23   24 1   
    48   24   42 1   
    49   24   43 1   
    50   24   44 1   
    51   25   45 1   
    52   25   46 1   
    53   25   47 1   
    54   26   48 1   
    55   26   49 1   
    56   26   50 1   
    57   28   51 1   
    58   28   52 1   
    59   28   53 1   
@<TRIPOS>SUBSTRUCTURE
     1 5IG         1 TEMP              0 ****  ****    0 ROOT
