@<TRIPOS>MOLECULE
5IN
   73    75     1     0     0
SMALL
bcc


@<TRIPOS>ATOM
      1 C1          0.4210   -0.4300    0.9030 c3        1 5IN      0.175700
      2 O2          1.8500   -0.4060    0.9260 os        1 5IN     -0.423600
      3 C3          2.3600   -0.2030    2.2380 c3        1 5IN      0.100400
      4 C4          3.8940   -0.0560    2.1270 c3        1 5IN      0.041700
      5 N5          4.3270    1.0990    1.3820 n         1 5IN     -0.546900
      6 C6          4.1650    2.3730    1.8930 c         1 5IN      0.658100
      7 C7          4.5310    3.5390    0.9390 c3        1 5IN      0.181500
      8 N8          4.7410    4.7600    1.6560 n3        1 5IN     -0.909100
      9 S9          5.9890    5.7690    1.4410 s6        1 5IN      1.452900
     10 C10         5.2820    6.9770    0.4110 c3        1 5IN     -0.248300
     11 C11         6.2320    8.0530    0.0410 ca        1 5IN     -0.074300
     12 C12         7.3220    7.7730   -0.7950 ca        1 5IN     -0.114500
     13 C13         8.1980    8.7900   -1.1680 ca        1 5IN     -0.127000
     14 C14         7.9930   10.0930   -0.7140 ca        1 5IN     -0.121000
     15 C15         6.9110   10.3770    0.1180 ca        1 5IN     -0.127000
     16 C16         6.0310    9.3620    0.4940 ca        1 5IN     -0.114500
     17 O17         6.3270    6.3610    2.6680 o         1 5IN     -0.643800
     18 O18         7.0030    5.1110    0.7130 o         1 5IN     -0.643800
     19 C19         3.4290    3.6360   -0.1450 c3        1 5IN      0.111400
     20 O20         2.1990    3.9150    0.4950 oh        1 5IN     -0.592800
     21 O21         3.7860    2.5600    3.0640 o         1 5IN     -0.595100
     22 C22         4.4690   -1.3530    1.5090 c         1 5IN      0.658100
     23 O23         4.8460   -1.4110    0.3230 o         1 5IN     -0.600100
     24 N24         4.5820   -2.4330    2.3650 n         1 5IN     -0.551900
     25 C25         4.9710   -3.7350    1.8920 c3        1 5IN      0.126300
     26 C26         3.8290   -4.6470    1.5360 ca        1 5IN     -0.114300
     27 C27         2.9980   -4.3320    0.4550 ca        1 5IN     -0.121500
     28 C28         1.9570   -5.1860    0.1000 ca        1 5IN     -0.107500
     29 C29         1.7440   -6.3670    0.8220 ca        1 5IN     -0.192900
     30 C30         2.5740   -6.6840    1.9000 ca        1 5IN     -0.107500
     31 C31         3.6110   -5.8230    2.2570 ca        1 5IN     -0.121500
     32 C32         0.6080   -7.2650    0.4390 ce        1 5IN      0.637800
     33 N33        -0.6150   -6.8590    0.2620 n2        1 5IN     -0.833100
     34 N34         0.9530   -8.6310    0.3470 nh        1 5IN     -0.892800
     35 C35        -0.0300   -0.6240   -0.5070 ca        1 5IN     -0.094300
     36 C36         0.8250   -1.1310   -1.4890 ca        1 5IN     -0.118500
     37 C37         0.3600   -1.3180   -2.7910 ca        1 5IN     -0.131500
     38 C38        -0.9590   -1.0030   -3.1160 ca        1 5IN     -0.127000
     39 C39        -1.8150   -0.4970   -2.1370 ca        1 5IN     -0.131500
     40 C40        -1.3540   -0.3050   -0.8360 ca        1 5IN     -0.118500
     41 H11         0.0560   -1.2780    1.5450 h1        1 5IN      0.040700
     42 H12A        0.0250    0.5380    1.3170 h1        1 5IN      0.040700
     43 H31A        1.9240    0.7300    2.6900 h1        1 5IN      0.050200
     44 H32         2.1080   -1.0850    2.8850 h1        1 5IN      0.050200
     45 H4          4.2780    0.0690    3.1870 h1        1 5IN      0.098700
     46 HN5         4.4600    0.9650    0.4040 hn        1 5IN      0.334500
     47 H7          5.4970    3.2750    0.4010 h1        1 5IN      0.102700
     48 HN8         4.0610    4.9020    2.3720 hn        1 5IN      0.475800
     49 H101        4.3830    7.4380    0.9020 h1        1 5IN      0.110200
     50 H102        4.8990    6.5130   -0.5390 h1        1 5IN      0.110200
     51 H12         7.4950    6.7390   -1.1390 ha        1 5IN      0.142500
     52 H13         9.0540    8.5610   -1.8190 ha        1 5IN      0.135000
     53 H14         8.6860   10.8950   -1.0090 ha        1 5IN      0.133000
     54 H15         6.7490   11.4020    0.4820 ha        1 5IN      0.135000
     55 H16         5.1810    9.5920    1.1530 ha        1 5IN      0.142500
     56 H191        3.3750    2.6670   -0.7080 h1        1 5IN      0.036200
     57 H192        3.6770    4.4610   -0.8670 h1        1 5IN      0.036200
     58 H20         1.5120    3.8320   -0.1780 ho        1 5IN      0.410000
     59 H24         4.0890   -2.4010    3.2270 hn        1 5IN      0.307500
     60 H251        5.5940   -4.2130    2.7030 h1        1 5IN      0.074700
     61 H252        5.6200   -3.6030    0.9760 h1        1 5IN      0.074700
     62 H27         3.1750   -3.4030   -0.1130 ha        1 5IN      0.146500
     63 H28         1.3060   -4.9320   -0.7510 ha        1 5IN      0.147000
     64 H30         2.4060   -7.6090    2.4730 ha        1 5IN      0.147000
     65 H31         4.2600   -6.0770    3.1090 ha        1 5IN      0.146500
     66 H33        -0.7550   -5.8900    0.4510 hn        1 5IN      0.395400
     67 H341        0.2580   -9.2200   -0.0590 hn        1 5IN      0.398300
     68 H342        1.8640   -8.7790   -0.0260 hn        1 5IN      0.398300
     69 H36         1.8670   -1.3780   -1.2290 ha        1 5IN      0.142000
     70 H37         1.0380   -1.7150   -3.5610 ha        1 5IN      0.133500
     71 H38        -1.3250   -1.1540   -4.1420 ha        1 5IN      0.133000
     72 H39        -2.8560   -0.2500   -2.3910 ha        1 5IN      0.133500
     73 H40        -2.0290    0.0970   -0.0670 ha        1 5IN      0.142000
@<TRIPOS>BOND
     1    1    2 1   
     2    1   35 1   
     3    1   41 1   
     4    1   42 1   
     5    2    3 1   
     6    3    4 1   
     7    3   43 1   
     8    3   44 1   
     9    4    5 1   
    10    4   22 1   
    11    4   45 1   
    12    5    6 1   
    13    5   46 1   
    14    6    7 1   
    15    6   21 2   
    16    7    8 1   
    17    7   19 1   
    18    7   47 1   
    19    8    9 1   
    20    8   48 1   
    21    9   10 1   
    22    9   17 2   
    23    9   18 2   
    24   10   11 1   
    25   10   49 1   
    26   10   50 1   
    27   11   12 ar  
    28   11   16 ar  
    29   12   13 ar  
    30   12   51 1   
    31   13   14 ar  
    32   13   52 1   
    33   14   15 ar  
    34   14   53 1   
    35   15   16 ar  
    36   15   54 1   
    37   16   55 1   
    38   19   20 1   
    39   19   56 1   
    40   19   57 1   
    41   20   58 1   
    42   22   23 2   
    43   22   24 1   
    44   24   25 1   
    45   24   59 1   
    46   25   26 1   
    47   25   60 1   
    48   25   61 1   
    49   26   27 ar  
    50   26   31 ar  
    51   27   28 ar  
    52   27   62 1   
    53   28   29 ar  
    54   28   63 1   
    55   29   30 ar  
    56   29   32 1   
    57   30   31 ar  
    58   30   64 1   
    59   31   65 1   
    60   32   33 2   
    61   32   34 1   
    62   33   66 1   
    63   34   67 1   
    64   34   68 1   
    65   35   36 ar  
    66   35   40 ar  
    67   36   37 ar  
    68   36   69 1   
    69   37   38 ar  
    70   37   70 1   
    71   38   39 ar  
    72   38   71 1   
    73   39   40 ar  
    74   39   72 1   
    75   40   73 1   
@<TRIPOS>SUBSTRUCTURE
     1 5IN         1 TEMP              0 ****  ****    0 ROOT
