@<TRIPOS>MOLECULE
5IN
   73    75     1     0     0
SMALL
bcc


@<TRIPOS>ATOM
      1 C1          2.2470   -1.8430    1.6830 c3        1 5IN      0.175700
      2 O2          1.7740   -0.7530    0.8860 os        1 5IN     -0.423600
      3 C3          1.4220    0.3750    1.6780 c3        1 5IN      0.100400
      4 C4          0.8000    1.4310    0.7360 c3        1 5IN      0.041700
      5 N5         -0.4320    1.0200    0.1140 n         1 5IN     -0.546900
      6 C6         -1.5900    0.8870    0.8560 c         1 5IN      0.658100
      7 C7         -2.8120    0.2950    0.1080 c3        1 5IN      0.181500
      8 N8         -4.0380    0.5820    0.7910 n3        1 5IN     -0.909100
      9 S9         -5.3880    1.1440    0.0960 s6        1 5IN      1.452900
     10 C10        -6.3130   -0.3150   -0.0900 c3        1 5IN     -0.248300
     11 C11        -7.6330   -0.0890   -0.7250 ca        1 5IN     -0.074300
     12 C12        -7.7100    0.3000   -2.0700 ca        1 5IN     -0.114500
     13 C13        -8.9500    0.4830   -2.6760 ca        1 5IN     -0.127000
     14 C14       -10.1230    0.2770   -1.9490 ca        1 5IN     -0.121000
     15 C15       -10.0520   -0.1100   -0.6110 ca        1 5IN     -0.127000
     16 C16        -8.8130   -0.2950   -0.0000 ca        1 5IN     -0.114500
     17 O17        -6.0560    1.9940    0.9920 o         1 5IN     -0.643800
     18 O18        -5.0810    1.6360   -1.1920 o         1 5IN     -0.643800
     19 C19        -2.5590   -1.2170   -0.1050 c3        1 5IN      0.111400
     20 O20        -2.4370   -1.8310    1.1630 oh        1 5IN     -0.592800
     21 O21        -1.6480    1.2610    2.0420 o         1 5IN     -0.595100
     22 C22         1.8510    1.8170   -0.3320 c         1 5IN      0.658100
     23 O23         1.7870    1.3990   -1.5040 o         1 5IN     -0.600100
     24 N24         2.8410    2.6900    0.0800 n         1 5IN     -0.551900
     25 C25         3.9550    3.0240   -0.7670 c3        1 5IN      0.126300
     26 C26         5.1790    2.1740   -0.5700 ca        1 5IN     -0.114300
     27 C27         5.1410    0.8130   -0.8940 ca        1 5IN     -0.121500
     28 C28         6.2800    0.0250   -0.7420 ca        1 5IN     -0.107500
     29 C29         7.4670    0.5950   -0.2690 ca        1 5IN     -0.192900
     30 C30         7.5080    1.9540    0.0530 ca        1 5IN     -0.107500
     31 C31         6.3640    2.7390   -0.0930 ca        1 5IN     -0.121500
     32 C32         8.6770   -0.2710   -0.0930 ce        1 5IN      0.637800
     33 N33         8.6750   -1.4040    0.5450 n2        1 5IN     -0.833100
     34 N34         9.8650    0.2770   -0.6240 nh        1 5IN     -0.892800
     35 C35         2.5720   -2.9870    0.7820 ca        1 5IN     -0.094300
     36 C36         2.7850   -2.8060   -0.5880 ca        1 5IN     -0.118500
     37 C37         3.1080   -3.8980   -1.3940 ca        1 5IN     -0.131500
     38 C38         3.2240   -5.1710   -0.8370 ca        1 5IN     -0.127000
     39 C39         3.0140   -5.3530    0.5310 ca        1 5IN     -0.131500
     40 C40         2.6860   -4.2670    1.3390 ca        1 5IN     -0.118500
     41 H11         3.1670   -1.5180    2.2430 h1        1 5IN      0.040700
     42 H12A        1.4520   -2.1340    2.4240 h1        1 5IN      0.040700
     43 H31A        2.3390    0.7950    2.1700 h1        1 5IN      0.050200
     44 H32         0.6740    0.0840    2.4650 h1        1 5IN      0.050200
     45 H4          0.5620    2.3310    1.3850 h1        1 5IN      0.098700
     46 HN5        -0.3460    0.5630   -0.7670 hn        1 5IN      0.334500
     47 H7         -2.8650    0.7670   -0.9250 h1        1 5IN      0.102700
     48 HN8        -3.9590    0.4650    1.7790 hn        1 5IN      0.475800
     49 H101       -5.7530   -1.0620   -0.7150 h1        1 5IN      0.110200
     50 H102       -6.4680   -0.8140    0.9050 h1        1 5IN      0.110200
     51 H12        -6.7830    0.4820   -2.6390 ha        1 5IN      0.142500
     52 H13        -9.0020    0.7940   -3.7290 ha        1 5IN      0.135000
     53 H14       -11.1020    0.4220   -2.4290 ha        1 5IN      0.133000
     54 H15       -10.9750   -0.2690   -0.0330 ha        1 5IN      0.135000
     55 H16        -8.7640   -0.5970    1.0570 ha        1 5IN      0.142500
     56 H191       -3.4210   -1.6720   -0.6650 h1        1 5IN      0.036200
     57 H192       -1.6220   -1.3560   -0.7070 h1        1 5IN      0.036200
     58 H20        -2.1430   -2.7360    1.0060 ho        1 5IN      0.410000
     59 H24         2.9660    2.8290    1.0550 hn        1 5IN      0.307500
     60 H251        4.2130    4.1050   -0.5700 h1        1 5IN      0.074700
     61 H252        3.6250    2.9290   -1.8450 h1        1 5IN      0.074700
     62 H27         4.2040    0.3700   -1.2720 ha        1 5IN      0.146500
     63 H28         6.2430   -1.0450   -0.9980 ha        1 5IN      0.147000
     64 H30         8.4390    2.4050    0.4310 ha        1 5IN      0.147000
     65 H31         6.4020    3.8080    0.1650 ha        1 5IN      0.146500
     66 H33         7.8000   -1.6390    0.9590 hn        1 5IN      0.395400
     67 H341       10.6430   -0.3480   -0.6610 hn        1 5IN      0.398300
     68 H342        9.7200    0.7770   -1.4720 hn        1 5IN      0.398300
     69 H36         2.6910   -1.7990   -1.0260 ha        1 5IN      0.142000
     70 H37         3.2720   -3.7520   -2.4720 ha        1 5IN      0.133500
     71 H38         3.4820   -6.0300   -1.4730 ha        1 5IN      0.133000
     72 H39         3.1060   -6.3560    0.9730 ha        1 5IN      0.133500
     73 H40         2.5180   -4.4130    2.4160 ha        1 5IN      0.142000
@<TRIPOS>BOND
     1    1    2 1   
     2    1   35 1   
     3    1   41 1   
     4    1   42 1   
     5    2    3 1   
     6    3    4 1   
     7    3   43 1   
     8    3   44 1   
     9    4    5 1   
    10    4   22 1   
    11    4   45 1   
    12    5    6 1   
    13    5   46 1   
    14    6    7 1   
    15    6   21 2   
    16    7    8 1   
    17    7   19 1   
    18    7   47 1   
    19    8    9 1   
    20    8   48 1   
    21    9   10 1   
    22    9   17 2   
    23    9   18 2   
    24   10   11 1   
    25   10   49 1   
    26   10   50 1   
    27   11   12 ar  
    28   11   16 ar  
    29   12   13 ar  
    30   12   51 1   
    31   13   14 ar  
    32   13   52 1   
    33   14   15 ar  
    34   14   53 1   
    35   15   16 ar  
    36   15   54 1   
    37   16   55 1   
    38   19   20 1   
    39   19   56 1   
    40   19   57 1   
    41   20   58 1   
    42   22   23 2   
    43   22   24 1   
    44   24   25 1   
    45   24   59 1   
    46   25   26 1   
    47   25   60 1   
    48   25   61 1   
    49   26   27 ar  
    50   26   31 ar  
    51   27   28 ar  
    52   27   62 1   
    53   28   29 ar  
    54   28   63 1   
    55   29   30 ar  
    56   29   32 1   
    57   30   31 ar  
    58   30   64 1   
    59   31   65 1   
    60   32   33 2   
    61   32   34 1   
    62   33   66 1   
    63   34   67 1   
    64   34   68 1   
    65   35   36 ar  
    66   35   40 ar  
    67   36   37 ar  
    68   36   69 1   
    69   37   38 ar  
    70   37   70 1   
    71   38   39 ar  
    72   38   71 1   
    73   39   40 ar  
    74   39   72 1   
    75   40   73 1   
@<TRIPOS>SUBSTRUCTURE
     1 5IN         1 TEMP              0 ****  ****    0 ROOT
