@<TRIPOS>MOLECULE
5IN
   73    67     1     0     0
SMALL
bcc


@<TRIPOS>ATOM
      1 C1         -5.6660    0.9960    0.9010 c3        1 5IN      0.013000
      2 O2         -4.2770    0.7430    0.6810 os        1 5IN     -0.272000
      3 C3         -3.8550    0.9690   -0.6620 c3        1 5IN     -0.025000
      4 C4         -2.3380    0.9240   -0.7310 c3        1 5IN     -0.027000
      5 N5         -1.8630    2.0750   -1.3990 n         1 5IN     -0.351000
      6 C6         -0.8070    2.8450   -0.8280 c2        1 5IN      0.280000
      7 C7          0.3320    3.3320   -1.7020 c3        1 5IN     -0.005000
      8 N8          1.5470    2.7520   -1.2590 n3        1 5IN     -0.889000
      9 S9          2.4180    1.7960   -2.2730 s4        1 5IN      2.023800
     10 C10         3.8950    1.2340   -1.4680 c2        1 5IN     -0.798000
     11 C11         4.3690   -0.0600   -2.1210 c2        1 5IN     -0.076000
     12 C12         4.0650   -1.2820   -1.5390 c2        1 5IN     -0.105000
     13 C13         4.5630   -2.4560   -2.0870 c1        1 5IN     -0.129000
     14 C14         5.3640   -2.4070   -3.2180 c1        1 5IN     -0.125500
     15 C15         5.6690   -1.1860   -3.8010 c1        1 5IN     -0.125500
     16 C16         5.1710   -0.0120   -3.2530 c1        1 5IN     -0.121000
     17 O17         1.6340    0.6940   -2.7520 o         1 5IN     -0.537400
     18 O18         2.7200    2.4770   -3.4990 o         1 5IN     -0.537400
     19 C19         0.4290    4.8430   -1.6100 c3        1 5IN     -0.011000
     20 O20         1.1710    5.1970   -0.4640 oh        1 5IN     -0.331000
     21 O21        -0.8610    3.1770    0.3400 o         1 5IN     -0.412000
     22 C22        -1.8980   -0.3240   -1.4920 c2        1 5IN      0.283000
     23 O23        -2.0190   -0.3720   -2.7030 o         1 5IN     -0.377000
     24 N24        -1.2680   -1.4220   -0.7810 n         1 5IN     -0.362000
     25 C25        -0.1190   -2.0930   -1.3570 c3        1 5IN      0.004000
     26 C26         0.7740   -2.6390   -0.2300 c2        1 5IN     -0.103000
     27 C27         1.4740   -1.7600    0.5840 c2        1 5IN     -0.124000
     28 C28         2.3910   -2.2480    1.5100 c1        1 5IN     -0.099000
     29 C29         2.6070   -3.6150    1.6200 c1        1 5IN     -0.109000
     30 C30         1.9070   -4.4960    0.8060 c1        1 5IN     -0.117000
     31 C31         0.9910   -4.0080   -0.1190 c1        1 5IN     -0.118000
     32 C32         3.5330   -4.1530    2.6990 c2        1 5IN      0.114000
     33 N33         4.7930   -4.3840    2.4240 n1        1 5IN     -0.301000
     34 N34         3.0330   -4.4050    4.0040 n3        1 5IN     -0.331000
     35 C35        -5.9130    1.2240    2.3940 c2        1 5IN     -0.087000
     36 C36        -6.4890    0.2220    3.1620 c2        1 5IN     -0.128000
     37 C37        -6.7470    0.4420    4.5080 c1        1 5IN     -0.131000
     38 C38        -6.4280    1.6620    5.0850 c1        1 5IN     -0.125500
     39 C39        -5.8520    2.6630    4.3170 c1        1 5IN     -0.125500
     40 C40        -5.5940    2.4430    2.9710 c1        1 5IN     -0.102000
     41 H11        -5.9350    1.7940    0.4000 h1        1 5IN      0.078000
     42 H12A       -6.1910    0.2250    0.5960 h1        1 5IN      0.078000
     43 H31A       -4.2290    0.2750   -1.2440 h1        1 5IN      0.119000
     44 H32        -4.1700    1.8520   -0.9610 h1        1 5IN      0.119000
     45 H4         -1.9720    0.9000    0.1720 h1        1 5IN      0.123000
     46 HN5        -2.2600    2.3490   -2.1740 hn        1 5IN      0.274000
     47 H7          0.1660    3.0720   -2.6280 h1        1 5IN      0.128000
     48 HN8         1.8690    2.9470   -0.4260 hn        1 5IN      0.260000
     49 H101        3.7090    1.0720   -0.5200 ha        1 5IN      0.157500
     50 H102        4.5920    1.9170   -1.5510 ha        1 5IN      0.157500
     51 H12         3.5010   -1.3160   -0.7430 ha        1 5IN      0.138000
     52 H13         4.3480   -3.3160   -1.6770 ha        1 5IN      0.137000
     53 H14         5.7150   -3.2340   -3.6050 ha        1 5IN      0.134500
     54 H15         6.2340   -1.1520   -4.5980 ha        1 5IN      0.134500
     55 H16         5.3850    0.8470   -3.6630 ha        1 5IN      0.153000
     56 H191        0.8770    5.1900   -2.4100 h1        1 5IN      0.104500
     57 H192       -0.4700    5.2250   -1.5480 h1        1 5IN      0.104500
     58 H20         1.3190    6.0780   -0.4640 ho        1 5IN      0.228000
     59 H24        -1.6390   -1.7370   -0.0100 hn        1 5IN      0.248000
     60 H251       -0.4230   -2.8340   -1.9210 h1        1 5IN      0.108500
     61 H252        0.3900   -1.4590   -1.8990 h1        1 5IN      0.108500
     62 H27         1.3240   -0.8020    0.5070 ha        1 5IN      0.136000
     63 H28         2.8830   -1.6300    2.0820 ha        1 5IN      0.151000
     64 H30         2.0580   -5.4580    0.8830 ha        1 5IN      0.141000
     65 H31         0.4990   -4.6280   -0.6910 ha        1 5IN      0.158000
     66 H33         5.1150   -4.2220    1.5850 DU        1 5IN      0.151000
     67 H341        3.6140   -4.5230    4.7020 hn        1 5IN      0.193000
     68 H342        2.1310   -4.4080    4.1550 hn        1 5IN      0.193000
     69 H36        -6.7140   -0.6370    2.7560 ha        1 5IN      0.129000
     70 H37        -7.1530   -0.2640    5.0490 ha        1 5IN      0.132000
     71 H38        -6.6100    1.8170    6.0340 ha        1 5IN      0.134500
     72 H39        -5.6270    3.5230    4.7240 ha        1 5IN      0.134500
     73 H40        -5.1890    3.1480    2.4300 ha        1 5IN      0.152000
@<TRIPOS>BOND
     1    1    2 1   
     2    1   35 1   
     3    1   41 1   
     4    1   42 1   
     5    2    3 1   
     6    3    4 1   
     7    3   43 1   
     8    3   44 1   
     9    4    5 1   
    10    4   22 1   
    11    4   45 1   
    12    5    6 1   
    13    5   46 1   
    14    6    7 1   
    15    6   21 1   
    16    7    8 1   
    17    7   19 1   
    18    7   47 1   
    19    8    9 1   
    20    8   48 1   
    21    9   17 1   
    22    9   18 1   
    23   10   11 1   
    24   10   49 1   
    25   10   50 1   
    26   11   12 1   
    27   11   16 1   
    28   12   13 1   
    29   12   51 1   
    30   13   52 1   
    31   14   15 1   
    32   14   53 1   
    33   15   54 1   
    34   16   55 1   
    35   19   20 1   
    36   19   56 1   
    37   19   57 1   
    38   20   58 1   
    39   22   23 1   
    40   22   24 1   
    41   24   25 1   
    42   24   59 1   
    43   25   26 1   
    44   25   60 1   
    45   25   61 1   
    46   26   27 1   
    47   26   31 1   
    48   27   28 1   
    49   27   62 1   
    50   28   63 1   
    51   29   30 1   
    52   29   32 1   
    53   30   64 1   
    54   31   65 1   
    55   32   33 1   
    56   32   34 1   
    57   34   67 1   
    58   34   68 1   
    59   35   36 1   
    60   35   40 1   
    61   36   37 1   
    62   36   69 1   
    63   37   70 1   
    64   38   39 1   
    65   38   71 1   
    66   39   72 1   
    67   40   73 1   
@<TRIPOS>SUBSTRUCTURE
     1 5IN         1 TEMP              0 ****  ****    0 ROOT
