@<TRIPOS>MOLECULE
5IN
   77    79     1     0     0
SMALL
bcc


@<TRIPOS>ATOM
      1 C1       -149.0350 -413.5310   25.5920 c3        1 5IN      0.027000
      2 O2       -149.8010 -414.7290   25.3470 os        1 5IN     -0.347000
      3 C3       -150.0790 -415.5190   26.4810 c3        1 5IN     -0.039000
      4 C4       -149.6160 -416.9750   26.1830 c3        1 5IN     -0.113000
      5 N5       -148.2770 -417.3000   26.7610 ny        1 5IN     -0.114000
      6 C6       -148.0760 -418.7790   27.0870 c2        1 5IN      0.271000
      7 C7       -146.7790 -419.1370   27.8570 c3        1 5IN      0.005000
      8 N8       -146.4730 -418.1360   28.8290 n8        1 5IN     -0.403000
      9 S9        541.8370    0.1600  -85.5740 ss        1 5IN      2.801000
     10 C10       541.7820    0.5820  -84.8040 c2        1 5IN     -0.573000
     11 C11       543.0970    0.7380  -84.1070 c3        1 5IN     -0.060000
     12 C12       544.1530    0.4030  -84.7490 c2        1 5IN      0.041000
     13 C13       545.3610    0.5860  -84.0810 c2        1 5IN     -0.194500
     14 C14       545.5140    0.1290  -82.7690 c2        1 5IN      0.131000
     15 C15       544.4540    0.4890  -82.1220 c2        1 5IN     -0.194500
     16 C16       543.2420    0.3020  -82.7820 c2        1 5IN      0.041000
     17 O17       541.4120    0.0650  -84.9200 oh        1 5IN     -0.846000
     18 O18       542.2990    0.1370  -86.8370 o         1 5IN     -0.890000
     19 C19      -145.7070 -419.3800   26.7670 c3        1 5IN     -0.047000
     20 O20      -145.6660 -418.2080   25.9670 oh        1 5IN     -0.396000
     21 O21      -148.9330 -419.5390   26.6760 o         1 5IN     -0.204000
     22 C22      -149.6400 -417.2110   24.6670 c2        1 5IN      0.262000
     23 O23      -148.7020 -417.5920   23.9870 o         1 5IN     -0.140000
     24 N24      -150.9410 -416.9040   23.9790 ny        1 5IN     -0.096000
     25 C25      -151.0520 -417.5550   22.6250 c3        1 5IN     -0.080000
     26 C26      -152.3020 -417.1740   21.9000 ca        1 5IN     -0.137000
     27 C27      -152.3100 -416.0530   21.0600 ca        1 5IN     -0.087000
     28 C28      -153.4360 -415.7630   20.2870 ca        1 5IN     -0.081500
     29 C29      -154.5580 -416.5960   20.3530 ca        1 5IN     -0.120000
     30 C30      -154.5590 -417.7120   21.1980 ca        1 5IN     -0.081500
     31 C31      -153.4320 -417.9990   21.9700 ca        1 5IN     -0.087000
     32 C32      -155.7770 -416.2590   19.5720 c2        1 5IN      0.038000
     33 N33      -156.7690 -415.5130   19.8600 n2        1 5IN     -0.130000
     34 N34      -155.8110 -416.9240   18.2240 nz        1 5IN     -0.052000
     35 C35      -147.6680 -413.8150   26.1080 ca        1 5IN     -0.172000
     36 C36      -146.8640 -414.7890   25.4990 ca        1 5IN     -0.142000
     37 C37      -145.5560 -414.9880   25.9330 ca        1 5IN     -0.111500
     38 C38      -145.0340 -414.2040   26.9660 ca        1 5IN     -0.098000
     39 C39      -145.8290 -413.2310   27.5700 ca        1 5IN     -0.111500
     40 C40      -147.1470 -413.0400   27.1490 ca        1 5IN     -0.142000
     41 H11      -148.9910 -413.0650   24.5670 h1        1 5IN      0.135500
     42 H12A     -149.6170 -412.8700   26.2890 h1        1 5IN      0.135500
     43 H31A     -149.6070 -415.1120   27.4150 h1        1 5IN      0.142000
     44 H32      -151.1970 -415.5360   26.6160 h1        1 5IN      0.142000
     45 H4       -150.3610 -417.6890   26.6650 hx        1 5IN      0.193000
     46 HN5      -147.5050 -417.0090   26.1220 hn        1 5IN      0.299500
     47 H7       -147.0210 -420.1390   28.3390 h1        1 5IN      0.181000
     48 HN8      -146.5120 -418.4730   29.7700 hn        1 5IN      0.217500
     49 H101      541.6250    0.4960  -85.4610 DU        1 5IN     -0.124000
     50 H102      540.9600    0.6930  -84.0260 DU        1 5IN     -0.124000
     51 H12       544.0310    0.7940  -85.7720 ha        1 5IN      0.202000
     52 H13       546.1930    0.1040  -84.5860 ha        1 5IN      0.197500
     53 H14       546.4710    0.2820  -82.2400 ha        1 5IN      0.193000
     54 H15       544.5700    0.1420  -81.0810 ha        1 5IN      0.197500
     55 H16       542.4010    0.8240  -82.2530 ha        1 5IN      0.202000
     56 H191     -144.7130 -419.5780   27.2520 h1        1 5IN      0.131000
     57 H192     -146.0010 -420.2610   26.1350 h1        1 5IN      0.131000
     58 H20      -144.8510 -418.2350   25.4460 ho        1 5IN      0.263000
     59 H24      -150.9920 -415.8730   23.8720 hn        1 5IN      0.274500
     60 H251     -151.0090 -418.6730   22.7840 hx        1 5IN      0.172500
     61 H252     -150.1410 -417.2490   22.0260 hx        1 5IN      0.172500
     62 H27      -151.4230 -415.4020   20.9820 ha        1 5IN      0.168000
     63 H28      -153.4290 -414.8740   19.6310 ha        1 5IN      0.178500
     64 H30      -155.4440 -418.3690   21.2670 ha        1 5IN      0.178500
     65 H31      -153.4380 -418.8940   22.6150 ha        1 5IN      0.168000
     66 H33      -156.8110 -415.0400   20.7400 hn        1 5IN      0.255000
     67 H341     -155.7630 -417.9400   18.3530 hn        1 5IN      0.276667
     68 H342     -155.0010 -416.6100   17.6770 hn        1 5IN      0.276667
     69 H36      -147.2480 -415.3440   24.6290 ha        1 5IN      0.138000
     70 H37      -144.9240 -415.7460   25.4430 ha        1 5IN      0.162000
     71 H38      -143.9870 -414.3370   27.2850 ha        1 5IN      0.170000
     72 H39      -145.4130 -412.5950   28.3720 ha        1 5IN      0.162000
     73 H40      -147.7620 -412.2560   27.6210 ha        1 5IN      0.138000
     74 H52      -148.1610 -416.7620   27.6360 hn        1 5IN      0.299500
     75 H82      -145.6200 -417.6490   28.6420 hn        1 5IN      0.217500
     76 H242     -151.7250 -417.2000   24.5700 hn        1 5IN      0.274500
     77 H343     -156.6750 -416.6910   17.7070 hn        1 5IN      0.276667
@<TRIPOS>BOND
     1    1    2 1   
     2    1   35 1   
     3    1   41 1   
     4    1   42 1   
     5    2    3 1   
     6    3    4 1   
     7    3   43 1   
     8    3   44 1   
     9    4    5 1   
    10    4   22 1   
    11    4   45 1   
    12    5    6 1   
    13    5   46 1   
    14    5   74 1   
    15    6    7 1   
    16    6   21 1   
    17    7    8 1   
    18    7   19 1   
    19    7   47 1   
    20    8   48 1   
    21    8   75 1   
    22    9   11 1   
    23    9   18 1   
    24   10   11 1   
    25   10   49 1   
    26   10   50 1   
    27   11   12 1   
    28   11   16 1   
    29   12   13 1   
    30   12   51 1   
    31   13   14 1   
    32   13   52 1   
    33   14   15 1   
    34   14   53 1   
    35   15   16 1   
    36   15   54 1   
    37   16   55 1   
    38   17   49 1   
    39   17   50 1   
    40   19   20 1   
    41   19   56 1   
    42   19   57 1   
    43   20   58 1   
    44   22   23 1   
    45   22   24 1   
    46   24   25 1   
    47   24   59 1   
    48   24   76 1   
    49   25   26 1   
    50   25   60 1   
    51   25   61 1   
    52   26   27 1   
    53   26   31 1   
    54   27   28 1   
    55   27   62 1   
    56   28   29 1   
    57   28   63 1   
    58   29   30 1   
    59   29   32 1   
    60   30   31 1   
    61   30   64 1   
    62   31   65 1   
    63   32   33 1   
    64   32   34 1   
    65   33   66 1   
    66   34   67 1   
    67   34   68 1   
    68   34   77 1   
    69   35   36 1   
    70   35   40 1   
    71   36   37 1   
    72   36   69 1   
    73   37   38 1   
    74   37   70 1   
    75   38   39 1   
    76   38   71 1   
    77   39   40 1   
    78   39   72 1   
    79   40   73 1   
@<TRIPOS>SUBSTRUCTURE
     1 5IN         1 TEMP              0 ****  ****    0 ROOT
