@<TRIPOS>MOLECULE
5IO
   57    53     1     0     0
SMALL
bcc


@<TRIPOS>ATOM
      1 CAA         1.8830    2.6680   -1.7840 c3        1 5IO     -0.303000
      2 CAB         6.0400    0.3640   -2.1990 c2        1 5IO     -0.210000
      3 OAD         8.1210   -2.6440    1.3750 o         1 5IO     -0.394000
      4 OAE         5.6880   -0.6530    6.7250 o         1 5IO     -0.556400
      5 OAF         6.6710   -1.9030    5.0450 o         1 5IO     -0.556400
      6 IAG         8.0060   -0.7310   -1.4260 i         1 5IO      0.332000
      7 CAH         1.8770   -1.5590    5.1480 ca        1 5IO     -0.112000
      8 CAI         1.5960   -1.8190    3.8090 ca        1 5IO     -0.127000
      9 CAJ         4.2200   -1.1510    4.6120 ca        1 5IO     -0.489000
     10 CAK         2.4270    1.3360   -1.9070 c1        1 5IO     -0.084000
     11 CAL         5.4460    0.7490   -0.9150 c3        1 5IO     -0.220000
     12 CAM         1.2450   -1.8030    1.0210 c1        1 5IO     -0.033000
     13 CAN         8.6840   -2.9700    6.8420 cx        1 5IO     -0.113500
     14 CAO         6.5910   -1.5500   10.7210 c1        1 5IO     -0.242000
     15 CAP        10.1210   -3.8820    3.4510 c1        1 5IO     -0.152000
     16 CAQ         6.1250   -1.0300    9.7470 c1        1 5IO     -0.242000
     17 NAR         4.7260   -0.3450    1.2060 n2        1 5IO     -0.205000
     18 NAS         6.1170   -2.0000    2.2680 n         1 5IO     -0.293000
     19 OAT         2.4290   -2.0930    1.5330 os        1 5IO     -0.136000
     20 CAU         3.1770   -1.2420    5.5380 ca        1 5IO     -0.093000
     21 CAV         2.6380   -1.7380    2.8820 ca        1 5IO      0.073000
     22 CAW         5.6570   -0.2420    0.1960 c2        1 5IO      0.124000
     23 CAX         6.8190   -1.0040    0.1780 c2        1 5IO     -0.489000
     24 CAY         3.9450   -1.3820    3.2590 ca        1 5IO     -0.022000
     25 CAZ         4.9760   -1.2200    2.1930 c2        1 5IO      0.196000
     26 CBA         7.1080   -1.9260    1.2580 c2        1 5IO      0.369000
     27 NBB         7.4390   -2.7130    7.5930 n4        1 5IO     -0.131000
     28 NBC        10.5210   -4.1530    4.5070 n1        1 5IO     -0.127000
     29 HAA         1.7770    2.8990   -0.6880 hc        1 5IO      0.110667
     30 HAAA        0.9010    2.8630   -2.2840 hc        1 5IO      0.110667
     31 HAAB        2.6410    3.3900   -2.1960 hc        1 5IO      0.110667
     32 HAB         4.2030    1.4130   -3.4240 ha        1 5IO      0.008833
     33 HABA        3.6790    1.5960   -3.8190 ha        1 5IO      0.008833
     34 HABB        5.6120   -0.5310   -2.6770 h4        1 5IO      0.048000
     35 HAC         6.9690   -4.2090    6.0560 hx        1 5IO      0.170750
     36 HACA        7.7530   -4.9060    7.6000 hx        1 5IO      0.170750
     37 HACB        7.4640   -2.6440    8.6010 hn        1 5IO      0.291500
     38 HAH         1.0710   -1.6090    5.8960 ha        1 5IO      0.139000
     39 HAI         0.5800   -2.0670    3.4630 ha        1 5IO      0.166000
     40 HAJ         3.4030   -1.0530    6.6040 ha        1 5IO      0.165000
     41 HAK         1.2690   -2.1710   -0.0390 ha        1 5IO      0.038000
     42 HAKA        1.8400    0.6060   -2.4840 ha        1 5IO      0.042000
     43 HAL         5.8800    1.7260   -0.5550 hc        1 5IO      0.165500
     44 HALA        4.3320    0.9390   -1.1120 hc        1 5IO      0.165500
     45 HAM         2.0480    0.2950    0.1060 ha        1 5IO      0.008833
     46 HAMA        1.3890    0.3320   -0.0690 ha        1 5IO      0.008833
     47 HAN         5.6320   -4.1030    4.4150 ha        1 5IO      0.008833
     48 HANA        5.9560   -4.6040    4.0940 ha        1 5IO      0.008833
     49 HAO         6.9850   -1.9880   11.6020 ha        1 5IO      0.245000
     50 HAOA        6.7440   -2.0460    7.1570 hn        1 5IO      0.291500
     51 HAP         9.6290   -3.0470    7.4200 hx        1 5IO      0.170750
     52 HAPA        9.7300   -3.6200    2.4820 ha        1 5IO      0.277000
     53 HAQ         8.7860   -2.3970    5.8870 hx        1 5IO      0.170750
     54 HAQA        5.7130   -0.5690    8.8700 ha        1 5IO      0.245000
     55 HNAS        6.3040   -2.5500    3.0950 hn        1 5IO      0.298000
     56 SBD         5.7990   -0.6470    5.1920 s4        1 5IO      0.704800
     57 CAC         7.6270   -4.0220    6.9410 cx        1 5IO     -0.113500
@<TRIPOS>BOND
     1    1   10 1   
     2    1   29 1   
     3    1   30 1   
     4    1   31 1   
     5    2    6 1   
     6    2   11 1   
     7    2   34 1   
     8    3   26 1   
     9    4   56 1   
    10    5   56 1   
    11    6   23 1   
    12    7    8 1   
    13    7   20 1   
    14    7   38 1   
    15    8   21 1   
    16    8   39 1   
    17    9   20 1   
    18    9   24 1   
    19    9   56 1   
    20   10   42 1   
    21   11   22 1   
    22   11   43 1   
    23   11   44 1   
    24   12   19 1   
    25   12   41 1   
    26   13   27 1   
    27   13   51 1   
    28   13   53 1   
    29   13   57 1   
    30   14   16 1   
    31   14   49 1   
    32   15   28 1   
    33   15   52 1   
    34   16   54 1   
    35   17   22 1   
    36   17   25 1   
    37   18   25 1   
    38   18   26 1   
    39   18   55 1   
    40   19   21 1   
    41   20   40 1   
    42   21   24 1   
    43   22   23 1   
    44   23   26 1   
    45   24   25 1   
    46   27   37 1   
    47   27   50 1   
    48   27   57 1   
    49   32   33 1   
    50   35   57 1   
    51   36   57 1   
    52   45   46 1   
    53   47   48 1   
@<TRIPOS>SUBSTRUCTURE
     1 5IO         1 TEMP              0 ****  ****    0 ROOT
