@<TRIPOS>MOLECULE
5IO
   57    55     1     0     0
SMALL
bcc


@<TRIPOS>ATOM
      1 CAA         2.7880    3.3410   -4.9420 c3        1 5IO     -0.212000
      2 CAB         5.3380   -0.6640    2.8920 c3        1 5IO     -0.206000
      3 CAC        -5.1300   -1.0090    4.4450 c3        1 5IO     -0.120000
      4 OAD         5.3910    0.0980   -2.3410 o         1 5IO     -0.336000
      5 OAE        -1.8200   -3.3450   -0.6530 o         1 5IO     -0.928500
      6 OAF        -3.4990   -2.2840   -1.6730 o         1 5IO     -0.928500
      7 IAG         7.0640    0.4850    0.3970 i         1 5IO      0.192000
      8 CAH        -1.9940    0.4060   -1.5630 c1        1 5IO     -0.102000
      9 CAI        -1.1390    1.4350   -1.9510 c1        1 5IO     -0.102000
     10 CAJ        -0.1180   -0.8030   -0.6560 c1        1 5IO      0.067000
     11 CAK         1.6860    2.4630   -4.4050 c3        1 5IO     -0.196000
     12 CAL         4.4730    0.6140    2.4660 c3        1 5IO     -0.132000
     13 CAM         1.0580    3.1380   -3.1360 c3        1 5IO     -0.024000
     14 CAN        -3.2620   -1.8110    3.2330 c3        1 5IO     -0.085500
     15 CAO        -5.2640   -1.2270    2.1060 c3        1 5IO     -0.085500
     16 CAP        -2.7320   -2.4690    1.9670 c3        1 5IO     -0.010500
     17 CAQ        -4.7410   -1.8850    0.8470 c3        1 5IO     -0.010500
     18 NAR         2.6450    0.3720    0.6870 n1        1 5IO     -0.228000
     19 NAS         3.1970   -0.0360   -1.7330 n         1 5IO     -0.298000
     20 OAT         1.2960    2.2950   -1.9650 os        1 5IO     -0.216000
     21 CAU        -1.4870   -0.7100   -0.9180 c1        1 5IO     -0.865000
     22 CAV         0.2290    1.3440   -1.6900 c1        1 5IO      0.172000
     23 CAW         4.0200    0.4620    0.9950 c1        1 5IO      0.102000
     24 CAX         5.0090    0.3080   -0.0570 c2        1 5IO     -0.431000
     25 CAY         0.7380    0.2290   -1.0450 c1        1 5IO     -0.135000
     26 CAZ         2.2150    0.1660   -0.6910 c2        1 5IO      0.204000
     27 CBA         4.5760    0.0850   -1.4380 c2        1 5IO      0.343000
     28 NBB        -4.6950   -1.7790    3.2770 n3        1 5IO     -0.254000
     29 NBC        -3.2950   -1.9200    0.8020 n3        1 5IO     -0.835000
     30 SBD        -2.5500   -2.0980   -0.6010 s6        1 5IO      2.850000
     31 HAA         3.2610    3.7560   -4.2000 hc        1 5IO      0.082000
     32 HAAA        2.4060    4.0280   -5.5050 hc        1 5IO      0.082000
     33 HAAB        3.4220    2.7910   -5.4750 hc        1 5IO      0.082000
     34 HAB         5.1130   -1.4320    2.2930 hc        1 5IO      0.083000
     35 HABA        5.1340   -0.9050    3.8290 hc        1 5IO      0.083000
     36 HABB        6.2960   -0.4530    2.8090 hc        1 5IO      0.083000
     37 HAC        -6.1050   -1.0450    4.5150 h1        1 5IO      0.074000
     38 HACA       -4.7200   -1.3990    5.2750 h1        1 5IO      0.074000
     39 HACB       -4.8450   -0.0830    4.3480 h1        1 5IO      0.074000
     40 HAH        -2.9650    0.4730   -1.7480 ha        1 5IO      0.158000
     41 HAI        -1.4810    2.1870   -2.3850 ha        1 5IO      0.158000
     42 HAJ         0.2390   -1.5840   -0.2040 ha        1 5IO      0.171000
     43 HAK         2.0450    1.6080   -4.1680 hc        1 5IO      0.095500
     44 HAKA        1.0010    2.3500   -5.0870 hc        1 5IO      0.095500
     45 HAL         3.6880    0.6840    3.0410 hc        1 5IO      0.108500
     46 HALA        5.0250    1.4330    2.5590 hc        1 5IO      0.108500
     47 HAM         0.0870    3.2520   -3.2690 h1        1 5IO      0.107500
     48 HAMA        1.4810    4.0330   -2.9900 h1        1 5IO      0.107500
     49 HAN        -2.9380   -2.2980    3.9930 h1        1 5IO      0.079250
     50 HANA       -2.9280   -0.9000    3.2770 h1        1 5IO      0.079250
     51 HAO        -5.0540   -0.2520    2.0730 h1        1 5IO      0.079250
     52 HAOA       -6.2670   -1.3450    2.1450 h1        1 5IO      0.079250
     53 HAP        -1.7390   -2.3530    1.9330 h1        1 5IO      0.100500
     54 HAPA       -2.9330   -3.3980    1.9960 h1        1 5IO      0.100500
     55 HAQ        -5.0680   -1.3840    0.0710 h1        1 5IO      0.100500
     56 HAQA       -5.0870   -2.8080    0.8000 h1        1 5IO      0.100500
     57 HNAS        2.9310   -0.1630   -2.5800 hn        1 5IO      0.261000
@<TRIPOS>BOND
     1    1   11 1   
     2    1   31 1   
     3    1   32 1   
     4    1   33 1   
     5    2   12 1   
     6    2   34 1   
     7    2   35 1   
     8    2   36 1   
     9    3   28 1   
    10    3   37 1   
    11    3   38 1   
    12    3   39 1   
    13    4   27 1   
    14    5   30 1   
    15    6   30 1   
    16    7   24 1   
    17    8    9 1   
    18    8   40 1   
    19    9   41 1   
    20   10   21 1   
    21   10   42 1   
    22   11   13 1   
    23   11   43 1   
    24   11   44 1   
    25   12   23 1   
    26   12   45 1   
    27   12   46 1   
    28   13   20 1   
    29   13   47 1   
    30   13   48 1   
    31   14   16 1   
    32   14   28 1   
    33   14   49 1   
    34   14   50 1   
    35   15   17 1   
    36   15   28 1   
    37   15   51 1   
    38   15   52 1   
    39   16   29 1   
    40   16   53 1   
    41   16   54 1   
    42   17   29 1   
    43   17   55 1   
    44   17   56 1   
    45   18   26 1   
    46   19   26 1   
    47   19   27 1   
    48   19   57 1   
    49   20   22 1   
    50   21   30 1   
    51   22   25 1   
    52   23   24 1   
    53   24   27 1   
    54   25   26 1   
    55   29   30 1   
@<TRIPOS>SUBSTRUCTURE
     1 5IO         1 TEMP              0 ****  ****    0 ROOT
