@<TRIPOS>MOLECULE
5IO
   57    52     1     0     0
SMALL
bcc


@<TRIPOS>ATOM
      1 CAA         1.1830   -0.0990    0.3970 c3        1 5IO     -0.045900
      2 CAB         6.1320   -2.7670   -0.5670 c1        1 5IO     -0.084500
      3 OAD         9.2870    1.0500    2.7620 o         1 5IO     -0.655500
      4 OAE         5.3680   -1.9890    6.9420 o         1 5IO     -0.549400
      5 OAF         6.7460   -1.5980    5.1200 o         1 5IO     -0.549400
      6 IAG         9.4610   -0.9690    0.1820 i         1 5IO     -0.083800
      7 CAH         2.6170    1.1640    5.7220 ca        1 5IO     -0.111000
      8 CAI         2.6450    1.5980    4.3990 ca        1 5IO     -0.142000
      9 CAJ         4.7660    0.0570    5.4390 ca        1 5IO     -0.060500
     10 CAK         2.0370    0.3690    1.5040 c2        1 5IO     -0.256200
     11 CAL         6.4220   -2.0100    0.3140 cg        1 5IO     -0.171300
     12 CAM         2.9920    1.2910    1.3370 c2        1 5IO      0.027100
     13 CAN         7.0480   -4.3510    4.3900 cx        1 5IO      0.113300
     14 CAO         4.5550   -5.9710    7.9870 c1        1 5IO     -0.184500
     15 CAP        12.5430    1.2390    2.6900 c1        1 5IO      0.202300
     16 CAQ         4.6180   -4.7760    8.0140 c1        1 5IO     -0.184500
     17 NAR         5.6720   -0.8030    2.2280 nc        1 5IO     -0.638300
     18 NAS         7.1110    0.7590    3.3490 n         1 5IO     -0.440400
     19 OAT         3.8590    1.7690    2.3060 os        1 5IO     -0.266200
     20 CAU         3.6660    0.4010    6.2310 ca        1 5IO     -0.092000
     21 CAV         3.7340    1.2480    3.5930 ca        1 5IO      0.114100
     22 CAW         6.7160   -1.0880    1.3540 cc        1 5IO      0.378900
     23 CAX         7.9710   -0.5100    1.4540 cd        1 5IO     -0.167400
     24 CAY         4.7900    0.4730    4.1060 ca        1 5IO     -0.118900
     25 CAZ         5.9040    0.0970    3.1880 cd        1 5IO      0.624500
     26 CBA         8.2160    0.4580    2.5230 c         1 5IO      0.725700
     27 NBB         5.9060   -4.2450    5.3160 n4        1 5IO     -0.850000
     28 NBC        13.7010    1.2650    2.7490 n1        1 5IO     -0.416800
     29 HAA         1.3950    0.4510   -0.5540 hc        1 5IO      0.038367
     30 HAAA        0.1030    0.0410    0.6550 hc        1 5IO      0.038367
     31 HAAB        1.3620   -1.1900    0.2160 hc        1 5IO      0.038367
     32 HAB         2.8390   -2.9040   -0.4620 ha        1 5IO      0.000250
     33 HABA        3.5040   -2.8920   -0.5930 ha        1 5IO      0.000250
     34 HABB        5.8960   -3.4340   -1.3580 ha        1 5IO      0.172500
     35 HAC         5.2920   -3.2870    3.4300 hx        1 5IO      0.133450
     36 HACA        5.1310   -5.1390    3.4440 hx        1 5IO      0.133450
     37 HACB        5.6320   -5.0430    5.8740 hn        1 5IO      0.497300
     38 HAH         1.7620    1.4250    6.3640 ha        1 5IO      0.138000
     39 HAI         1.8280    2.2030    3.9790 ha        1 5IO      0.149000
     40 HAJ         3.6280    0.0370    7.2720 ha        1 5IO      0.151000
     41 HAK         3.2440    1.8010    0.3910 h4        1 5IO      0.167000
     42 HAKA        1.8580   -0.0980    2.4860 ha        1 5IO      0.137000
     43 HAL         4.4890   -1.5400   -2.1520 ha        1 5IO      0.000250
     44 HALA        4.1770   -1.0730   -2.5320 ha        1 5IO      0.000250
     45 HAM         3.3410    0.9280   -1.9740 ha        1 5IO      0.000250
     46 HAMA        3.0560    1.5410   -1.9360 ha        1 5IO      0.000250
     47 HAN         3.4790   -4.2330    2.1480 ha        1 5IO      0.000250
     48 HANA        3.2450   -3.9180    1.5950 ha        1 5IO      0.000250
     49 HAO         4.4840   -7.0300    7.9940 ha        1 5IO      0.187500
     50 HAOA        5.7880   -3.3290    5.8360 hn        1 5IO      0.497300
     51 HAP        11.4680    1.2140    2.6350 ha        1 5IO      0.212500
     52 HAPA        7.6010   -5.3140    4.3720 hx        1 5IO      0.133450
     53 HAQ         7.7110   -3.4480    4.3550 hx        1 5IO      0.133450
     54 HAQA        4.6800   -3.7040    8.0310 ha        1 5IO      0.187500
     55 HNAS        7.2380    1.3960    4.1060 hn        1 5IO      0.344500
     56 SBD         6.0640   -0.8150    6.2350 s4        1 5IO      0.278300
     57 CAC         5.6520   -4.2520    3.8640 cx        1 5IO      0.113300
@<TRIPOS>BOND
     1    1   10 1   
     2    1   29 1   
     3    1   30 1   
     4    1   31 1   
     5    2   11 3   
     6    2   34 1   
     7    3   26 2   
     8    4   56 1   
     9    5   56 1   
    10    6   23 1   
    11    7    8 ar  
    12    7   20 ar  
    13    7   38 1   
    14    8   21 ar  
    15    8   39 1   
    16    9   20 ar  
    17    9   24 ar  
    18    9   56 1   
    19   10   12 2   
    20   10   42 1   
    21   11   22 1   
    22   12   19 1   
    23   12   41 1   
    24   13   27 1   
    25   13   52 1   
    26   13   53 1   
    27   13   57 1   
    28   14   16 3   
    29   14   49 1   
    30   15   28 3   
    31   15   51 1   
    32   16   54 1   
    33   17   22 1   
    34   17   25 2   
    35   18   25 1   
    36   18   26 1   
    37   18   55 1   
    38   19   21 1   
    39   20   40 1   
    40   21   24 ar  
    41   22   23 2   
    42   23   26 1   
    43   24   25 1   
    44   27   37 1   
    45   27   50 1   
    46   27   57 1   
    47   32   33 1   
    48   35   57 1   
    49   36   57 1   
    50   43   44 1   
    51   45   46 1   
    52   47   48 1   
@<TRIPOS>SUBSTRUCTURE
     1 5IO         1 TEMP              0 ****  ****    0 ROOT
