@<TRIPOS>MOLECULE
5IO
   57    59     1     0     0
SMALL
bcc


@<TRIPOS>ATOM
      1 CAA        -0.1200    7.0150   -0.9260 c3        1 5IO     -0.095100
      2 CAB        -2.2060   -0.9580    3.0940 c3        1 5IO     -0.087100
      3 OAD        -3.7880    1.6680   -1.8040 o         1 5IO     -0.610500
      4 OAE         3.4970   -2.1540   -1.8600 o         1 5IO     -0.649300
      5 OAF         5.3180   -0.5730   -1.9560 o         1 5IO     -0.649300
      6 IAG        -5.2130   -0.3820    0.2740 i         1 5IO     -0.080800
      7 CAH         3.5040    1.5440   -1.3130 ca        1 5IO      0.038000
      8 CAI         2.6110    2.6040   -1.2390 ca        1 5IO     -0.241000
      9 CAJ         1.7210   -0.0210   -0.9130 ca        1 5IO      0.066000
     10 CAK        -0.4800    5.5560   -0.8240 c3        1 5IO     -0.089400
     11 CAL        -2.4630   -1.5390    1.7250 c3        1 5IO     -0.049200
     12 CAM         0.7590    4.6960   -1.0070 c3        1 5IO      0.129400
     13 CAN         3.3880   -1.7640    2.4350 c3        1 5IO      0.151300
     14 CAO         5.2340   -0.1950    2.3330 c3        1 5IO      0.151300
     15 CAP         3.8060   -2.3370    1.0640 c3        1 5IO      0.226300
     16 CAQ         5.6440   -0.7770    0.9630 c3        1 5IO      0.226300
     17 NAR        -0.9030   -0.2010    0.4000 nc        1 5IO     -0.657300
     18 NAS        -1.6020    1.3120   -1.3200 n         1 5IO     -0.457400
     19 OAT         0.3000    3.3360   -0.9070 os        1 5IO     -0.335900
     20 CAU         3.0780    0.2210   -1.1480 ca        1 5IO     -0.419500
     21 CAV         1.2500    2.3520   -0.9960 ca        1 5IO      0.217100
     22 CAW        -2.2330   -0.5180    0.6410 cc        1 5IO      0.238400
     23 CAX        -3.2740    0.0570   -0.0610 cd        1 5IO     -0.177400
     24 CAY         0.7950    1.0210   -0.8330 ca        1 5IO     -0.218900
     25 CAZ        -0.6280    0.6950   -0.5530 cd        1 5IO      0.582500
     26 CBA        -2.9750    1.0450   -1.1000 c         1 5IO      0.704700
     27 NBB         4.4930   -1.1430    3.1510 n3        1 5IO     -0.728600
     28 NBC         4.5570   -1.4080    0.2590 n3        1 5IO     -0.815500
     29 HAA         0.3200    7.2470   -1.9260 hc        1 5IO      0.041367
     30 HAAA       -1.0360    7.6410   -0.7910 hc        1 5IO      0.041367
     31 HAAB        0.6200    7.2980   -0.1400 hc        1 5IO      0.041367
     32 HAB        -2.8670   -0.0780    3.2830 hc        1 5IO      0.042700
     33 HABA       -2.4170   -1.7310    3.8730 hc        1 5IO      0.042700
     34 HABB       -1.1430   -0.6320    3.1960 hc        1 5IO      0.042700
     35 HAC         3.6030   -1.3830    5.0320 h1        1 5IO      0.034700
     36 HACA        4.9920   -0.2040    4.9550 h1        1 5IO      0.034700
     37 HACB        3.3540    0.2730    4.3100 h1        1 5IO      0.034700
     38 HAH         4.5720    1.7440   -1.5230 ha        1 5IO      0.163000
     39 HAI         2.9760    3.6320   -1.3750 ha        1 5IO      0.152000
     40 HAJ         1.3740   -1.0670   -0.8020 ha        1 5IO      0.171000
     41 HAK        -0.9400    5.3360    0.1740 hc        1 5IO      0.063200
     42 HAKA       -1.2380    5.2860   -1.6050 hc        1 5IO      0.063200
     43 HAL        -1.7840   -2.4180    1.5540 hc        1 5IO      0.069700
     44 HALA       -3.5190   -1.9180    1.6630 hc        1 5IO      0.069700
     45 HAM         1.2210    4.8550   -2.0170 h1        1 5IO      0.048700
     46 HAMA        1.5140    4.8930   -0.2030 h1        1 5IO      0.048700
     47 HAN         2.5300   -1.0450    2.2850 h1        1 5IO      0.039700
     48 HANA        3.0140   -2.6210    3.0630 h1        1 5IO      0.039700
     49 HAO         6.1780    0.0700    2.8870 h1        1 5IO      0.039700
     50 HAOA        4.6520    0.7580    2.1660 h1        1 5IO      0.039700
     51 HAP         4.4320   -3.2600    1.2340 h1        1 5IO      0.061450
     52 HAPA        2.8730   -2.6420    0.5080 h1        1 5IO      0.061450
     53 HAQ         6.0610    0.0590    0.3320 h1        1 5IO      0.061450
     54 HAQA        6.4630   -1.5370    1.1250 h1        1 5IO      0.061450
     55 HNAS       -1.3480    2.0200   -1.9760 hn        1 5IO      0.348500
     56 SBD         4.1770   -1.0620   -1.2800 sy        1 5IO      1.511200
     57 CAC         4.0830   -0.5780    4.4160 c3        1 5IO      0.156100
@<TRIPOS>BOND
     1    1   10 1   
     2    1   29 1   
     3    1   30 1   
     4    1   31 1   
     5    2   11 1   
     6    2   32 1   
     7    2   33 1   
     8    2   34 1   
     9    3   26 2   
    10    4   56 2   
    11    5   56 2   
    12    6   23 1   
    13    7    8 ar  
    14    7   20 ar  
    15    7   38 1   
    16    8   21 ar  
    17    8   39 1   
    18    9   20 ar  
    19    9   24 ar  
    20    9   40 1   
    21   10   12 1   
    22   10   41 1   
    23   10   42 1   
    24   11   22 1   
    25   11   43 1   
    26   11   44 1   
    27   12   19 1   
    28   12   45 1   
    29   12   46 1   
    30   13   15 1   
    31   13   27 1   
    32   13   47 1   
    33   13   48 1   
    34   14   16 1   
    35   14   27 1   
    36   14   49 1   
    37   14   50 1   
    38   15   28 1   
    39   15   51 1   
    40   15   52 1   
    41   16   28 1   
    42   16   53 1   
    43   16   54 1   
    44   17   22 1   
    45   17   25 2   
    46   18   25 1   
    47   18   26 1   
    48   18   55 1   
    49   19   21 1   
    50   20   56 1   
    51   21   24 ar  
    52   22   23 2   
    53   23   26 1   
    54   24   25 1   
    55   27   57 1   
    56   28   56 1   
    57   35   57 1   
    58   36   57 1   
    59   37   57 1   
@<TRIPOS>SUBSTRUCTURE
     1 5IO         1 TEMP              0 ****  ****    0 ROOT
