@<TRIPOS>MOLECULE
5IO
   57    50     1     0     0
SMALL
bcc


@<TRIPOS>ATOM
      1 CAA         0.9250   -1.5640   -1.1950 c3        1 5IO     -0.308000
      2 CAB         5.8750   -0.0130   -2.6180 c1        1 5IO     -0.133000
      3 OAD         9.7370   -2.3220    1.2940 o         1 5IO     -0.338000
      4 OAE         6.1330    2.8360    6.8920 o         1 5IO     -0.911000
      5 OAF         4.8640    2.3510    8.8450 o         1 5IO     -0.911000
      6 IAG         9.0490   -2.0670   -1.9010 i         1 5IO      0.197000
      7 CAH         4.5480    0.5290    5.7870 c1        1 5IO      0.113000
      8 CAI         4.0590    0.3620    4.5850 c2        1 5IO     -0.179000
      9 CAJ         7.0380    0.6300    4.1720 c1        1 5IO     -0.102000
     10 CAK         0.9210   -1.6070    0.2450 c1        1 5IO     -0.090000
     11 CAL         6.3810   -0.3060   -1.5750 c1        1 5IO     -0.138000
     12 CAM         2.8030   -1.0250    2.6920 c1        1 5IO     -0.056000
     13 CAN         5.1000   -4.0490    3.3260 c1        1 5IO     -0.217000
     14 CAO         5.3530   -3.1480    6.4370 c1        1 5IO     -0.250500
     15 CAP         6.8730   -0.0090    9.0330 c1        1 5IO     -0.149000
     16 CAQ         5.6200   -2.6790    7.5060 c1        1 5IO     -0.250500
     17 NAR         6.2940   -0.1540    0.8040 n2        1 5IO     -0.210000
     18 NAS         7.9950   -1.1580    2.1740 ns        1 5IO     -0.290000
     19 OAT         4.1260   -0.9490    2.5470 os        1 5IO     -0.130000
     20 CAU         4.9520    0.6130    7.0160 c2        1 5IO     -0.867000
     21 CAV         4.8100   -0.1190    3.4410 c2        1 5IO      0.250000
     22 CAW         6.9620   -0.6300   -0.3200 c2        1 5IO      0.202000
     23 CAX         8.1250   -1.3800   -0.2510 c2        1 5IO     -0.422000
     24 CAY         6.1640    0.0650    3.2390 c2        1 5IO     -0.197000
     25 CAZ         6.8260   -0.4350    1.9960 c2        1 5IO      0.215000
     26 CBA         8.7050   -1.6690    1.0630 c2        1 5IO      0.340000
     27 NBB         5.9740   -4.9350    2.9540 n7        1 5IO     -0.173000
     28 NBC         7.0630    1.1490    8.4580 n7        1 5IO     -0.659000
     29 HAA         1.8600   -1.0400   -1.5400 hc        1 5IO      0.114000
     30 HAAA        0.0430   -1.0900   -1.6940 hc        1 5IO      0.114000
     31 HAAB        1.0040   -2.6310   -1.5480 hc        1 5IO      0.114000
     32 HAB         4.0030   -1.3160   -0.4470 ha        1 5IO      0.004875
     33 HABA        3.5840   -1.4620    0.0670 ha        1 5IO      0.004875
     34 HABB        5.4440    0.2400   -3.5540 ha        1 5IO      0.230000
     35 HAC         7.9100   -5.4090    3.6310 h1        1 5IO      0.099000
     36 HACA        6.6380   -5.2190    4.9350 h1        1 5IO      0.099000
     37 HACB        6.6460   -6.7070    3.8690 h1        1 5IO      0.099000
     38 HAH         4.7960   -0.3050    7.6470 h4        1 5IO      0.249000
     39 HAI         2.9790    0.5630    4.3860 ha        1 5IO      0.230000
     40 HAJ         6.6900    1.3530    4.9200 ha        1 5IO      0.095000
     41 HAK         2.4280   -1.7660    1.9380 ha        1 5IO      0.124000
     42 HAKA        0.0030   -1.2790    0.7550 ha        1 5IO      0.047000
     43 HAL         3.5630    0.6500   -1.7270 ha        1 5IO      0.004875
     44 HALA        2.9930    0.8880   -1.4490 ha        1 5IO      0.004875
     45 HAM         1.7430    0.4570    1.0830 ha        1 5IO      0.004875
     46 HAMA        2.2330    0.2670    0.6490 ha        1 5IO      0.004875
     47 HAN         3.0080   -2.8740    4.1890 ha        1 5IO      0.004875
     48 HANA        2.5030   -2.4970    4.4440 ha        1 5IO      0.004875
     49 HAO         5.1160   -3.5520    5.4690 ha        1 5IO      0.244500
     50 HAOA        6.1310   -5.2190    2.0030 hn        1 5IO      0.166000
     51 HAP         4.4930   -3.5860    2.5190 ha        1 5IO      0.050000
     52 HAPA        7.7250   -0.5430    9.4900 ha        1 5IO      0.079000
     53 HAQ         5.8610   -2.2540    8.4510 ha        1 5IO      0.244500
     54 HAQA        7.9490    1.6100    8.3730 hn        1 5IO      0.204000
     55 HNAS        8.3920   -1.2240    3.0910 hn        1 5IO      0.278000
     56 SBD         5.6820    1.8830    7.8180 s6        1 5IO      2.851000
     57 CAC         6.8380   -5.6020    3.8990 c3        1 5IO     -0.109000
@<TRIPOS>BOND
     1    1   10 1   
     2    1   29 1   
     3    1   30 1   
     4    1   31 1   
     5    2   11 1   
     6    2   34 1   
     7    3   26 1   
     8    4   56 1   
     9    5   56 1   
    10    6   23 1   
    11    7    8 1   
    12    7   20 1   
    13    8   21 1   
    14    8   39 1   
    15    9   24 1   
    16    9   40 1   
    17   10   42 1   
    18   11   22 1   
    19   12   19 1   
    20   12   41 1   
    21   13   27 1   
    22   13   51 1   
    23   14   16 1   
    24   14   49 1   
    25   15   28 1   
    26   15   52 1   
    27   16   53 1   
    28   17   22 1   
    29   17   25 1   
    30   18   25 1   
    31   18   26 1   
    32   18   55 1   
    33   19   21 1   
    34   20   38 1   
    35   20   56 1   
    36   21   24 1   
    37   22   23 1   
    38   23   26 1   
    39   24   25 1   
    40   27   50 1   
    41   27   57 1   
    42   28   54 1   
    43   28   56 1   
    44   32   33 1   
    45   35   57 1   
    46   36   57 1   
    47   37   57 1   
    48   43   44 1   
    49   45   46 1   
    50   47   48 1   
@<TRIPOS>SUBSTRUCTURE
     1 5IO         1 TEMP              0 ****  ****    0 ROOT
