@<TRIPOS>MOLECULE
5IQ
   19    20     1     0     0
SMALL
bcc


@<TRIPOS>ATOM
      1 CAB         0.0180   -0.0270   -0.0210 ca        1 5IQ     -0.045000
      2 CAF         1.4400   -0.0790    0.0100 ca        1 5IQ     -0.221300
      3 CAK         2.0940   -0.0830    1.2290 ca        1 5IQ      0.370200
      4 NAH         1.4510   -0.0410    2.4390 nb        1 5IQ     -0.658000
      5 CAD         0.1300    0.0000    2.4220 ca        1 5IQ      0.413200
      6 CAA        -0.6630    0.0080    1.2230 ca        1 5IQ     -0.127300
      7 CAC        -2.0760    0.0450    1.2730 ca        1 5IQ     -0.150000
      8 CAG        -2.7980    0.0520    0.1040 ca        1 5IQ     -0.088000
      9 CAI        -2.1500    0.0310   -1.1450 ca        1 5IQ     -0.200000
     10 CAE        -0.7570   -0.0130   -1.2380 ca        1 5IQ      0.150600
     11 NAJ        -0.1320   -0.1200   -2.4830 nh        1 5IQ     -0.818200
     12 HAF         2.0290   -0.1310   -0.9150 ha        1 5IQ      0.137000
     13 HAK         3.1950   -0.1250    1.2930 h4        1 5IQ      0.022100
     14 HAD        -0.3810    0.0290    3.4020 h4        1 5IQ      0.022100
     15 HAC        -2.5760    0.0680    2.2520 ha        1 5IQ      0.137000
     16 HAG        -3.8980    0.0790    0.1270 ha        1 5IQ      0.134000
     17 HAI        -2.7690    0.0420   -2.0550 ha        1 5IQ      0.134000
     18 HAJ1        0.7900    0.2520   -2.5260 hn        1 5IQ      0.393800
     19 HAJ2       -0.7030    0.1510   -3.2530 hn        1 5IQ      0.393800
@<TRIPOS>BOND
     1    1    2 ar  
     2    1    6 ar  
     3    1   10 ar  
     4    2    3 ar  
     5    2   12 1   
     6    3    4 ar  
     7    3   13 1   
     8    4    5 ar  
     9    5    6 ar  
    10    5   14 1   
    11    6    7 ar  
    12    7    8 ar  
    13    7   15 1   
    14    8    9 ar  
    15    8   16 1   
    16    9   10 ar  
    17    9   17 1   
    18   10   11 1   
    19   11   18 1   
    20   11   19 1   
@<TRIPOS>SUBSTRUCTURE
     1 5IQ         1 TEMP              0 ****  ****    0 ROOT
