@<TRIPOS>MOLECULE
5IQ
   19    20     1     0     0
SMALL
bcc


@<TRIPOS>ATOM
      1 CAB         0.0030    0.4620    0.0250 ca        1 5IQ     -0.045000
      2 CAF        -1.0270    1.4450    0.0420 ca        1 5IQ     -0.221300
      3 CAK        -2.3510    1.0420    0.0180 ca        1 5IQ      0.370200
      4 NAH        -2.7480   -0.2680   -0.0210 nb        1 5IQ     -0.658000
      5 CAD        -1.8010   -1.1900   -0.0300 ca        1 5IQ      0.413200
      6 CAA        -0.3930   -0.9000   -0.0060 ca        1 5IQ     -0.127300
      7 CAC         0.5730   -1.9330   -0.0100 ca        1 5IQ     -0.150000
      8 CAG         1.9100   -1.6150    0.0130 ca        1 5IQ     -0.088000
      9 CAI         2.3320   -0.2740    0.0310 ca        1 5IQ     -0.200000
     10 CAE         1.4110    0.7760    0.0420 ca        1 5IQ      0.150600
     11 NAJ         1.8450    2.1000    0.1460 nh        1 5IQ     -0.818200
     12 HAF        -0.7920    2.5160    0.0890 ha        1 5IQ      0.137000
     13 HAK        -3.1760    1.7750    0.0320 h4        1 5IQ      0.022100
     14 HAD        -2.1300   -2.2450   -0.0570 h4        1 5IQ      0.022100
     15 HAC         0.2370   -2.9800   -0.0300 ha        1 5IQ      0.137000
     16 HAG         2.6730   -2.4090    0.0130 ha        1 5IQ      0.134000
     17 HAI         3.4130   -0.0660    0.0450 ha        1 5IQ      0.134000
     18 HAJ1        2.7990    2.2400   -0.1030 hn        1 5IQ      0.393800
     19 HAJ2        1.2320    2.7780   -0.2480 hn        1 5IQ      0.393800
@<TRIPOS>BOND
     1    1    2 ar  
     2    1    6 ar  
     3    1   10 ar  
     4    2    3 ar  
     5    2   12 1   
     6    3    4 ar  
     7    3   13 1   
     8    4    5 ar  
     9    5    6 ar  
    10    5   14 1   
    11    6    7 ar  
    12    7    8 ar  
    13    7   15 1   
    14    8    9 ar  
    15    8   16 1   
    16    9   10 ar  
    17    9   17 1   
    18   10   11 1   
    19   11   18 1   
    20   11   19 1   
@<TRIPOS>SUBSTRUCTURE
     1 5IQ         1 TEMP              0 ****  ****    0 ROOT
