@<TRIPOS>MOLECULE
5IQ
   19    20     1     0     0
SMALL
bcc


@<TRIPOS>ATOM
      1 CAB         0.0200   -0.0250   -0.0200 ca        1 5IQ     -0.045000
      2 CAF         1.4420   -0.0760    0.0130 ca        1 5IQ     -0.221300
      3 CAK         2.0930   -0.0810    1.2340 ca        1 5IQ      0.370200
      4 NAH         1.4480   -0.0410    2.4420 nb        1 5IQ     -0.658000
      5 CAD         0.1270   -0.0000    2.4240 ca        1 5IQ      0.413200
      6 CAA        -0.6630    0.0070    1.2230 ca        1 5IQ     -0.127300
      7 CAC        -2.0770    0.0430    1.2710 ca        1 5IQ     -0.150000
      8 CAG        -2.7970    0.0510    0.1000 ca        1 5IQ     -0.088000
      9 CAI        -2.1470    0.0310   -1.1470 ca        1 5IQ     -0.200000
     10 CAE        -0.7530   -0.0110   -1.2380 ca        1 5IQ      0.150600
     11 NAJ        -0.1270   -0.1160   -2.4820 nv        1 5IQ     -0.818200
     12 HAF         2.0320   -0.1260   -0.9110 ha        1 5IQ      0.137000
     13 HAK         3.1950   -0.1210    1.3000 h4        1 5IQ      0.022100
     14 HAD        -0.3850    0.0280    3.4030 h4        1 5IQ      0.022100
     15 HAC        -2.5790    0.0650    2.2490 ha        1 5IQ      0.137000
     16 HAG        -3.8970    0.0760    0.1220 ha        1 5IQ      0.134000
     17 HAI        -2.7650    0.0420   -2.0580 ha        1 5IQ      0.134000
     18 HAJ1        0.7950    0.2570   -2.5240 hn        1 5IQ      0.393800
     19 HAJ2       -0.6960    0.1550   -3.2530 hn        1 5IQ      0.393800
@<TRIPOS>BOND
     1    1    2 ar  
     2    1    6 ar  
     3    1   10 ar  
     4    2    3 ar  
     5    2   12 1   
     6    3    4 ar  
     7    3   13 1   
     8    4    5 ar  
     9    5    6 ar  
    10    5   14 1   
    11    6    7 ar  
    12    7    8 ar  
    13    7   15 1   
    14    8    9 ar  
    15    8   16 1   
    16    9   10 ar  
    17    9   17 1   
    18   10   11 1   
    19   11   18 1   
    20   11   19 1   
@<TRIPOS>SUBSTRUCTURE
     1 5IQ         1 TEMP              0 ****  ****    0 ROOT
