@<TRIPOS>MOLECULE
5IQ
   19    16     1     0     0
SMALL
bcc


@<TRIPOS>ATOM
      1 CAB         0.4450    0.0110   -0.0450 c1        1 5IQ     -0.045000
      2 CAF         1.8300    0.0110   -0.0450 c1        1 5IQ     -0.125500
      3 CAK         2.5250    0.0110    1.1590 c1        1 5IQ     -0.125500
      4 NAH         1.8400    0.0110    2.3460 n1        1 5IQ     -0.132000
      5 CAD         0.4740    0.0110    2.3490 c1        1 5IQ     -0.052000
      6 CAA        -0.2330    0.0110    1.1330 c1        1 5IQ     -0.062000
      7 CAC        -1.6440    0.0110    1.1350 c2        1 5IQ     -0.150000
      8 CAG        -2.3390    0.0110   -0.0640 c1        1 5IQ     -0.088000
      9 CAI        -1.6490    0.0110   -1.2640 c1        1 5IQ     -0.200000
     10 CAE        -0.2640    0.0110   -1.2660 c2        1 5IQ      0.069000
     11 NAJ         0.1630   -0.0500   -2.6180 n3        1 5IQ     -0.327000
     12 HAF         2.3180    0.0110   -0.8900 ha        1 5IQ      0.148000
     13 HAK         3.5010    0.0110    1.1590 ha        1 5IQ      0.148000
     14 HAD        -0.0120    0.0110    3.1960 ha        1 5IQ      0.159000
     15 HAC        -2.1310    0.0110    1.9810 ha        1 5IQ      0.137000
     16 HAG        -3.3150    0.0110   -0.0620 ha        1 5IQ      0.134000
     17 HAI        -2.1380    0.0100   -2.1080 ha        1 5IQ      0.134000
     18 HAJ1        0.7410   -0.7030   -2.8850 hn        1 5IQ      0.189000
     19 HAJ2       -0.1140    0.5850   -3.2120 hn        1 5IQ      0.189000
@<TRIPOS>BOND
     1    1    6 1   
     2    1   10 1   
     3    2    3 1   
     4    2   12 1   
     5    3   13 1   
     6    4    5 1   
     7    5   14 1   
     8    6    7 1   
     9    7    8 1   
    10    7   15 1   
    11    8   16 1   
    12    9   10 1   
    13    9   17 1   
    14   10   11 1   
    15   11   18 1   
    16   11   19 1   
@<TRIPOS>SUBSTRUCTURE
     1 5IQ         1 TEMP              0 ****  ****    0 ROOT
