@<TRIPOS>MOLECULE
5IQ
   20    21     1     0     0
SMALL
bcc


@<TRIPOS>ATOM
      1 CAB         0.0020   -0.0080   -0.0180 ca        1 5IQ      0.022000
      2 CAF         1.4220   -0.0250   -0.0080 ca        1 5IQ     -0.300300
      3 CAK         2.0850   -0.0290    1.2100 ca        1 5IQ      0.464200
      4 NAH         1.4500   -0.0190    2.4230 nb        1 5IQ     -0.635000
      5 CAD         0.1280   -0.0040    2.4270 ca        1 5IQ      0.466200
      6 CAA        -0.6760    0.0020    1.2320 ca        1 5IQ     -0.170300
      7 CAC        -2.0880    0.0190    1.2850 ca        1 5IQ     -0.012000
      8 CAG        -2.8300    0.0250    0.1210 ca        1 5IQ     -0.143000
      9 CAI        -2.1910    0.0140   -1.1320 ca        1 5IQ     -0.039000
     10 CAE        -0.8020   -0.0020   -1.2000 ca        1 5IQ     -0.099400
     11 NAJ        -0.1370   -0.0130   -2.5020 n4        1 5IQ     -0.695000
     12 HAF         2.0090   -0.0340   -0.9350 ha        1 5IQ      0.132000
     13 HAK         3.1920   -0.0420    1.2670 h4        1 5IQ      0.054100
     14 HAD        -0.3700    0.0040    3.4170 h4        1 5IQ      0.054100
     15 HAC        -2.5890    0.0270    2.2690 ha        1 5IQ      0.174000
     16 HAG        -3.9320    0.0370    0.1560 ha        1 5IQ      0.178000
     17 HAI        -2.8180    0.0190   -2.0410 ha        1 5IQ      0.158000
     18 HAJ1        0.4650    0.8170   -2.5830 hn        1 5IQ      0.463133
     19 HAJ2        0.4460   -0.8560   -2.5790 hn        1 5IQ      0.463133
     20 HAJ3       -0.8290   -0.0060   -3.2580 hn        1 5IQ      0.463133
@<TRIPOS>BOND
     1    1    2 ar  
     2    1    6 ar  
     3    1   10 ar  
     4    2    3 ar  
     5    2   12 1   
     6    3    4 ar  
     7    3   13 1   
     8    4    5 ar  
     9    5    6 ar  
    10    5   14 1   
    11    6    7 ar  
    12    7    8 ar  
    13    7   15 1   
    14    8    9 ar  
    15    8   16 1   
    16    9   10 ar  
    17    9   17 1   
    18   10   11 1   
    19   11   18 1   
    20   11   19 1   
    21   11   20 1   
@<TRIPOS>SUBSTRUCTURE
     1 5IQ         1 TEMP              0 ****  ****    0 ROOT
