@<TRIPOS>MOLECULE
5IT
   31    31     1     0     0
SMALL
bcc


@<TRIPOS>ATOM
      1 P           1.6110   -3.5450    0.4270 p4        1 5IT      1.699200
      2 OP1         1.4300   -4.7950   -0.4060 o         1 5IT     -0.915500
      3 OP2         3.0840   -3.3100    0.6680 os        1 5IT     -1.275000
      4 OP3         0.9060   -3.7160    1.7500 o         1 5IT     -0.964300
      5 O5'         0.9970   -2.3050   -0.3430 os        1 5IT     -0.550200
      6 C5'         1.1470   -1.0190    0.2250 c3        1 5IT      0.229400
      7 C4'         1.6890   -0.0680   -0.8160 c3        1 5IT      0.049100
      8 O4'         0.5020    0.4110   -1.8010 os        1 5IT     -0.437600
      9 C3'         2.1430    0.9980   -0.2480 c3        1 5IT      0.157100
     10 O3'         3.2700    1.5570   -1.0330 oh        1 5IT     -0.670800
     11 C2'         0.9370    2.0000   -0.2420 c3        1 5IT     -0.132400
     12 C1'        -0.1210    1.3770   -1.1780 c3        1 5IT      0.303500
     13 N1         -1.2170    0.8510   -0.4110 n         1 5IT     -0.366000
     14 C2         -2.0210   -0.2500   -0.9460 c         1 5IT      0.800500
     15 O2         -1.6580   -0.8340   -1.9490 o         1 5IT     -0.673500
     16 N3         -3.3050   -0.5890   -0.3270 n         1 5IT     -0.594500
     17 C4         -3.7400    0.1080    0.8340 c         1 5IT      0.736700
     18 O4         -4.7980   -0.1860    1.3600 o         1 5IT     -0.656500
     19 C5         -2.9050    1.1690    1.4070 cc        1 5IT     -0.247400
     20 I5         -3.5740    2.2460    3.0930 i         1 5IT     -0.080800
     21 C6         -1.6110    1.4970    0.7890 cd        1 5IT      0.140600
     22 H5'         1.7680   -1.0660    0.9770 h1        1 5IT     -0.004300
     23 H5''        0.2780   -0.6970    0.5400 h1        1 5IT     -0.004300
     24 H4'         2.3990   -0.5030   -1.3320 h1        1 5IT      0.083700
     25 H3'         2.4280    0.8020    0.6660 h1        1 5IT      0.105700
     26 HO3'        3.8620    1.9310   -0.4790 ho        1 5IT      0.502000
     27 H2'         1.2190    2.8710   -0.5820 hc        1 5IT      0.055700
     28 H2''        0.5770    2.0900    0.6640 hc        1 5IT      0.055700
     29 H1'        -0.4410    2.0420   -1.8170 h2        1 5IT      0.083700
     30 HN3        -3.8030   -1.2720   -0.6600 hn        1 5IT      0.332500
     31 H6         -1.0530    2.2030    1.1690 h4        1 5IT      0.237000
@<TRIPOS>BOND
     1    1    2 1   
     2    1    4 2   
     3    1    5 1   
     4    5    6 1   
     5    6    7 1   
     6    6   22 1   
     7    6   23 1   
     8    7    8 1   
     9    7    9 1   
    10    7   24 1   
    11    8   12 1   
    12    9   10 1   
    13    9   11 1   
    14    9   25 1   
    15   10   26 1   
    16   11   12 1   
    17   11   27 1   
    18   11   28 1   
    19   12   13 1   
    20   12   29 1   
    21   13   14 1   
    22   13   21 1   
    23   14   15 2   
    24   14   16 1   
    25   16   17 1   
    26   16   30 1   
    27   17   18 2   
    28   17   19 1   
    29   19   20 1   
    30   19   21 2   
    31   21   31 1   
@<TRIPOS>SUBSTRUCTURE
     1 5IT         1 TEMP              0 ****  ****    0 ROOT
