@<TRIPOS>MOLECULE
5IT
   31    32     1     0     0
SMALL
bcc


@<TRIPOS>ATOM
      1 P          -0.9730    0.6300   -4.3450 p5        1 5IT      1.338900
      2 OP1        -1.1450   -0.2220   -3.1000 o         1 5IT     -0.923500
      3 OP2        -2.1830    1.2680   -4.9410 o         1 5IT     -0.923500
      4 OP3         0.1000    0.0550   -5.2390 o         1 5IT     -0.923500
      5 O5'        -0.0360    1.9400   -3.6920 os        1 5IT     -0.566200
      6 C5'         0.3740    1.8470   -2.3940 c3        1 5IT      0.229400
      7 C4'         1.7780    1.2120   -2.2400 c3        1 5IT      0.064100
      8 O4'         2.0290    1.0250   -0.8230 os        1 5IT     -0.437600
      9 C3'         1.9350   -0.1660   -2.9180 c3        1 5IT      0.099100
     10 O3'         2.7850   -0.0970   -4.0400 oh        1 5IT     -0.655800
     11 C2'         2.5280   -1.0830   -1.8480 c3        1 5IT     -0.117400
     12 C1'         2.2450   -0.3480   -0.5240 c3        1 5IT      0.301500
     13 N1          1.1120   -0.9150    0.2420 n         1 5IT     -0.366000
     14 C2          1.3680   -1.2350    1.5980 c         1 5IT      0.795500
     15 O2          2.5040   -1.1300    2.1280 o         1 5IT     -0.700500
     16 N3          0.3160   -1.7260    2.3830 n         1 5IT     -0.594500
     17 C4         -0.9900   -1.9110    1.8890 c         1 5IT      0.730700
     18 O4         -1.8260   -2.3580    2.7020 o         1 5IT     -0.674500
     19 C5         -1.1960   -1.5600    0.4910 cc        1 5IT     -0.246400
     20 I5         -3.0300   -1.8270   -0.2890 i         1 5IT     -0.078800
     21 C6         -0.1650   -1.0570   -0.2720 cd        1 5IT      0.127600
     22 H5'        -0.3560    1.2580   -1.7700 h1        1 5IT     -0.004800
     23 H5''        0.4530    2.8880   -1.9590 h1        1 5IT     -0.004800
     24 H4'         2.5730    1.9180   -2.5940 h1        1 5IT      0.046700
     25 H3'         0.9050   -0.5360   -3.2430 h1        1 5IT      0.162700
     26 HO3'        2.1770    0.0250   -4.8020 ho        1 5IT      0.480000
     27 H2'         2.0680   -2.0970   -1.8940 hc        1 5IT      0.052200
     28 H2''        3.6330   -1.1870   -1.9770 hc        1 5IT      0.052200
     29 H1'         3.1430   -0.3670    0.1650 h2        1 5IT      0.086700
     30 HN3         0.5170   -1.9330    3.3340 hn        1 5IT      0.325500
     31 H6         -0.3340   -0.7460   -1.3680 h4        1 5IT      0.323000
@<TRIPOS>BOND
     1    1    2 1   
     2    1    3 1   
     3    1    4 1   
     4    1    5 1   
     5    5    6 1   
     6    6    7 1   
     7    6   22 1   
     8    6   23 1   
     9    7    8 1   
    10    7    9 1   
    11    7   24 1   
    12    8   12 1   
    13    9   10 1   
    14    9   11 1   
    15    9   25 1   
    16   10   26 1   
    17   11   12 1   
    18   11   27 1   
    19   11   28 1   
    20   12   13 1   
    21   12   29 1   
    22   13   14 1   
    23   13   21 1   
    24   14   15 2   
    25   14   16 1   
    26   16   17 1   
    27   16   30 1   
    28   17   18 2   
    29   17   19 1   
    30   19   20 1   
    31   19   21 2   
    32   21   31 1   
@<TRIPOS>SUBSTRUCTURE
     1 5IT         1 TEMP              0 ****  ****    0 ROOT
