@<TRIPOS>MOLECULE
5IU
   31    32     1     0     0
SMALL
bcc


@<TRIPOS>ATOM
      1 N1          0.8510    1.1490    0.7340 n         1 5IU     -0.366000
      2 C2          0.0980    1.2860    2.0020 c         1 5IU      0.800500
      3 N3          0.7010    0.8250    3.2750 n         1 5IU     -0.594500
      4 C4          1.9910    0.2780    3.2810 c         1 5IU      0.736700
      5 C5          2.7420    0.1390    2.0100 cc        1 5IU     -0.247400
      6 C6          2.1100    0.5320    0.7300 cd        1 5IU      0.140600
      7 O2         -1.0420    1.6620    1.9830 o         1 5IU     -0.673500
      8 O4          2.5030   -0.0430    4.3240 o         1 5IU     -0.656500
      9 I5          4.6660   -0.6470    2.0210 i         1 5IU     -0.080800
     10 C1'         0.3530    1.7720   -0.4760 c3        1 5IU      0.303500
     11 C2'         0.8880    1.0080   -1.7420 c3        1 5IU     -0.132400
     12 C3'        -0.3160    0.2310   -2.2900 c3        1 5IU      0.157100
     13 C4'        -1.2260    0.3080   -1.3480 c3        1 5IU      0.049100
     14 O3'        -0.8160    0.8610   -3.5640 oh        1 5IU     -0.670800
     15 O4'        -0.9270    1.6650   -0.5350 os        1 5IU     -0.437600
     16 C5'        -1.1210   -0.8970   -0.4120 c3        1 5IU      0.229400
     17 O5'        -2.3930   -1.2900   -0.0190 os        1 5IU     -0.550200
     18 P          -2.7550   -2.8070   -0.0910 p5        1 5IU      1.330900
     19 OP1        -4.2400   -2.9640   -0.4290 o         1 5IU     -0.928833
     20 OP2        -2.4750   -3.4470    1.2290 o         1 5IU     -0.928833
     21 OP3        -1.8970   -3.4910   -1.1920 o         1 5IU     -0.928833
     22 HN3         0.2260    0.9120    4.0780 hn        1 5IU      0.332500
     23 H6          2.6320    0.4360   -0.1500 h4        1 5IU      0.237000
     24 H1'         0.6180    2.7030   -0.5080 h2        1 5IU      0.083700
     25 H2'         1.2320    1.6910   -2.4560 hc        1 5IU      0.055700
     26 H2''        1.6020    0.3930   -1.4920 hc        1 5IU      0.055700
     27 H3'        -0.0830   -0.6630   -2.4410 h1        1 5IU      0.105700
     28 H4'        -2.0880    0.3460   -1.7340 h1        1 5IU      0.083700
     29 HO3'       -0.5530    0.3560   -4.2720 ho        1 5IU      0.502000
     30 H5'        -0.6750   -1.6490   -0.8850 h1        1 5IU     -0.004300
     31 H5''       -0.6040   -0.6550    0.3670 h1        1 5IU     -0.004300
@<TRIPOS>BOND
     1    1    2 1   
     2    1    6 1   
     3    1   10 1   
     4    2    3 1   
     5    2    7 2   
     6    3    4 1   
     7    3   22 1   
     8    4    5 1   
     9    4    8 2   
    10    5    6 2   
    11    5    9 1   
    12    6   23 1   
    13   10   11 1   
    14   10   15 1   
    15   10   24 1   
    16   11   12 1   
    17   11   25 1   
    18   11   26 1   
    19   12   13 1   
    20   12   14 1   
    21   12   27 1   
    22   13   15 1   
    23   13   16 1   
    24   13   28 1   
    25   14   29 1   
    26   16   17 1   
    27   16   30 1   
    28   16   31 1   
    29   17   18 1   
    30   18   19 1   
    31   18   20 1   
    32   18   21 1   
@<TRIPOS>SUBSTRUCTURE
     1 5IU         1 TEMP              0 ****  ****    0 ROOT
