@<TRIPOS>MOLECULE
5IU
   31    32     1     0     0
SMALL
bcc


@<TRIPOS>ATOM
      1 N1          1.1730   -0.7750    0.4910 n         1 5IU     -0.366000
      2 C2          1.6790   -1.2980    1.7050 c         1 5IU      0.800500
      3 N3          0.7740   -1.8920    2.5990 n         1 5IU     -0.594500
      4 C4         -0.6130   -1.9690    2.3600 c         1 5IU      0.736700
      5 C5         -1.0760   -1.3970    1.1010 cc        1 5IU     -0.247400
      6 C6         -0.1760   -0.8250    0.2350 cd        1 5IU      0.140600
      7 O2          2.8950   -1.2580    2.0060 o         1 5IU     -0.673500
      8 O4         -1.3040   -2.5140    3.2440 o         1 5IU     -0.656500
      9 I5         -3.0270   -1.4420    0.6300 i         1 5IU     -0.080800
     10 C1'         2.1190   -0.0930   -0.4330 c3        1 5IU      0.303500
     11 C2'         2.5430   -0.9640   -1.6310 c3        1 5IU     -0.132400
     12 C3'         1.8580   -0.3320   -2.8530 c3        1 5IU      0.157100
     13 C4'         1.3120    1.0220   -2.3610 c3        1 5IU      0.049100
     14 O3'         2.8240   -0.1560   -3.8630 oh        1 5IU     -0.670800
     15 O4'         1.5200    1.0900   -0.9220 os        1 5IU     -0.437600
     16 C5'        -0.1850    1.2540   -2.6830 c3        1 5IU      0.229400
     17 O5'        -0.3200    1.9790   -3.8310 os        1 5IU     -0.550200
     18 P          -0.7590    1.0100   -5.2220 p5        1 5IU      1.330900
     19 OP1        -1.9940    0.3220   -4.7180 o         1 5IU     -0.928833
     20 OP2        -0.8950    2.0140   -6.3230 o         1 5IU     -0.928833
     21 OP3         0.4720    0.1250   -5.2420 o         1 5IU     -0.928833
     22 HN3         1.1470   -2.2600    3.4450 hn        1 5IU      0.332500
     23 H6         -0.4830   -0.3570   -0.7370 h4        1 5IU      0.237000
     24 H1'         2.9980    0.2190    0.2050 h2        1 5IU      0.083700
     25 H2'         2.2520   -2.0340   -1.5180 hc        1 5IU      0.055700
     26 H2''        3.6550   -0.9120   -1.7390 hc        1 5IU      0.055700
     27 H3'         1.0230   -0.9800   -3.2410 h1        1 5IU      0.105700
     28 H4'         1.9190    1.8680   -2.7840 h1        1 5IU      0.083700
     29 HO3'        2.3090    0.0320   -4.6830 ho        1 5IU      0.502000
     30 H5'        -0.7150    0.2610   -2.7670 h1        1 5IU     -0.004300
     31 H5''       -0.6200    1.8290   -1.8120 h1        1 5IU     -0.004300
@<TRIPOS>BOND
     1    1    2 1   
     2    1    6 1   
     3    1   10 1   
     4    2    3 1   
     5    2    7 2   
     6    3    4 1   
     7    3   22 1   
     8    4    5 1   
     9    4    8 2   
    10    5    6 2   
    11    5    9 1   
    12    6   23 1   
    13   10   11 1   
    14   10   15 1   
    15   10   24 1   
    16   11   12 1   
    17   11   25 1   
    18   11   26 1   
    19   12   13 1   
    20   12   14 1   
    21   12   27 1   
    22   13   15 1   
    23   13   16 1   
    24   13   28 1   
    25   14   29 1   
    26   16   17 1   
    27   16   30 1   
    28   16   31 1   
    29   17   18 1   
    30   18   19 1   
    31   18   20 1   
    32   18   21 1   
@<TRIPOS>SUBSTRUCTURE
     1 5IU         1 TEMP              0 ****  ****    0 ROOT
