@<TRIPOS>MOLECULE
5J9
   52    56     1     0     0
SMALL
bcc


@<TRIPOS>ATOM
      1 C4         -1.3140   -0.0290   -0.4170 cc        1 5J9      0.260100
      2 C14        -7.1020    2.0710   -3.3570 c1        1 5J9      0.047900
      3 C5         -0.1610    0.0100    0.4620 cc        1 5J9     -0.193000
      4 C6         -0.3870    0.2580    1.8690 cf        1 5J9      0.507600
      5 C8          0.6020   -0.3890   -1.5420 cd        1 5J9      0.409700
      6 C13        -6.7950    1.7270   -1.8710 c3        1 5J9     -0.112400
      7 N1         -1.6900    0.4550    2.3030 nf        1 5J9     -0.651000
      8 N3         -2.5790    0.1690    0.0830 nu        1 5J9     -0.289500
      9 C2T        -7.4750    1.0970    1.0110 ca        1 5J9      0.902300
     10 N3T        -8.1220    1.5250    2.1430 nb        1 5J9     -0.729000
     11 C4T        -7.3090    1.6470    3.2360 ca        1 5J9      0.496200
     12 N4T        -7.9770    2.1180    4.4740 nz        1 5J9     -0.825300
     13 C5T        -5.9390    1.3710    3.2420 ca        1 5J9     -0.360600
     14 C6T        -5.3910    0.9290    1.9980 ca        1 5J9      0.418200
     15 N1T        -6.1270    0.7890    0.8990 nb        1 5J9     -0.713000
     16 C15        -7.7670    0.6830   -1.3420 c3        1 5J9      0.178400
     17 N12        -6.8570    3.0910   -1.2020 n2        1 5J9     -0.213200
     18 N11        -7.0920    3.9620   -2.0300 n2        1 5J9     -0.040700
     19 N10        -7.2530    3.4060   -3.3160 nu        1 5J9     -0.384100
     20 C3'        -1.5720    0.3650   -4.0790 cx        1 5J9     -0.142700
     21 C2'        -2.8350    0.1100   -3.2930 cx        1 5J9      0.125100
     22 O2'        -3.4130    1.1080   -2.5210 oh        1 5J9     -0.574800
     23 C4'        -1.4410   -0.1900   -5.4440 cx        1 5J9      0.026100
     24 C5'        -0.1170   -0.6180   -5.9990 cx        1 5J9      0.306900
     25 O5'         0.0950   -0.6720   -7.3570 oh        1 5J9     -0.560800
     26 O4'        -1.0660   -1.5830   -5.5520 os        1 5J9     -0.435600
     27 C1'        -1.5360   -0.5780   -2.8770 cx        1 5J9     -0.067000
     28 N9         -0.8120   -0.2620   -1.7030 na        1 5J9     -0.241200
     29 N7          1.0070   -0.2180   -0.2800 nc        1 5J9     -0.514300
     30 C2         -2.7030    0.4100    1.4440 c1        1 5J9      0.141400
     31 N6          0.6620    0.2970    2.7270 nv        1 5J9     -0.808600
     32 H1         -5.7310    1.3590   -1.7840 h1        1 5J9      0.146700
     33 H2          1.2480   -0.6000   -2.4040 h5        1 5J9      0.089800
     34 H3         -7.2920    2.1330    5.2360 hn        1 5J9      0.468800
     35 H4         -8.3520    3.0630    4.3260 hn        1 5J9      0.468800
     36 H7         -7.2690   -0.3210   -1.3160 h1        1 5J9      0.092700
     37 H8         -8.6980    0.6370   -1.9780 h1        1 5J9      0.092700
     38 H9         -7.4560    4.0230   -4.0720 hn        1 5J9      0.491800
     39 H10        -1.0990    1.3660   -3.9890 hc        1 5J9      0.111700
     40 H11        -2.7750    1.8270   -2.4080 ho        1 5J9      0.423000
     41 H12        -3.6530   -0.5200   -3.7060 h1        1 5J9      0.138700
     42 H13        -2.2650    0.1000   -6.1300 h1        1 5J9      0.110700
     43 H14         0.8460   -0.5280   -5.4610 h2        1 5J9      0.140700
     44 H15        -0.7100   -0.9890   -7.7960 ho        1 5J9      0.433000
     45 H16        -1.4590   -1.6690   -3.1200 h1        1 5J9      0.132700
     46 H17        -3.3820    0.1650   -0.5100 hn        1 5J9      0.324700
     47 H18         0.5230    0.4590    3.6960 hn        1 5J9      0.461800
     48 H19         1.5820    0.1430    2.3860 hn        1 5J9      0.461800
     49 H5         -5.2850    1.4710    4.1160 ha        1 5J9      0.177000
     50 O2T        -8.3310    0.9840   -0.0580 os        1 5J9     -0.394100
     51 H4T3       -8.7530    1.4890    4.7150 hn        1 5J9      0.468800
     52 H6         -4.2220    0.6830    1.8970 h4        1 5J9      0.193100
@<TRIPOS>BOND
     1    1    3 1   
     2    1    8 1   
     3    1   28 2   
     4    2    6 1   
     5    2   19 3   
     6    3    4 2   
     7    3   29 1   
     8    4    7 1   
     9    4   31 1   
    10    5   28 1   
    11    5   29 2   
    12    5   33 1   
    13    6   16 1   
    14    6   17 1   
    15    6   32 1   
    16    7   30 2   
    17    8   30 2   
    18    8   46 1   
    19    9   10 ar  
    20    9   15 ar  
    21    9   50 1   
    22   10   11 ar  
    23   11   12 1   
    24   11   13 ar  
    25   12   34 1   
    26   12   35 1   
    27   12   51 1   
    28   13   14 ar  
    29   13   49 1   
    30   14   15 ar  
    31   14   52 1   
    32   16   36 1   
    33   16   37 1   
    34   16   50 1   
    35   17   18 2   
    36   18   19 1   
    37   19   38 1   
    38   20   21 1   
    39   20   23 1   
    40   20   27 1   
    41   20   39 1   
    42   21   22 1   
    43   21   27 1   
    44   21   41 1   
    45   22   40 1   
    46   23   24 1   
    47   23   26 1   
    48   23   42 1   
    49   24   25 1   
    50   24   26 1   
    51   24   43 1   
    52   25   44 1   
    53   27   28 1   
    54   27   45 1   
    55   31   47 1   
    56   31   48 1   
@<TRIPOS>SUBSTRUCTURE
     1 5J9         1 TEMP              0 ****  ****    0 ROOT
