@<TRIPOS>MOLECULE
5J9
   52    56     1     0     0
SMALL
bcc


@<TRIPOS>ATOM
      1 C4          0.7530   -0.8750   -1.4250 ca        1 5J9      0.457800
      2 C14        -4.8050    0.6160    0.2140 cc        1 5J9     -0.115600
      3 C5          1.8250   -1.1430   -2.3730 ca        1 5J9     -0.231200
      4 C6          3.1000   -1.5260   -1.8300 ca        1 5J9      0.776200
      5 C8          0.0760   -0.6180   -3.5630 cc        1 5J9      0.417700
      6 C13        -5.9820    1.1660    0.7590 cd        1 5J9      0.156600
      7 N1          3.2300   -1.6220   -0.4590 nb        1 5J9     -0.786000
      8 N3          0.8900   -0.9700   -0.0690 nb        1 5J9     -0.789000
      9 C2T        -9.2180    0.1330    0.1280 c         1 5J9      0.825900
     10 N3T       -10.4470    0.6550   -0.3690 nc        1 5J9     -0.634100
     11 C4T       -10.7980    1.8710    0.0050 cd        1 5J9      0.609500
     12 N4T       -12.0770    2.4040   -0.5400 n4        1 5J9     -0.802600
     13 C5T       -10.0520    2.7210    0.8800 cd        1 5J9     -0.450600
     14 C6T        -8.8420    2.2050    1.3400 cc        1 5J9      0.148600
     15 N1T        -8.4190    0.9560    1.0100 n         1 5J9     -0.324000
     16 C15        -7.1040    0.4780    1.4350 c3        1 5J9      0.074700
     17 N12        -5.8970    2.5700    0.5810 nd        1 5J9     -0.373000
     18 N11        -4.8090    2.8640    0.0040 nc        1 5J9     -0.144800
     19 N10        -4.0920    1.7300   -0.2380 na        1 5J9      0.067400
     20 C3'        -2.8020    1.7310   -0.9110 c3        1 5J9      0.036000
     21 C2'        -1.7960    0.6190   -0.4860 c3        1 5J9      0.115100
     22 O2'        -2.2420   -0.1170    0.6260 oh        1 5J9     -0.602800
     23 C4'        -2.9260    1.5470   -2.4480 c3        1 5J9      0.073100
     24 C5'        -2.0330    2.5410   -3.1970 c3        1 5J9      0.111400
     25 O5'        -2.2430    2.4400   -4.5870 oh        1 5J9     -0.576800
     26 O4'        -2.5350    0.2040   -2.7560 os        1 5J9     -0.410600
     27 C1'        -1.6990   -0.3360   -1.7260 c3        1 5J9      0.227800
     28 N9         -0.3540   -0.5160   -2.2120 na        1 5J9     -0.309000
     29 N7          1.3600   -0.9720   -3.6870 nd        1 5J9     -0.525100
     30 C2          2.1420   -1.3440    0.3000 ca        1 5J9      0.703900
     31 N6          4.1550   -1.7820   -2.6560 nh        1 5J9     -0.945500
     32 H1         -4.4260   -0.4070    0.1490 h4        1 5J9      0.225000
     33 H2         -0.6200   -0.4120   -4.3860 h5        1 5J9      0.080800
     34 H3        -12.5370    1.7170   -1.1560 hn        1 5J9      0.477800
     35 H4        -11.8720    3.2570   -1.0730 hn        1 5J9      0.477800
     36 H7         -7.0460   -0.6310    1.2230 h1        1 5J9      0.103700
     37 H8         -7.0320    0.6380    2.5520 h1        1 5J9      0.103700
     38 H9         -2.3190    2.7320   -0.6940 h1        1 5J9      0.114700
     39 H10        -0.8130    1.1200   -0.2650 h1        1 5J9      0.097700
     40 H11        -1.4580   -0.5080    1.0420 ho        1 5J9      0.455000
     41 H12        -3.9800    1.6260   -2.8340 h1        1 5J9      0.109700
     42 H13        -2.3210    3.5950   -2.9370 h1        1 5J9      0.064700
     43 H14        -0.9540    2.3610   -2.9430 h1        1 5J9      0.064700
     44 H15        -1.9940    1.5440   -4.8500 ho        1 5J9      0.410000
     45 H16        -2.1440   -1.3490   -1.4760 h2        1 5J9      0.103700
     46 H17         2.3060   -1.4410    1.3960 h5        1 5J9      0.056100
     47 H18         4.0260   -1.7230   -3.6360 hn        1 5J9      0.457300
     48 H19         5.0330   -2.0580   -2.2890 hn        1 5J9      0.457300
     49 H5        -10.3780    3.7240    1.1750 ha        1 5J9      0.184000
     50 O2T        -8.8390   -1.0060   -0.1670 o         1 5J9     -0.516500
     51 H4T3      -12.6970    2.6270    0.2450 hn        1 5J9      0.477800
     52 H6         -8.1850    2.8150    2.0010 h4        1 5J9      0.216000
@<TRIPOS>BOND
     1    1    3 ar  
     2    1    8 ar  
     3    1   28 1   
     4    2    6 2   
     5    2   19 1   
     6    2   32 1   
     7    3    4 ar  
     8    3   29 1   
     9    4    7 ar  
    10    4   31 1   
    11    5   28 1   
    12    5   29 2   
    13    5   33 1   
    14    6   16 1   
    15    6   17 1   
    16    7   30 ar  
    17    8   30 ar  
    18    9   10 1   
    19    9   15 1   
    20    9   50 2   
    21   10   11 2   
    22   11   12 1   
    23   11   13 1   
    24   12   34 1   
    25   12   35 1   
    26   12   51 1   
    27   13   14 2   
    28   13   49 1   
    29   14   15 1   
    30   14   52 1   
    31   15   16 1   
    32   16   36 1   
    33   16   37 1   
    34   17   18 2   
    35   18   19 1   
    36   19   20 1   
    37   20   21 1   
    38   20   23 1   
    39   20   38 1   
    40   21   22 1   
    41   21   27 1   
    42   21   39 1   
    43   22   40 1   
    44   23   24 1   
    45   23   26 1   
    46   23   41 1   
    47   24   25 1   
    48   24   42 1   
    49   24   43 1   
    50   25   44 1   
    51   26   27 1   
    52   27   28 1   
    53   27   45 1   
    54   30   46 1   
    55   31   47 1   
    56   31   48 1   
@<TRIPOS>SUBSTRUCTURE
     1 5J9         1 TEMP              0 ****  ****    0 ROOT
