@<TRIPOS>MOLECULE
5JA
   76    81     1     0     0
SMALL
bcc


@<TRIPOS>ATOM
      1 N3          0.1090    0.5500    0.1570 nb        1 5JA     -0.743000
      2 C5          1.5990    0.0330    2.4330 ca        1 5JA      0.455200
      3 C7          1.3630    0.0560    0.0420 ca        1 5JA      0.586800
      4 C8          2.1790   -0.2240    1.1770 ca        1 5JA     -0.348900
      5 C10         3.8280   -1.5810   -0.1700 c3        1 5JA     -0.101700
      6 C13         3.1450   -1.0300   -1.3600 cc        1 5JA      0.334600
      7 C17        -6.5220    1.3900    3.8400 c3        1 5JA      0.149800
      8 C20        -0.8650    0.4210   -2.8440 ca        1 5JA     -0.093500
      9 C21        -1.9370    1.1760   -3.3190 ca        1 5JA     -0.138000
     10 C22        -1.7060    2.3520   -4.0320 ca        1 5JA     -0.115000
     11 C24         0.6770    2.0260   -3.8030 ca        1 5JA     -0.093500
     12 C26         4.5550    0.4390    1.1210 c3        1 5JA     -0.091100
     13 C28        -2.0460    1.6130    4.0480 cc        1 5JA     -0.248300
     14 C1          0.4480    0.8430   -3.0870 ca        1 5JA     -0.038000
     15 C2         -0.3480    0.8000    1.4440 ca        1 5JA      0.854900
     16 N4         -1.6080    1.4570    1.5410 nh        1 5JA     -0.762600
     17 N6          0.3640    0.5300    2.6020 nb        1 5JA     -0.724000
     18 C9          3.5790   -0.7240    1.0720 c3        1 5JA      0.004600
     19 C11         1.5670    0.0650   -2.5780 cd        1 5JA      0.018700
     20 C12         1.9230   -0.2490   -1.2520 cc        1 5JA     -0.333800
     21 N14         3.4900   -1.1750   -2.6640 nd        1 5JA     -0.502800
     22 N15         2.5630   -0.5180   -3.3880 na        1 5JA      0.090400
     23 N16        -7.8370    1.0780    4.3810 n3        1 5JA     -0.736600
     24 N19        -4.1130    0.7240    3.9280 na        1 5JA      0.092400
     25 C23        -0.3990    2.7770   -4.2710 ca        1 5JA     -0.138000
     26 C25         2.5680   -0.5120   -4.8320 c3        1 5JA      0.034600
     27 C27        -3.1710    1.2800    4.8060 cd        1 5JA     -0.153300
     28 C29        -2.3990    1.2370    2.6850 cc        1 5JA      0.497200
     29 N30        -3.6750    0.7040    2.6630 nd        1 5JA     -0.548800
     30 C31        -8.4930   -0.0110    3.6690 c3        1 5JA      0.168300
     31 C32        -9.9010   -0.3250    4.2110 c3        1 5JA      0.172800
     32 N33       -10.7430    0.8570    4.3050 n3        1 5JA     -0.734600
     33 C34       -10.0910    1.9430    5.0190 c3        1 5JA      0.172800
     34 C35        -8.6850    2.2600    4.4730 c3        1 5JA      0.168300
     35 C36       -12.0720    0.5640    4.8170 c3        1 5JA      0.171800
     36 C37       -13.1550    1.4990    4.2590 c3        1 5JA      0.129400
     37 O38       -13.7030    0.8430    3.1180 os        1 5JA     -0.418600
     38 C39       -14.6110    1.6600    2.4010 c3        1 5JA      0.116700
     39 H1          2.1560   -0.1720    3.3660 h4        1 5JA      0.024100
     40 H2          4.9340   -1.6660   -0.3440 hc        1 5JA      0.064200
     41 H3          3.4340   -2.6190    0.0100 hc        1 5JA      0.064200
     42 H4         -6.5240    1.4180    2.7110 h1        1 5JA      0.050700
     43 H5         -6.2170    2.4120    4.2040 h1        1 5JA      0.050700
     44 H6         -1.0470   -0.4980   -2.2660 ha        1 5JA      0.143000
     45 H7         -2.9670    0.8430   -3.1240 ha        1 5JA      0.135000
     46 H8         -2.5540    2.9470   -4.4020 ha        1 5JA      0.133000
     47 H9          1.7070    2.3700   -3.9810 ha        1 5JA      0.143000
     48 H10         5.6050    0.0590    1.1470 hc        1 5JA      0.040033
     49 H11         4.4340    1.0900    0.2230 hc        1 5JA      0.040033
     50 H12         4.3750    1.0550    2.0350 hc        1 5JA      0.040033
     51 H13        -1.1050    2.0360    4.3790 ha        1 5JA      0.182000
     52 H14        -2.1290    1.4370    0.6810 hn        1 5JA      0.433800
     53 H15         3.7810   -1.3830    1.9680 hc        1 5JA      0.052700
     54 H17        -5.4810    0.2800    5.4330 h1        1 5JA      0.070700
     55 H18        -5.7020   -0.6480    3.8700 h1        1 5JA      0.070700
     56 H19        -0.2160    3.7090   -4.8260 ha        1 5JA      0.135000
     57 H20         2.3770   -1.5480   -5.2210 h1        1 5JA      0.062033
     58 H21         3.5650   -0.1590   -5.2090 h1        1 5JA      0.062033
     59 H22         1.7620    0.1790   -5.1920 h1        1 5JA      0.062033
     60 H23        -3.3640    1.3750    5.8740 h4        1 5JA      0.175000
     61 H24        -8.5720    0.2030    2.5630 h1        1 5JA      0.039200
     62 H25        -7.8640   -0.9350    3.7990 h1        1 5JA      0.039200
     63 H26        -9.7970   -0.8450    5.2080 h1        1 5JA      0.037200
     64 H27       -10.3890   -1.0410    3.4930 h1        1 5JA      0.037200
     65 H29       -10.7220    2.8670    4.8970 h1        1 5JA      0.037200
     66 H30       -10.0070    1.7260    6.1250 h1        1 5JA      0.037200
     67 H31        -8.1970    2.9810    5.1870 h1        1 5JA      0.039200
     68 H32        -8.7920    2.7750    3.4750 h1        1 5JA      0.039200
     69 H33       -12.3530   -0.4900    4.5290 h1        1 5JA      0.046200
     70 H34       -12.1090    0.6340    5.9440 h1        1 5JA      0.046200
     71 H35       -13.9660    1.6320    5.0240 h1        1 5JA      0.030700
     72 H36       -12.7540    2.5050    3.9710 h1        1 5JA      0.030700
     73 H37       -14.9610    1.0160    1.5570 h1        1 5JA      0.031700
     74 H38       -15.4720    1.9570    3.0510 h1        1 5JA      0.031700
     75 H39       -14.0980    2.5730    2.0100 h1        1 5JA      0.031700
     76 C18        -5.4650    0.3610    4.3100 c3        1 5JA      0.056300
@<TRIPOS>BOND
     1    1    3 ar  
     2    1   15 ar  
     3    2    4 ar  
     4    2   17 ar  
     5    2   39 1   
     6    3    4 ar  
     7    3   20 1   
     8    4   18 1   
     9    5    6 1   
    10    5   18 1   
    11    5   40 1   
    12    5   41 1   
    13    6   20 1   
    14    6   21 2   
    15    7   23 1   
    16    7   42 1   
    17    7   43 1   
    18    7   76 1   
    19    8    9 ar  
    20    8   14 ar  
    21    8   44 1   
    22    9   10 ar  
    23    9   45 1   
    24   10   25 ar  
    25   10   46 1   
    26   11   14 ar  
    27   11   25 ar  
    28   11   47 1   
    29   12   18 1   
    30   12   48 1   
    31   12   49 1   
    32   12   50 1   
    33   13   27 2   
    34   13   28 1   
    35   13   51 1   
    36   14   19 1   
    37   15   16 1   
    38   15   17 ar  
    39   16   28 1   
    40   16   52 1   
    41   18   53 1   
    42   19   20 2   
    43   19   22 1   
    44   21   22 1   
    45   22   26 1   
    46   23   30 1   
    47   23   34 1   
    48   24   27 1   
    49   24   29 1   
    50   24   76 1   
    51   25   56 1   
    52   26   57 1   
    53   26   58 1   
    54   26   59 1   
    55   27   60 1   
    56   28   29 2   
    57   30   31 1   
    58   30   61 1   
    59   30   62 1   
    60   31   32 1   
    61   31   63 1   
    62   31   64 1   
    63   32   33 1   
    64   32   35 1   
    65   33   34 1   
    66   33   65 1   
    67   33   66 1   
    68   34   67 1   
    69   34   68 1   
    70   35   36 1   
    71   35   69 1   
    72   35   70 1   
    73   36   37 1   
    74   36   71 1   
    75   36   72 1   
    76   37   38 1   
    77   38   73 1   
    78   38   74 1   
    79   38   75 1   
    80   54   76 1   
    81   55   76 1   
@<TRIPOS>SUBSTRUCTURE
     1 5JA         1 TEMP              0 ****  ****    0 ROOT
