@<TRIPOS>MOLECULE
5JA
   76    75     1     0     0
SMALL
bcc


@<TRIPOS>ATOM
      1 N3         -2.2930    0.5580    0.7900 n2        1 5JA     -0.238000
      2 C5         -2.9360   -2.0020   -0.0170 c2        1 5JA     -0.019000
      3 C7         -1.4620   -0.1140   -0.0280 c2        1 5JA      0.131000
      4 C8         -1.7380   -1.4290   -0.4730 c2        1 5JA     -0.308000
      5 C10         1.1200    0.2670    1.7070 c2        1 5JA     -0.107000
      6 C13         0.9830    0.6980    0.3360 c2        1 5JA     -0.054000
      7 C17        -6.2760   -0.4110    5.0500 c3        1 5JA     -0.063000
      8 C20        -1.3130    0.1610   -3.5040 c2        1 5JA     -0.180000
      9 C21        -2.1690    0.3170   -4.7080 c3        1 5JA     -0.055000
     10 C22        -2.2960    1.7600   -5.0690 c2        1 5JA     -0.403000
     11 C24        -1.0750    2.5730   -3.3140 c1        1 5JA     -0.072000
     12 C26         3.5490    0.8120    2.0660 c3        1 5JA     -0.186000
     13 C28        -3.1590    5.2970    3.8840 c2        1 5JA     -0.231000
     14 C1         -0.7580    1.2390   -2.9000 c2        1 5JA     -0.090000
     15 C2         -3.4670   -0.0840    1.1940 c2        1 5JA      0.147000
     16 N4         -4.4020    0.5230    2.0250 n2        1 5JA     -0.379000
     17 N6         -3.8040   -1.3850    0.7910 n2        1 5JA     -0.245000
     18 C9          2.2230    0.3120    2.4670 c2        1 5JA     -0.137000
     19 C11         0.0730    1.0980   -1.7110 c2        1 5JA     -0.018000
     20 C12        -0.2240    0.5250   -0.4620 c2        1 5JA     -0.103000
     21 N14         1.9370    1.3260   -0.4170 n2        1 5JA     -0.069000
     22 N15         1.4040    1.5630   -1.6220 na        1 5JA     -0.122000
     23 N16        -6.7550   -0.3230    3.6660 n3        1 5JA     -0.049000
     24 N19        -4.9970    3.5140    3.8640 n2        1 5JA     -0.030000
     25 C23        -1.3870    2.4860   -5.6980 c1        1 5JA      0.181000
     26 C25         2.1150    2.2290   -2.6860 c3        1 5JA     -0.061000
     27 C27        -4.0360    4.3330    3.8160 c1        1 5JA     -0.166000
     28 C29        -4.1780    1.7560    2.5290 c2        1 5JA      0.054000
     29 N30        -5.1250    2.3270    3.3190 n2        1 5JA     -0.342000
     30 C31        -6.4630   -1.4690    2.8080 c3        1 5JA     -0.050000
     31 C32        -7.4050   -2.6420    2.9340 c2        1 5JA     -0.098000
     32 N33        -8.4770   -2.6310    3.6370 n2        1 5JA     -0.199000
     33 C34        -7.8140    1.0040    1.8440 c3        1 5JA     -0.249000
     34 C35        -7.3440    0.7630    3.2280 c2        1 5JA      0.175000
     35 C36        -9.3360   -3.7690    3.7080 c3        1 5JA     -0.153000
     36 C37        -8.3930    3.3180    5.5100 c2        1 5JA     -0.381000
     37 O38        -9.2250    3.5940    4.5210 os        1 5JA      0.105000
     38 C39        -8.7820    3.9310    3.3250 c2        1 5JA     -0.381000
     39 H1         -3.2160   -3.0280   -0.3210 h4        1 5JA      0.140000
     40 H2          2.1570   -0.0560    3.5070 ha        1 5JA      0.115000
     41 H3          0.1780   -0.1290    2.1310 ha        1 5JA      0.139000
     42 H4         -5.9120   -1.4650    5.2180 h1        1 5JA      0.132000
     43 H5         -5.3940    0.2910    5.1400 h1        1 5JA      0.132000
     44 H6         -3.1870   -0.1130   -4.5000 hc        1 5JA      0.103000
     45 H7         -1.1540   -0.8630   -3.1380 ha        1 5JA      0.147000
     46 H8         -1.7320   -0.2640   -5.5660 hc        1 5JA      0.103000
     47 H9         -0.2720    3.2510   -3.6320 ha        1 5JA      0.084000
     48 H10         3.4990    1.9010    1.8100 hc        1 5JA      0.084333
     49 H11         3.9260    0.2650    1.1650 hc        1 5JA      0.084333
     50 H12         4.2900    0.6800    2.8910 hc        1 5JA      0.084333
     51 H13        -3.1430    6.1170    3.1550 ha        1 5JA      0.127500
     52 H14        -3.2290    2.3160    2.3150 h5        1 5JA      0.119000
     53 H15        -1.0480   -1.9710   -1.1250 ha        1 5JA      0.143000
     54 H17        -6.8550   -0.2430    7.1080 hc        1 5JA      0.100000
     55 H18        -7.6340    0.9970    6.0400 hc        1 5JA      0.100000
     56 H19        -3.2430    2.2460   -4.7440 ha        1 5JA      0.218000
     57 H20         1.7310    1.8510   -3.6690 h1        1 5JA      0.098000
     58 H21         3.2160    2.0250   -2.6100 h1        1 5JA      0.098000
     59 H22         1.9440    3.3380   -2.6190 h1        1 5JA      0.098000
     60 H23        -2.4000    5.3350    4.6760 ha        1 5JA      0.127500
     61 H24        -8.2170   -0.7260    6.0100 hc        1 5JA      0.100000
     62 H25        -5.4140   -1.8230    3.0430 h1        1 5JA      0.169000
     63 H26        -6.4560   -1.1390    1.7250 h1        1 5JA      0.169000
     64 H27        -7.0460   -3.5050    2.3270 h4        1 5JA      0.125000
     65 H29        -8.3770    0.1340    1.4240 hc        1 5JA      0.135333
     66 H30        -6.9190    1.2060    1.1910 hc        1 5JA      0.135333
     67 H31        -8.4710    1.9120    1.8360 hc        1 5JA      0.135333
     68 H32        -7.5020    1.6010    3.9550 h4        1 5JA      0.206000
     69 H33        -9.4140   -4.0780    4.7850 h1        1 5JA      0.090667
     70 H34        -9.0040   -4.6570    3.1030 h1        1 5JA      0.090667
     71 H35       -10.3550   -3.4550    3.3550 h1        1 5JA      0.090667
     72 H36        -8.9160    3.0660    6.4360 h4        1 5JA      0.165750
     73 H37        -7.3140    3.4490    5.4100 h4        1 5JA      0.165750
     74 H38        -9.5910    4.1280    2.6180 h4        1 5JA      0.165750
     75 H39        -7.7190    4.0690    3.1220 h4        1 5JA      0.165750
     76 C18        -7.3150   -0.0740    6.1040 c3        1 5JA     -0.245000
@<TRIPOS>BOND
     1    1    3 1   
     2    1   15 1   
     3    2    4 1   
     4    2   17 1   
     5    2   39 1   
     6    3    4 1   
     7    3   20 1   
     8    4   53 1   
     9    5    6 1   
    10    5   18 1   
    11    5   41 1   
    12    6   20 1   
    13    6   21 1   
    14    7   23 1   
    15    7   42 1   
    16    7   43 1   
    17    7   76 1   
    18    8    9 1   
    19    8   14 1   
    20    8   45 1   
    21    9   10 1   
    22    9   44 1   
    23    9   46 1   
    24   10   25 1   
    25   10   56 1   
    26   11   14 1   
    27   11   47 1   
    28   12   18 1   
    29   12   48 1   
    30   12   49 1   
    31   12   50 1   
    32   13   27 1   
    33   13   51 1   
    34   13   60 1   
    35   14   19 1   
    36   15   16 1   
    37   15   17 1   
    38   16   28 1   
    39   18   40 1   
    40   19   20 1   
    41   19   22 1   
    42   21   22 1   
    43   22   26 1   
    44   23   30 1   
    45   23   34 1   
    46   24   27 1   
    47   24   29 1   
    48   26   57 1   
    49   26   58 1   
    50   26   59 1   
    51   28   29 1   
    52   28   52 1   
    53   30   31 1   
    54   30   62 1   
    55   30   63 1   
    56   31   32 1   
    57   31   64 1   
    58   32   35 1   
    59   33   34 1   
    60   33   65 1   
    61   33   66 1   
    62   33   67 1   
    63   34   68 1   
    64   35   69 1   
    65   35   70 1   
    66   35   71 1   
    67   36   37 1   
    68   36   72 1   
    69   36   73 1   
    70   37   38 1   
    71   38   74 1   
    72   38   75 1   
    73   54   76 1   
    74   55   76 1   
    75   61   76 1   
@<TRIPOS>SUBSTRUCTURE
     1 5JA         1 TEMP              0 ****  ****    0 ROOT
