@<TRIPOS>MOLECULE
5JG
   52    55     1     0     0
SMALL
bcc


@<TRIPOS>ATOM
      1 C1         -0.1410    1.0060    0.2620 c3        1 5JG      0.107700
      2 C3          1.7400    0.2100    1.4780 ca        1 5JG      0.088100
      3 C7          3.7160   -0.6290    2.6270 ca        1 5JG     -0.224000
      4 C8          3.0880   -0.2490    1.4460 ca        1 5JG      0.143100
      5 C10         5.0190   -0.7410    0.1520 c3        1 5JG      0.106700
      6 C12         0.9130   -0.0270    5.1300 cc        1 5JG      0.452400
      7 C14         0.4870    0.2670    7.3280 ca        1 5JG      0.444800
      8 C15        -0.7360   -0.0150    6.5830 ca        1 5JG     -0.103900
      9 C19        -0.6160    0.4360    9.3000 ca        1 5JG      0.474200
     10 C22        -3.3440   -0.7210    5.3380 c3        1 5JG      0.221800
     11 C24        -5.2710   -2.3210    5.7530 c3        1 5JG     -0.077400
     12 N26        -7.6160   -1.6010    5.3540 n7        1 5JG     -0.822200
     13 C27        -7.1570   -0.4100    4.6660 c3        1 5JG      0.163300
     14 O2          1.2130    0.5650    0.2540 os        1 5JG     -0.300900
     15 C4          1.0590    0.2780    2.6890 ca        1 5JG     -0.125000
     16 C5          1.6850   -0.1050    3.8890 ca        1 5JG     -0.137900
     17 C6          3.0170   -0.5580    3.8500 ca        1 5JG      0.138900
     18 O9          3.6730   -0.2770    0.2020 os        1 5JG     -0.295900
     19 F11         3.6680   -0.9430    4.9750 f         1 5JG     -0.141900
     20 N13         1.5140    0.2710    6.3780 na        1 5JG     -0.360000
     21 N16        -0.4290   -0.1900    5.2280 nd        1 5JG     -0.551100
     22 C17        -1.9740   -0.0640    7.2930 ca        1 5JG      0.302600
     23 C18        -1.8640    0.1710    8.6910 ca        1 5JG     -0.243900
     24 N20         0.5630    0.4920    8.6750 nb        1 5JG     -0.697000
     25 Cl         -3.2440    0.1400    9.6860 cl        1 5JG     -0.096400
     26 N21        -3.1870   -0.2740    6.6960 nu        1 5JG     -0.752600
     27 C23        -4.7770   -1.1210    4.9640 c3        1 5JG     -0.081700
     28 C25        -6.6810   -2.7080    5.3060 c3        1 5JG      0.163300
     29 C28        -5.7580    0.0310    5.0990 c3        1 5JG     -0.077400
     30 H1         -0.2510    1.9330    0.8760 h1        1 5JG      0.048033
     31 H2         -0.8180    0.2010    0.6410 h1        1 5JG      0.048033
     32 H3         -0.3460    1.2200   -0.8180 h1        1 5JG      0.048033
     33 H4          4.7550   -0.9900    2.6330 ha        1 5JG      0.160000
     34 H5          5.0870   -1.7960    0.5120 h1        1 5JG      0.049367
     35 H6          5.6880   -0.0770    0.7500 h1        1 5JG      0.049367
     36 H7          5.2700   -0.6780   -0.9380 h1        1 5JG      0.049367
     37 H8         -0.5730    0.6160   10.3930 h4        1 5JG      0.034100
     38 H9         -2.6760   -1.6110    5.1470 h1        1 5JG      0.058700
     39 H10        -3.0230    0.1140    4.6490 h1        1 5JG      0.058700
     40 H11        -5.2810   -2.0940    6.8510 hc        1 5JG      0.051200
     41 H12        -4.5890   -3.1950    5.5900 hc        1 5JG      0.051200
     42 H13        -8.5040   -1.8870    4.9860 hn        1 5JG      0.363800
     43 H15        -7.8890    0.4140    4.9020 h1        1 5JG      0.028950
     44 H16        -7.1500   -0.5460    3.5430 h1        1 5JG      0.028950
     45 H17         0.0160    0.6310    2.7210 ha        1 5JG      0.167000
     46 H18         2.4820    0.3360    6.5610 hn        1 5JG      0.324700
     47 H20        -3.9820   -0.3560    7.2920 hn        1 5JG      0.442800
     48 H21        -4.7300   -1.4150    3.8750 hc        1 5JG      0.057700
     49 H22        -7.0760   -3.5080    5.9940 h1        1 5JG      0.028950
     50 H23        -6.6080   -3.1560    4.2700 h1        1 5JG      0.028950
     51 H24        -5.4350    0.8880    4.4550 hc        1 5JG      0.051200
     52 H25        -5.7960    0.3940    6.1580 hc        1 5JG      0.051200
@<TRIPOS>BOND
     1    1   14 1   
     2    1   30 1   
     3    1   31 1   
     4    1   32 1   
     5    2    4 ar  
     6    2   14 1   
     7    2   15 ar  
     8    3    4 ar  
     9    3   17 ar  
    10    3   33 1   
    11    4   18 1   
    12    5   18 1   
    13    5   34 1   
    14    5   35 1   
    15    5   36 1   
    16    6   16 1   
    17    6   20 1   
    18    6   21 2   
    19    7    8 ar  
    20    7   20 1   
    21    7   24 ar  
    22    8   21 1   
    23    8   22 ar  
    24    9   23 ar  
    25    9   24 ar  
    26    9   37 1   
    27   10   26 1   
    28   10   27 1   
    29   10   38 1   
    30   10   39 1   
    31   11   27 1   
    32   11   28 1   
    33   11   40 1   
    34   11   41 1   
    35   12   13 1   
    36   12   28 1   
    37   12   42 1   
    38   13   29 1   
    39   13   43 1   
    40   13   44 1   
    41   15   16 ar  
    42   15   45 1   
    43   16   17 ar  
    44   17   19 1   
    45   20   46 1   
    46   22   23 ar  
    47   22   26 1   
    48   23   25 1   
    49   26   47 1   
    50   27   29 1   
    51   27   48 1   
    52   28   49 1   
    53   28   50 1   
    54   29   51 1   
    55   29   52 1   
@<TRIPOS>SUBSTRUCTURE
     1 5JG         1 TEMP              0 ****  ****    0 ROOT
