@<TRIPOS>MOLECULE
5JG
   52    55     1     0     0
SMALL
bcc


@<TRIPOS>ATOM
      1 C1         -0.2630    0.3960    0.2390 c3        1 5JG      0.107700
      2 C3          1.5990   -0.2930    1.5470 ca        1 5JG      0.089100
      3 C7          3.5420   -1.0650    2.7950 ca        1 5JG     -0.225000
      4 C8          2.9100   -0.8470    1.5760 ca        1 5JG      0.143100
      5 C10         4.7690   -1.6930    0.3590 c3        1 5JG      0.106700
      6 C12         0.8510    0.1530    5.1970 cc        1 5JG      0.454400
      7 C14         0.5020    0.8400    7.3190 ca        1 5JG      0.443800
      8 C15        -0.7560    0.5320    6.6470 ca        1 5JG     -0.099900
      9 C19        -0.5360    1.4150    9.2500 ca        1 5JG      0.472200
     10 C22        -3.4390   -0.1890    5.5780 c3        1 5JG      0.215800
     11 C24        -5.0720   -0.9840    3.8840 c3        1 5JG     -0.075900
     12 N26        -7.0250   -2.3730    4.5380 n3        1 5JG     -0.820200
     13 C27        -6.8580   -1.9920    5.9260 c3        1 5JG      0.163800
     14 O2          1.0670   -0.1120    0.2880 os        1 5JG     -0.300900
     15 C4          0.9560    0.0280    2.7370 ca        1 5JG     -0.125000
     16 C5          1.5840   -0.1900    3.9770 ca        1 5JG     -0.138900
     17 C6          2.8800   -0.7380    3.9980 ca        1 5JG      0.138900
     18 O9          3.4610   -1.1270    0.3460 os        1 5JG     -0.295900
     19 F11         3.5320   -0.9730    5.1630 f         1 5JG     -0.141900
     20 N13         1.5020    0.6070    6.3700 na        1 5JG     -0.360000
     21 N16        -0.4970    0.1130    5.3360 nd        1 5JG     -0.550100
     22 C17        -1.9760    0.6980    7.3690 ca        1 5JG      0.297600
     23 C18        -1.8150    1.1480    8.7070 ca        1 5JG     -0.240900
     24 N20         0.6270    1.2760    8.6080 nb        1 5JG     -0.695000
     25 CL         -3.1680    1.3850    9.7120 cl        1 5JG     -0.098400
     26 N21        -3.2180    0.4990    6.8240 nh        1 5JG     -0.748600
     27 C23        -4.9190   -0.5160    5.3240 c3        1 5JG     -0.081700
     28 C25        -6.5140   -1.3960    3.5970 c3        1 5JG      0.163800
     29 C28        -5.4250   -1.5900    6.2720 c3        1 5JG     -0.075900
     30 H1         -0.9700   -0.2940    0.7610 h1        1 5JG      0.048367
     31 H2         -0.3100    1.4190    0.6840 h1        1 5JG      0.048367
     32 H3         -0.4820    0.4310   -0.8590 h1        1 5JG      0.048367
     33 H4          4.5530   -1.4940    2.8500 ha        1 5JG      0.160000
     34 H5          5.4990   -0.9880    0.8260 h1        1 5JG      0.049700
     35 H6          4.9950   -1.8340   -0.7290 h1        1 5JG      0.049700
     36 H7          4.7700   -2.6730    0.8930 h1        1 5JG      0.049700
     37 H8         -0.4530    1.7670   10.2970 h4        1 5JG      0.035100
     38 H9         -2.8490   -1.1510    5.5490 h1        1 5JG      0.061200
     39 H10        -3.0710    0.4720    4.7400 h1        1 5JG      0.061200
     40 H11        -4.7900   -0.1590    3.1800 hc        1 5JG      0.051200
     41 H12        -4.3830   -1.8490    3.6950 hc        1 5JG      0.051200
     42 H13        -7.9930   -2.5570    4.3480 hn        1 5JG      0.363800
     43 H15        -7.1480   -2.8820    6.5530 h1        1 5JG      0.028700
     44 H16        -7.5400   -1.1370    6.2150 h1        1 5JG      0.028700
     45 H17        -0.0590    0.4550    2.7220 ha        1 5JG      0.168000
     46 H18         2.4770    0.6270    6.5270 hn        1 5JG      0.325700
     47 H20        -3.9940    0.5470    7.4480 hn        1 5JG      0.435800
     48 H21        -5.5400    0.4130    5.4630 hc        1 5JG      0.054700
     49 H22        -6.5620   -1.8640    2.5730 h1        1 5JG      0.028700
     50 H23        -7.1480   -0.4590    3.5730 h1        1 5JG      0.028700
     51 H24        -5.4110   -1.2210    7.3290 hc        1 5JG      0.051200
     52 H25        -4.7550   -2.4880    6.2130 hc        1 5JG      0.051200
@<TRIPOS>BOND
     1    1   14 1   
     2    1   30 1   
     3    1   31 1   
     4    1   32 1   
     5    2    4 ar  
     6    2   14 1   
     7    2   15 ar  
     8    3    4 ar  
     9    3   17 ar  
    10    3   33 1   
    11    4   18 1   
    12    5   18 1   
    13    5   34 1   
    14    5   35 1   
    15    5   36 1   
    16    6   16 1   
    17    6   20 1   
    18    6   21 2   
    19    7    8 ar  
    20    7   20 1   
    21    7   24 ar  
    22    8   21 1   
    23    8   22 ar  
    24    9   23 ar  
    25    9   24 ar  
    26    9   37 1   
    27   10   26 1   
    28   10   27 1   
    29   10   38 1   
    30   10   39 1   
    31   11   27 1   
    32   11   28 1   
    33   11   40 1   
    34   11   41 1   
    35   12   13 1   
    36   12   28 1   
    37   12   42 1   
    38   13   29 1   
    39   13   43 1   
    40   13   44 1   
    41   15   16 ar  
    42   15   45 1   
    43   16   17 ar  
    44   17   19 1   
    45   20   46 1   
    46   22   23 ar  
    47   22   26 1   
    48   23   25 1   
    49   26   47 1   
    50   27   29 1   
    51   27   48 1   
    52   28   49 1   
    53   28   50 1   
    54   29   51 1   
    55   29   52 1   
@<TRIPOS>SUBSTRUCTURE
     1 5JG         1 TEMP              0 ****  ****    0 ROOT
