@<TRIPOS>MOLECULE
5JZ
   88    89     1     0     0
SMALL
bcc


@<TRIPOS>ATOM
      1 C4          1.9570    0.9410   -0.1910 c3        1 5JZ     -0.185000
      2 C5          1.6600   10.9600    9.4280 c1        1 5JZ     -0.169000
      3 C6          2.5620   11.4100    8.3920 c3        1 5JZ      0.014000
      4 C7          1.6130    9.9380   10.0860 c1        1 5JZ     -0.190000
      5 C8          3.5360   10.2400    8.2960 c2        1 5JZ     -0.165000
      6 C10         5.8170    6.5660    7.3620 ca        1 5JZ     -0.109000
      7 C13         6.1530   -1.9270    1.1890 ca        1 5JZ     -0.008000
      8 C15         9.6550    2.9200    6.4120 c1        1 5JZ      0.181000
      9 C17         5.4670    8.2310   11.0200 c1        1 5JZ     -0.214000
     10 C20         5.2930   -0.2930   -0.4950 c3        1 5JZ     -0.116000
     11 C21         6.4050   -1.0550    0.1270 ca        1 5JZ     -0.184000
     12 C22         7.0940    6.7190    7.9020 ca        1 5JZ     -0.076000
     13 C24         6.4920    4.4820    6.3020 ca        1 5JZ      0.021000
     14 C26         8.5040   -2.5040    1.2430 ca        1 5JZ      0.133000
     15 C28         7.8030    4.6380    6.8550 ca        1 5JZ      0.103000
     16 C9          7.7090   -0.9370   -0.3890 ca        1 5JZ     -0.052000
     17 C14         8.0770    5.7670    7.6560 ca        1 5JZ     -0.129000
     18 C12         8.7660   -1.6550    0.1540 ca        1 5JZ     -0.155000
     19 C11         5.5180    5.4620    6.5610 ca        1 5JZ     -0.049000
     20 C16         5.7720    8.8600   12.1100 c2        1 5JZ     -0.114000
     21 C18         5.1420    7.5430    9.9500 c2        1 5JZ     -0.006000
     22 C19         6.9950   -3.6880    2.7710 c1        1 5JZ      0.106000
     23 C1         -0.3330    4.5370    0.4880 c2        1 5JZ      0.238000
     24 C23         2.4310    8.7540   10.1190 c3        1 5JZ      0.018000
     25 C25         3.4960    9.0880    9.0240 c2        1 5JZ     -0.006000
     26 C27         7.2000   -2.6550    1.7540 ca        1 5JZ     -0.279000
     27 C30         5.1680    2.3320    2.2270 c2        1 5JZ      0.153000
     28 C31         5.7810    3.4220    4.2020 c2        1 5JZ      0.218000
     29 C29         5.1290    4.6370    2.3450 c2        1 5JZ      0.060000
     30 C36         5.1920    1.1310    0.1010 c3        1 5JZ      0.004000
     31 C33         4.7520    7.5990    7.5380 c2        1 5JZ      0.349000
     32 C34         4.1720    1.9010   -0.7460 c2        1 5JZ      0.264000
     33 C35         9.4000   -3.7200    3.1010 c3        1 5JZ      0.132000
     34 N37         8.7890    3.7040    6.6160 n2        1 5JZ     -0.321000
     35 N40         5.6210    2.2130    3.5190 n2        1 5JZ     -0.278000
     36 N38         4.9020    3.5330    1.5810 n2        1 5JZ     -0.346000
     37 N39         5.5530    4.6770    3.6220 n2        1 5JZ     -0.227000
     38 N41         2.7950    2.1600   -0.2070 n4        1 5JZ     -0.078000
     39 N42         4.8790    1.1290    1.5150 nh        1 5JZ     -0.286000
     40 N43         6.1650    3.3410    5.5300 nh        1 5JZ     -0.230000
     41 N44         4.4500    8.0470    8.8270 n         1 5JZ     -0.237000
     42 O46         4.1290    8.0260    6.5480 o         1 5JZ     -0.332000
     43 O47         4.3880    2.3290   -1.8700 o         1 5JZ     -0.192000
     44 O48         8.0410   -4.1960    3.3350 os        1 5JZ     -0.133000
     45 O49         9.5380   -3.2550    1.7470 os        1 5JZ     -0.210000
     46 O45         0.5700    3.7070    0.3030 o         1 5JZ     -0.412000
     47 H4          2.8450    2.5470    0.7460 hn        1 5JZ      0.276000
     48 H4A         2.3280    2.8760   -0.7910 hn        1 5JZ      0.276000
     49 H4B         1.9050    0.5060   -1.2240 hx        1 5JZ      0.144000
     50 H7          1.8720    7.8240    9.8360 hc        1 5JZ      0.116500
     51 H8          4.3060   10.3930    7.5220 ha        1 5JZ      0.150000
     52 H13         5.1330   -2.0700    1.5800 ha        1 5JZ      0.149000
     53 H15         6.4370    2.4500    5.8900 hn        1 5JZ      0.270000
     54 H17         2.9300    8.5880   11.1090 hc        1 5JZ      0.116500
     55 H17A        6.7360    9.3760   12.2420 ha        1 5JZ      0.140000
     56 H20         4.3210   -0.8360   -0.3520 hc        1 5JZ      0.114000
     57 H20A        5.4700   -0.1830   -1.6000 hc        1 5JZ      0.114000
     58 H22         7.3340    7.5990    8.5230 ha        1 5JZ      0.165000
     59 H32         0.3800    5.9220   -1.0190 hc        1 5JZ      0.121667
     60 H32A       -0.4060    6.6710    0.4410 hc        1 5JZ      0.121667
     61 H32B       -1.4250    5.8390   -0.8060 hc        1 5JZ      0.121667
     62 H9          7.8950   -0.2680   -1.2440 ha        1 5JZ      0.143000
     63 H14         9.0820    5.9040    8.0880 ha        1 5JZ      0.164000
     64 H12         9.7850   -1.5770   -0.2530 ha        1 5JZ      0.170000
     65 H11         4.5090    5.3810    6.1200 ha        1 5JZ      0.170000
     66 H16         5.0870    8.9120   12.9720 ha        1 5JZ      0.140000
     67 H16A        2.7150    5.6090   11.0920 ha        1 5JZ      0.001250
     68 H18         5.4020    6.4670    9.8730 h4        1 5JZ      0.157000
     69 H18A        3.1270    6.1100   10.8950 ha        1 5JZ      0.001250
     70 H19         6.3840   -2.5410    4.9060 ha        1 5JZ      0.001250
     71 H19A        6.9780   -2.2240    4.8190 ha        1 5JZ      0.001250
     72 H1          4.9470    5.6210    1.8570 h5        1 5JZ      0.211000
     73 H1A        -1.1200    4.3520    1.2550 h4        1 5JZ      0.112000
     74 H36         5.1890    0.2920    1.9810 hn        1 5JZ      0.252000
     75 HN41        0.9230    1.2290    0.1500 hx        1 5JZ      0.144000
     76 HN42        6.1760    1.6650   -0.1080 h1        1 5JZ      0.157000
     77 C2          9.7080   -2.6070    4.0880 c3        1 5JZ     -0.226000
     78 C3         10.3260   -4.9190    3.2310 c3        1 5JZ     -0.226000
     79 H5          2.0500   11.5690    7.4070 hc        1 5JZ      0.118500
     80 C32        -0.4420    5.8070   -0.2710 c3        1 5JZ     -0.300000
     81 H2          9.5370   -2.9770    5.1270 hc        1 5JZ      0.106500
     82 H2A        10.7730   -2.2940    3.9740 hc        1 5JZ      0.106500
     83 H2B         9.0470   -1.7270    3.9020 hc        1 5JZ      0.106500
     84 H3         10.2300   -5.3360    4.2610 hc        1 5JZ      0.106500
     85 H3A        10.0490   -5.7040    2.4880 hc        1 5JZ      0.106500
     86 H3B        11.3780   -4.5950    3.0480 hc        1 5JZ      0.106500
     87 H412        2.3930    0.1890    0.5190 hx        1 5JZ      0.144000
     88 H6          3.1130   12.3480    8.6650 hc        1 5JZ      0.118500
@<TRIPOS>BOND
     1    1   38 1   
     2    1   49 1   
     3    1   75 1   
     4    1   87 1   
     5    2    3 1   
     6    2    4 1   
     7    3    5 1   
     8    3   79 1   
     9    3   88 1   
    10    4   24 1   
    11    5   25 1   
    12    5   51 1   
    13    6   12 1   
    14    6   19 1   
    15    6   31 1   
    16    7   11 1   
    17    7   26 1   
    18    7   52 1   
    19    8   34 1   
    20    9   20 1   
    21    9   21 1   
    22   10   11 1   
    23   10   30 1   
    24   10   56 1   
    25   10   57 1   
    26   11   16 1   
    27   12   17 1   
    28   12   58 1   
    29   13   15 1   
    30   13   19 1   
    31   13   40 1   
    32   14   18 1   
    33   14   26 1   
    34   14   45 1   
    35   15   17 1   
    36   15   34 1   
    37   16   18 1   
    38   16   62 1   
    39   17   63 1   
    40   18   64 1   
    41   19   65 1   
    42   20   55 1   
    43   20   66 1   
    44   21   41 1   
    45   21   68 1   
    46   22   26 1   
    47   22   44 1   
    48   23   46 1   
    49   23   73 1   
    50   23   80 1   
    51   24   25 1   
    52   24   50 1   
    53   24   54 1   
    54   25   41 1   
    55   27   35 1   
    56   27   36 1   
    57   27   39 1   
    58   28   35 1   
    59   28   37 1   
    60   28   40 1   
    61   29   36 1   
    62   29   37 1   
    63   29   72 1   
    64   30   32 1   
    65   30   39 1   
    66   30   76 1   
    67   31   41 1   
    68   31   42 1   
    69   32   38 1   
    70   32   43 1   
    71   33   44 1   
    72   33   45 1   
    73   33   77 1   
    74   33   78 1   
    75   38   47 1   
    76   38   48 1   
    77   39   74 1   
    78   40   53 1   
    79   59   80 1   
    80   60   80 1   
    81   61   80 1   
    82   67   69 1   
    83   70   71 1   
    84   77   81 1   
    85   77   82 1   
    86   77   83 1   
    87   78   84 1   
    88   78   85 1   
    89   78   86 1   
@<TRIPOS>SUBSTRUCTURE
     1 5JZ         1 TEMP              0 ****  ****    0 ROOT
