@<TRIPOS>MOLECULE
5JZ
   88    88     1     0     0
SMALL
bcc


@<TRIPOS>ATOM
      1 C4          2.0020    0.9350   -0.2670 c3        1 5JZ     -0.185000
      2 C5          2.4980   11.6650    9.2300 c1        1 5JZ     -0.176000
      3 C6          3.4640   11.9010    8.1830 c3        1 5JZ      0.016000
      4 C7          2.2490   10.6890    9.9140 c1        1 5JZ     -0.176000
      5 C8          4.1780   10.5530    8.1050 c2        1 5JZ     -0.162000
      6 C10         5.9560    6.7230    7.1930 ca        1 5JZ     -0.134000
      7 C13         6.1880   -1.8670    1.1590 ca        1 5JZ     -0.008000
      8 C15         9.6990    2.9650    6.3110 c1        1 5JZ      0.193000
      9 C17         3.3390    6.5410   12.9600 c1        1 5JZ      0.137000
     10 C20         5.3330   -0.2590   -0.5520 c3        1 5JZ     -0.116000
     11 C21         6.4430   -1.0100    0.0860 ca        1 5JZ     -0.185000
     12 C22         7.2310    6.8430    7.7500 ca        1 5JZ     -0.073000
     13 C24         6.5780    4.6090    6.1610 ca        1 5JZ      0.026000
     14 C26         8.5380   -2.4440    1.2300 ca        1 5JZ      0.134000
     15 C28         7.8900    4.7340    6.7240 ca        1 5JZ      0.114000
     16 C9          7.7490   -0.8990   -0.4260 ca        1 5JZ     -0.052000
     17 C14         8.1880    5.8610    7.5190 ca        1 5JZ     -0.126000
     18 C12         8.8040   -1.6090    0.1300 ca        1 5JZ     -0.155000
     19 C11         5.6310    5.6200    6.4010 ca        1 5JZ     -0.045000
     20 C16         4.2360    7.4850   12.9920 c2        1 5JZ     -0.564000
     21 C18         5.0070    7.5860    9.8120 c1        1 5JZ     -0.114000
     22 C19         7.0220   -3.6060    2.7680 c1        1 5JZ      0.107000
     23 C1         -0.4150    4.4740    0.0960 c2        1 5JZ      0.238000
     24 C23         2.8100    9.3640    9.9750 c3        1 5JZ      0.025000
     25 C25         3.9030    9.4550    8.8630 c2        1 5JZ     -0.012000
     26 C27         7.2330   -2.5870    1.7380 ca        1 5JZ     -0.279000
     27 C30         5.2020    2.4070    2.1290 c2        1 5JZ      0.155000
     28 C31         5.8270    3.5280    4.0830 c2        1 5JZ      0.218000
     29 C29         5.1550    4.7130    2.2140 c2        1 5JZ      0.061000
     30 C36         5.2260    1.1740    0.0220 c3        1 5JZ      0.003000
     31 C33         4.9240    7.7840    7.3690 c2        1 5JZ      0.292000
     32 C34         4.2010    1.9250   -0.8360 c2        1 5JZ      0.263000
     33 C35         9.4270   -3.6390    3.1060 c3        1 5JZ      0.133000
     34 N37         8.8510    3.7730    6.5010 n2        1 5JZ     -0.326000
     35 N40         5.6650    2.3080    3.4190 n2        1 5JZ     -0.276000
     36 N38         4.9260    3.5980    1.4680 n2        1 5JZ     -0.341000
     37 N39         5.5890    4.7730    3.4870 n2        1 5JZ     -0.232000
     38 N41         2.8170    2.1680   -0.3050 ny        1 5JZ     -0.079000
     39 N42         4.9150    1.1930    1.4360 nu        1 5JZ     -0.286000
     40 N43         6.2240    3.4640    5.4090 nu        1 5JZ     -0.231000
     41 N44         4.6610    8.2370    8.7180 n         1 5JZ     -0.149000
     42 O46         4.3040    8.2400    6.4030 o         1 5JZ     -0.263000
     43 O47         4.4160    2.3480   -1.9620 o         1 5JZ     -0.190000
     44 O48         8.0660   -4.1090    3.3410 os        1 5JZ     -0.132000
     45 O49         9.5700   -3.1880    1.7470 os        1 5JZ     -0.210000
     46 O45         0.5100    3.6500    0.0560 o         1 5JZ     -0.413000
     47 H4          2.3390    2.8640   -0.9050 hn        1 5JZ      0.275500
     48 H4A         2.8590    2.5740    0.6400 hn        1 5JZ      0.275500
     49 H4B         1.9730    0.4720   -1.2890 hx        1 5JZ      0.144333
     50 H7          2.0720    8.5600    9.7210 hc        1 5JZ      0.131500
     51 H8          4.9600   10.5330    7.3300 ha        1 5JZ      0.144000
     52 H13         5.1660   -2.0060    1.5480 ha        1 5JZ      0.149000
     53 H15         6.4900    2.5740    5.7780 hn        1 5JZ      0.271000
     54 H17         3.2870    9.1180   10.9620 hc        1 5JZ      0.131500
     55 H17A        4.5830    8.0000   13.8990 ha        1 5JZ      0.204500
     56 H20         4.3610   -0.8020   -0.4060 hc        1 5JZ      0.114500
     57 H20A        5.5140   -0.1660   -1.6580 hc        1 5JZ      0.114500
     58 H22         7.4930    7.7190    8.3670 ha        1 5JZ      0.162000
     59 H32        -2.5150    4.3060    0.4490 hc        1 5JZ      0.122667
     60 H32A       -1.4820    3.4680    1.6900 hc        1 5JZ      0.122667
     61 H32B       -1.6060    5.2830    1.6750 hc        1 5JZ      0.122667
     62 H9          7.9390   -0.2420   -1.2910 ha        1 5JZ      0.143000
     63 H14         9.1920    5.9720    7.9630 ha        1 5JZ      0.168000
     64 H12         9.8250   -1.5370   -0.2740 ha        1 5JZ      0.171000
     65 H11         4.6230    5.5600    5.9550 ha        1 5JZ      0.170000
     66 H16         4.7340    7.8470   12.0650 ha        1 5JZ      0.204500
     67 H16A        3.2840    5.9660   10.6360 ha        1 5JZ      0.005500
     68 H18         5.5700    6.6390    9.6760 ha        1 5JZ      0.060000
     69 H18A        2.9550    6.5620   10.6110 ha        1 5JZ      0.005500
     70 H19         6.9980   -2.1150    4.7950 ha        1 5JZ      0.005500
     71 H19A        6.4100   -2.4400    4.8910 ha        1 5JZ      0.005500
     72 H1          4.9640    5.6900    1.7140 h5        1 5JZ      0.211000
     73 H1A        -0.4210    5.3520   -0.5910 h4        1 5JZ      0.109000
     74 H36         5.2260    0.3640    1.9150 hn        1 5JZ      0.253000
     75 HN41        2.4410    0.2100    0.4690 hx        1 5JZ      0.144333
     76 HN42        6.2080    1.7090   -0.1970 h1        1 5JZ      0.157000
     77 C2          9.7350   -2.5150    4.0810 c3        1 5JZ     -0.226000
     78 C3         10.3510   -4.8380    3.2510 c3        1 5JZ     -0.226000
     79 H5          2.9910   12.1420    7.1950 hc        1 5JZ      0.120500
     80 C32        -1.5610    4.3670    1.0320 c3        1 5JZ     -0.298000
     81 H2          9.0750   -1.6370    3.8850 hc        1 5JZ      0.106500
     82 H2A         9.5600   -2.8740    5.1240 hc        1 5JZ      0.106500
     83 H2B        10.8000   -2.2050    3.9670 hc        1 5JZ      0.106500
     84 H3         11.4030   -4.5170    3.0680 hc        1 5JZ      0.106500
     85 H3A        10.2500   -5.2450    4.2850 hc        1 5JZ      0.106500
     86 H3B        10.0740   -5.6290    2.5150 hc        1 5JZ      0.106500
     87 H412        0.9580    1.2130    0.0510 hx        1 5JZ      0.144333
     88 H6          4.1990   12.7090    8.4360 hc        1 5JZ      0.120500
@<TRIPOS>BOND
     1    1   38 1   
     2    1   49 1   
     3    1   75 1   
     4    1   87 1   
     5    2    3 1   
     6    2    4 1   
     7    3    5 1   
     8    3   79 1   
     9    3   88 1   
    10    4   24 1   
    11    5   25 1   
    12    5   51 1   
    13    6   12 1   
    14    6   19 1   
    15    6   31 1   
    16    7   11 1   
    17    7   26 1   
    18    7   52 1   
    19    8   34 1   
    20    9   20 1   
    21   10   11 1   
    22   10   30 1   
    23   10   56 1   
    24   10   57 1   
    25   11   16 1   
    26   12   17 1   
    27   12   58 1   
    28   13   15 1   
    29   13   19 1   
    30   13   40 1   
    31   14   18 1   
    32   14   26 1   
    33   14   45 1   
    34   15   17 1   
    35   15   34 1   
    36   16   18 1   
    37   16   62 1   
    38   17   63 1   
    39   18   64 1   
    40   19   65 1   
    41   20   55 1   
    42   20   66 1   
    43   21   41 1   
    44   21   68 1   
    45   22   26 1   
    46   22   44 1   
    47   23   46 1   
    48   23   73 1   
    49   23   80 1   
    50   24   25 1   
    51   24   50 1   
    52   24   54 1   
    53   25   41 1   
    54   27   35 1   
    55   27   36 1   
    56   27   39 1   
    57   28   35 1   
    58   28   37 1   
    59   28   40 1   
    60   29   36 1   
    61   29   37 1   
    62   29   72 1   
    63   30   32 1   
    64   30   39 1   
    65   30   76 1   
    66   31   41 1   
    67   31   42 1   
    68   32   38 1   
    69   32   43 1   
    70   33   44 1   
    71   33   45 1   
    72   33   77 1   
    73   33   78 1   
    74   38   47 1   
    75   38   48 1   
    76   39   74 1   
    77   40   53 1   
    78   59   80 1   
    79   60   80 1   
    80   61   80 1   
    81   67   69 1   
    82   70   71 1   
    83   77   81 1   
    84   77   82 1   
    85   77   83 1   
    86   78   84 1   
    87   78   85 1   
    88   78   86 1   
@<TRIPOS>SUBSTRUCTURE
     1 5JZ         1 TEMP              0 ****  ****    0 ROOT
