@<TRIPOS>MOLECULE
5JZ
   87    93     1     0     0
SMALL
bcc


@<TRIPOS>ATOM
      1 C4          3.5470    6.2200   -2.0320 c3        1 5JZ      0.075300
      2 C5         -9.2340   -0.3280    2.9760 ca        1 5JZ     -0.145000
      3 C6         -8.2740   -1.3020    3.2430 ca        1 5JZ     -0.117000
      4 C7         -9.1510    0.4110    1.8010 ca        1 5JZ     -0.117000
      5 C8         -7.2380   -1.5380    2.3470 ca        1 5JZ     -0.129000
      6 C10        -3.7910   -1.7100   -0.4170 ca        1 5JZ     -0.130600
      7 C13         5.8610   -0.4160   -0.6000 ca        1 5JZ     -0.085000
      8 C15         0.1180   -1.5890   -2.7760 cc        1 5JZ      0.469700
      9 C17        -8.1180    1.0050   -0.3680 c3        1 5JZ     -0.032100
     10 C20         5.8620    2.0850   -0.5990 c3        1 5JZ     -0.045100
     11 C21         5.8220    0.7850    0.1170 ca        1 5JZ     -0.132300
     12 C22        -4.0000   -2.7860   -1.2950 ca        1 5JZ     -0.117000
     13 C24        -1.6550   -1.2890   -1.3850 ca        1 5JZ     -0.054200
     14 C26         5.7570   -1.6500    1.4750 ca        1 5JZ      0.148100
     15 C28        -1.8600   -2.4050   -2.2940 ca        1 5JZ      0.081400
     16 C9          5.7670    0.7540    1.5180 ca        1 5JZ     -0.092000
     17 C14        -3.0410   -3.1480   -2.2340 ca        1 5JZ     -0.081000
     18 C12         5.7300   -0.4530    2.2070 ca        1 5JZ     -0.149000
     19 C11        -2.6190   -0.9480   -0.4370 ca        1 5JZ     -0.061000
     20 C16        -6.8350    0.8830   -1.1580 c3        1 5JZ     -0.100400
     21 C18        -6.3300   -0.5570   -1.1270 c3        1 5JZ      0.086000
     22 C19         5.8990   -2.9430   -0.6400 c3        1 5JZ      0.178700
     23 C1          0.3520    3.9770    1.8300 c3        1 5JZ      0.140400
     24 C23        -8.1170    0.1970    0.8830 ca        1 5JZ     -0.110300
     25 C25        -7.1350   -0.7890    1.1530 ca        1 5JZ      0.061600
     26 C27         5.8340   -1.6370    0.0710 ca        1 5JZ     -0.183300
     27 C30         2.2460    1.6150   -0.9770 ca        1 5JZ      0.950900
     28 C31         0.3030    0.3200   -1.1430 ca        1 5JZ      0.830500
     29 C29         0.3690    2.1380    0.2780 ca        1 5JZ      0.926300
     30 C36         4.4630    2.7250   -0.7070 c3        1 5JZ      0.154500
     31 C33        -4.8100   -1.4040    0.6350 c         1 5JZ      0.674700
     32 C34         4.6260    4.1000   -1.4110 c         1 5JZ      0.648100
     33 C35         5.3770   -4.0050    1.4430 c3        1 5JZ      0.341600
     34 N37        -0.7290   -2.5480   -3.1370 nd        1 5JZ     -0.556100
     35 N40         1.6070    0.5200   -1.5520 nb        1 5JZ     -0.842000
     36 N38         1.6620    2.4610   -0.0400 nb        1 5JZ     -0.867000
     37 N39        -0.3810    1.0990   -0.2240 nb        1 5JZ     -0.782000
     38 N41         3.5450    4.9460   -1.3850 n         1 5JZ     -0.560900
     39 N42         3.5300    1.8950   -1.4380 nh        1 5JZ     -0.827900
     40 N43        -0.3770   -0.7730   -1.7110 na        1 5JZ     -0.212100
     41 N44        -6.1000   -1.0520    0.2160 n         1 5JZ     -0.370000
     42 O46        -4.5130   -1.5150    1.8380 o         1 5JZ     -0.571100
     43 O47         5.7100    4.4190   -1.9370 o         1 5JZ     -0.609100
     44 O48         6.1620   -4.0160    0.2630 os        1 5JZ     -0.420600
     45 O49         5.7510   -2.8290    2.1880 os        1 5JZ     -0.345900
     46 O45        -0.3410    2.8860    1.1840 os        1 5JZ     -0.409100
     47 H4          4.5790    6.4680   -2.4000 h1        1 5JZ      0.046033
     48 H4A         2.8410    6.2180   -2.9060 h1        1 5JZ      0.046033
     49 H4B         3.2170    7.0110   -1.3060 h1        1 5JZ      0.046033
     50 H6         -8.3310   -1.8930    4.1690 ha        1 5JZ      0.134000
     51 H7         -9.9070    1.1800    1.5820 ha        1 5JZ      0.129000
     52 H8         -6.4850   -2.3070    2.5860 ha        1 5JZ      0.159000
     53 H13         5.9270   -0.4020   -1.6980 ha        1 5JZ      0.133000
     54 H15         1.1050   -1.4050   -3.2250 h5        1 5JZ      0.094800
     55 H17        -8.2990    2.0850   -0.1160 hc        1 5JZ      0.052200
     56 H17A       -8.9820    0.6670   -1.0050 hc        1 5JZ      0.052200
     57 H20         6.5170    2.8150   -0.0500 hc        1 5JZ      0.079700
     58 H20A        6.3030    1.9660   -1.6250 hc        1 5JZ      0.079700
     59 H22        -4.9390   -3.3580   -1.2300 ha        1 5JZ      0.148000
     60 H32        -1.0160    3.8200    3.5100 hc        1 5JZ      0.056033
     61 H32A       -0.1910    5.4310    3.3150 hc        1 5JZ      0.056033
     62 H32B       -1.5520    4.9540    2.2040 hc        1 5JZ      0.056033
     63 H9          5.7520    1.7000    2.0800 ha        1 5JZ      0.135000
     64 H14        -3.2020   -3.9980   -2.9130 ha        1 5JZ      0.156000
     65 H12         5.6880   -0.4860    3.3040 ha        1 5JZ      0.154000
     66 H11        -2.4820   -0.1290    0.2860 ha        1 5JZ      0.185000
     67 H16        -7.0100    1.1780   -2.2240 hc        1 5JZ      0.054200
     68 H16A       -6.0570    1.5730   -0.7390 hc        1 5JZ      0.054200
     69 H18        -7.1040   -1.2250   -1.6070 h1        1 5JZ      0.059200
     70 H18A       -5.3860   -0.6280   -1.7360 h1        1 5JZ      0.059200
     71 H19         4.9400   -3.1460   -1.1900 h1        1 5JZ      0.064200
     72 H19A        6.7650   -2.9820   -1.3550 h1        1 5JZ      0.064200
     73 H1          0.6850    4.7150    1.0560 h1        1 5JZ      0.053200
     74 H1A         1.2390    3.5760    2.3860 h1        1 5JZ      0.053200
     75 H36         4.0960    2.9150    0.3470 h1        1 5JZ      0.094700
     76 HN41        2.6880    4.6290   -1.0000 hn        1 5JZ      0.325500
     77 HN42        3.9500    1.2010   -2.0250 hn        1 5JZ      0.452800
     78 C2          3.8790   -4.0240    1.1730 c3        1 5JZ     -0.110600
     79 C3          5.8270   -5.1940    2.2880 c3        1 5JZ     -0.110600
     80 H5        -10.0510   -0.1440    3.6880 ha        1 5JZ      0.131000
     81 C32        -0.6650    4.5800    2.7710 c3        1 5JZ     -0.107100
     82 H2          3.3310   -4.1950    2.1290 hc        1 5JZ      0.059200
     83 H2A         3.5460   -3.0520    0.7380 hc        1 5JZ      0.059200
     84 H2B         3.6420   -4.8460    0.4570 hc        1 5JZ      0.059200
     85 H3          5.4440   -6.1330    1.8250 hc        1 5JZ      0.059200
     86 H3A         6.9420   -5.2300    2.3290 hc        1 5JZ      0.059200
     87 H3B         5.4220   -5.0830    3.3200 hc        1 5JZ      0.059200
@<TRIPOS>BOND
     1    1   38 1   
     2    1   47 1   
     3    1   48 1   
     4    1   49 1   
     5    2    3 ar  
     6    2    4 ar  
     7    2   80 1   
     8    3    5 ar  
     9    3   50 1   
    10    4   24 ar  
    11    4   51 1   
    12    5   25 ar  
    13    5   52 1   
    14    6   12 ar  
    15    6   19 ar  
    16    6   31 1   
    17    7   11 ar  
    18    7   26 ar  
    19    7   53 1   
    20    8   34 2   
    21    8   40 1   
    22    8   54 1   
    23    9   20 1   
    24    9   24 1   
    25    9   55 1   
    26    9   56 1   
    27   10   11 1   
    28   10   30 1   
    29   10   57 1   
    30   10   58 1   
    31   11   16 ar  
    32   12   17 ar  
    33   12   59 1   
    34   13   15 ar  
    35   13   19 ar  
    36   13   40 1   
    37   14   18 ar  
    38   14   26 ar  
    39   14   45 1   
    40   15   17 ar  
    41   15   34 1   
    42   16   18 ar  
    43   16   63 1   
    44   17   64 1   
    45   18   65 1   
    46   19   66 1   
    47   20   21 1   
    48   20   67 1   
    49   20   68 1   
    50   21   41 1   
    51   21   69 1   
    52   21   70 1   
    53   22   26 1   
    54   22   44 1   
    55   22   71 1   
    56   22   72 1   
    57   23   46 1   
    58   23   73 1   
    59   23   74 1   
    60   23   81 1   
    61   24   25 ar  
    62   25   41 1   
    63   27   35 ar  
    64   27   36 ar  
    65   27   39 1   
    66   28   35 ar  
    67   28   37 ar  
    68   28   40 1   
    69   29   36 ar  
    70   29   37 ar  
    71   29   46 1   
    72   30   32 1   
    73   30   39 1   
    74   30   75 1   
    75   31   41 1   
    76   31   42 2   
    77   32   38 1   
    78   32   43 2   
    79   33   44 1   
    80   33   45 1   
    81   33   78 1   
    82   33   79 1   
    83   38   76 1   
    84   39   77 1   
    85   60   81 1   
    86   61   81 1   
    87   62   81 1   
    88   78   82 1   
    89   78   83 1   
    90   78   84 1   
    91   79   85 1   
    92   79   86 1   
    93   79   87 1   
@<TRIPOS>SUBSTRUCTURE
     1 5JZ         1 TEMP              0 ****  ****    0 ROOT
