@<TRIPOS>MOLECULE
5JZ
   87    87     1     0     0
SMALL
bcc


@<TRIPOS>ATOM
      1 C4          1.6970    2.4930   -0.0060 c2        1 5JZ     -0.769000
      2 C5          1.7430   11.2120    9.0740 c1        1 5JZ     -0.178000
      3 C6          2.2840   11.0900    7.7400 c3        1 5JZ      0.015000
      4 C7          1.8520   10.5210   10.0700 c1        1 5JZ     -0.181000
      5 C8          3.0870    9.7960    7.8430 c2        1 5JZ     -0.155000
      6 C10         6.1610    6.6440    8.3940 c2        1 5JZ      0.027000
      7 C13         6.0120   -1.9360    0.9260 ca        1 5JZ     -0.007000
      8 C15         8.0310    1.9630    9.5300 c1        1 5JZ      0.159000
      9 C17        -0.3940    5.6060   10.4120 c1        1 5JZ      0.144000
     10 C20         4.0970   -0.3400    0.8540 c3        1 5JZ     -0.112000
     11 C21         5.5180   -0.6770    0.5750 ca        1 5JZ     -0.144000
     12 C22         7.2260    6.5670    9.2590 c2        1 5JZ     -0.220000
     13 C24         6.5700    4.4290    7.4460 c2        1 5JZ      0.111000
     14 C26         8.1590   -1.3260   -0.0090 ca        1 5JZ      0.110000
     15 C28         7.7710    4.2870    8.4150 c3        1 5JZ      0.046000
     16 C9          6.3480    0.2440   -0.0860 ca        1 5JZ     -0.056000
     17 C14         7.9180    5.3600    9.4210 c1        1 5JZ     -0.067000
     18 C12         7.6700   -0.0690   -0.3870 ca        1 5JZ     -0.166000
     19 C11         5.8280    5.5870    7.4990 c2        1 5JZ     -0.233000
     20 C16         0.6500    6.1240   10.9860 c2        1 5JZ     -0.582000
     21 C18         3.4970    6.7330    9.4980 c1        1 5JZ     -0.117000
     22 C19         7.8900   -3.6040    0.8430 c1        1 5JZ      0.096000
     23 C1          4.4280    4.4490   -0.4390 c3        1 5JZ     -0.315000
     24 C23         2.5500    9.2900   10.3380 c3        1 5JZ      0.022000
     25 C25         3.2230    9.0230    8.9550 c2        1 5JZ     -0.016000
     26 C27         7.3350   -2.2720    0.6320 ca        1 5JZ     -0.282000
     27 C30         4.9540    2.3260    3.4050 c2        1 5JZ      0.243000
     28 C31         5.7630    3.4740    5.2830 c2        1 5JZ      0.218000
     29 C29         4.9240    4.6420    3.4850 c2        1 5JZ      0.227000
     30 C36         3.9140    1.0110    1.5780 c3        1 5JZ     -0.004000
     31 C33         5.3230    7.8860    8.3410 c2        1 5JZ      0.279000
     32 C34         2.4230    1.1410    1.9200 c2        1 5JZ      0.095000
     33 C35        10.0880   -2.6510    0.4700 c3        1 5JZ      0.128000
     34 N37         7.8930    3.0000    8.9800 n2        1 5JZ     -0.335000
     35 N40         5.5150    2.2560    4.6770 n2        1 5JZ     -0.307000
     36 N38         4.6310    3.5150    2.7600 n2        1 5JZ     -0.348000
     37 N39         5.4840    4.7180    4.7350 n2        1 5JZ     -0.264000
     38 N41         1.4550    1.3660    0.7590 n4        1 5JZ      0.142000
     39 N42         4.7720    1.1170    2.7360 nh        1 5JZ     -0.249000
     40 N43         6.3800    3.3970    6.5480 nh        1 5JZ     -0.239000
     41 N44         4.0090    7.8140    8.9420 n         1 5JZ     -0.147000
     42 O46         5.7450    8.9180    7.8120 o         1 5JZ     -0.247000
     43 O47         1.9620    1.1510    3.0630 o         1 5JZ     -0.274000
     44 O48         9.1690   -3.7580    0.7090 os        1 5JZ     -0.142000
     45 O49         9.4540   -1.6600   -0.3520 os        1 5JZ     -0.220000
     46 O45         4.6380    5.8640    2.9290 oh        1 5JZ     -0.201000
     47 H4          1.2990    3.4440    0.3370 hx        1 5JZ      0.137500
     48 H4A         0.5250    1.4160    1.1890 hn        1 5JZ      0.213000
     49 H4B         2.4220    2.4310   -0.8130 hx        1 5JZ      0.137500
     50 H6          2.9610   11.9400    7.4620 hc        1 5JZ      0.119000
     51 H7          1.8660    8.4370   10.5980 hc        1 5JZ      0.129000
     52 H8          3.5970    9.5400    6.8990 ha        1 5JZ      0.154000
     53 H13         5.3710   -2.6790    1.4270 ha        1 5JZ      0.148000
     54 H15         6.6730    2.4800    6.8250 hn        1 5JZ      0.275000
     55 H17         3.3300    9.3850   11.1350 hc        1 5JZ      0.129000
     56 H17A        1.6000    6.3000   10.4210 ha        1 5JZ      0.211500
     57 H20         3.6190   -1.1570    1.4590 hc        1 5JZ      0.096500
     58 H20A        3.5520   -0.2700   -0.1270 hc        1 5JZ      0.096500
     59 H22         7.5060    7.4180    9.9010 ha        1 5JZ      0.170000
     60 H32         4.6690    5.5200   -0.2190 hc        1 5JZ      0.122333
     61 H32A        4.1490    4.3560   -1.5250 hc        1 5JZ      0.122333
     62 H32B        6.3520    3.8220    0.3560 ha        1 5JZ      0.045000
     63 H9          5.9510    1.2450   -0.3580 ha        1 5JZ      0.186000
     64 H14         8.6940    4.4700    7.7440 h1        1 5JZ      0.175000
     65 H12         8.3220    0.6450   -0.9100 ha        1 5JZ      0.156000
     66 H11         4.9600    5.7490    6.8380 ha        1 5JZ      0.179000
     67 H16         3.9310    6.8060   11.9630 ha        1 5JZ      0.003000
     68 H16A        0.7310    6.4330   12.0370 ha        1 5JZ      0.211500
     69 H18         4.1240    5.8160    9.4870 ha        1 5JZ      0.068000
     70 H18A        3.2750    6.9710   11.9060 ha        1 5JZ      0.003000
     71 H19         8.0670   -3.9050    3.3190 ha        1 5JZ      0.003000
     72 H19A        8.5300   -3.4100    3.2840 ha        1 5JZ      0.003000
     73 H1          4.2450    5.7210    2.0470 ho        1 5JZ      0.251000
     74 H1A         3.5010    4.1520    0.1420 hc        1 5JZ      0.122333
     75 H36         4.8590    0.2880    3.2890 hn        1 5JZ      0.247000
     76 HN41        1.5230    0.5220    0.1860 hn        1 5JZ      0.213000
     77 HN42        4.1820    1.8470    0.8460 h1        1 5JZ      0.195000
     78 C2         10.5150   -2.0650    1.8050 c3        1 5JZ     -0.223500
     79 C3         11.2500   -3.1980   -0.3450 c3        1 5JZ     -0.223500
     80 H5          1.4920   10.9880    6.9520 hc        1 5JZ      0.119000
     81 C32         5.4330    3.4710   -0.1350 c1        1 5JZ     -0.088000
     82 H2         11.2890   -1.2800    1.6370 hc        1 5JZ      0.100667
     83 H2A         9.6390   -1.6090    2.3250 hc        1 5JZ      0.100667
     84 H2B        10.9360   -2.8750    2.4470 hc        1 5JZ      0.100667
     85 H3         11.7500   -4.0050    0.2410 hc        1 5JZ      0.100667
     86 H3A        10.8780   -3.6190   -1.3090 hc        1 5JZ      0.100667
     87 H3B        11.9730   -2.3760   -0.5570 hc        1 5JZ      0.100667
@<TRIPOS>BOND
     1    1   38 1   
     2    1   47 1   
     3    1   49 1   
     4    2    3 1   
     5    2    4 1   
     6    3    5 1   
     7    3   50 1   
     8    3   80 1   
     9    4   24 1   
    10    5   25 1   
    11    5   52 1   
    12    6   12 1   
    13    6   19 1   
    14    6   31 1   
    15    7   11 1   
    16    7   26 1   
    17    7   53 1   
    18    8   34 1   
    19    9   20 1   
    20   10   11 1   
    21   10   30 1   
    22   10   57 1   
    23   10   58 1   
    24   11   16 1   
    25   12   17 1   
    26   12   59 1   
    27   13   15 1   
    28   13   19 1   
    29   13   40 1   
    30   14   18 1   
    31   14   26 1   
    32   14   45 1   
    33   15   17 1   
    34   15   34 1   
    35   15   64 1   
    36   16   18 1   
    37   16   63 1   
    38   18   65 1   
    39   19   66 1   
    40   20   56 1   
    41   20   68 1   
    42   21   41 1   
    43   21   69 1   
    44   22   26 1   
    45   22   44 1   
    46   23   60 1   
    47   23   61 1   
    48   23   74 1   
    49   23   81 1   
    50   24   25 1   
    51   24   51 1   
    52   24   55 1   
    53   25   41 1   
    54   27   35 1   
    55   27   36 1   
    56   27   39 1   
    57   28   35 1   
    58   28   37 1   
    59   28   40 1   
    60   29   36 1   
    61   29   37 1   
    62   29   46 1   
    63   30   32 1   
    64   30   39 1   
    65   30   77 1   
    66   31   41 1   
    67   31   42 1   
    68   32   38 1   
    69   32   43 1   
    70   33   44 1   
    71   33   45 1   
    72   33   78 1   
    73   33   79 1   
    74   38   48 1   
    75   38   76 1   
    76   39   75 1   
    77   40   54 1   
    78   46   73 1   
    79   62   81 1   
    80   67   70 1   
    81   71   72 1   
    82   78   82 1   
    83   78   83 1   
    84   78   84 1   
    85   79   85 1   
    86   79   86 1   
    87   79   87 1   
@<TRIPOS>SUBSTRUCTURE
     1 5JZ         1 TEMP              0 ****  ****    0 ROOT
