@<TRIPOS>MOLECULE
5JZ
   87    78     1     0     0
SMALL
bcc


@<TRIPOS>ATOM
      1 C4         -4.6430   -2.6120   -2.6560 c3        1 5JZ     -0.081000
      2 C5         -1.5090    7.6890    4.5820 c1        1 5JZ     -0.129250
      3 C6         -0.9100    6.6440    3.7950 c1        1 5JZ     -0.129250
      4 C7         -1.3410    7.7040    5.9900 c1        1 5JZ     -0.129250
      5 C8         -0.1500    5.6270    4.4240 c1        1 5JZ     -0.129250
      6 C10         1.3770    3.2320    4.4630 c1        1 5JZ     -0.102000
      7 C13        -0.6300   -4.9770   -4.5120 c1        1 5JZ     -0.074000
      8 C15        -0.0630   -0.9220    3.2060 c1        1 5JZ      0.016000
      9 C17        -0.0330    6.9420    8.0430 c3        1 5JZ     -0.120000
     10 C20        -0.8140   -4.4980   -2.0930 c3        1 5JZ     -0.121000
     11 C21         0.0380   -4.4900   -3.3710 c2        1 5JZ     -0.123000
     12 C22         0.0070    3.4540    4.5290 c1        1 5JZ     -0.109000
     13 C24         0.9610    0.9720    3.6760 c1        1 5JZ     -0.033000
     14 C26         1.5060   -5.0000   -5.7220 c1        1 5JZ      0.101000
     15 C28        -0.3870    1.1910    3.7420 c1        1 5JZ     -0.033000
     16 C32        -0.2820    3.5580   -2.1400 c3        1 5JZ     -0.225000
     17 C2          1.5410   -7.3970   -7.7650 c3        1 5JZ     -0.228500
     18 C3          2.1650   -5.5740   -9.3270 c3        1 5JZ     -0.228500
     19 C9          1.4410   -4.2590   -3.4090 c2        1 5JZ     -0.094000
     20 C14        -0.8800    2.4440    4.1720 c1        1 5JZ     -0.072000
     21 C12         2.1650   -4.5170   -4.5870 c1        1 5JZ     -0.156000
     22 C11         1.8620    1.9990    4.0390 c1        1 5JZ     -0.072000
     23 C16         0.9120    6.0250    8.4910 c3        1 5JZ     -0.179000
     24 C18         1.8330    5.4900    7.4940 c3        1 5JZ     -0.033000
     25 C19        -0.6070   -5.5920   -7.0110 c3        1 5JZ      0.022000
     26 C1          0.2810    2.2030   -1.7130 c3        1 5JZ     -0.010000
     27 C23        -0.5960    6.7090    6.6120 c1        1 5JZ     -0.100000
     28 C25         0.0180    5.6370    5.8050 c1        1 5JZ      0.068000
     29 C27         0.0860   -5.2330   -5.6820 c1        1 5JZ     -0.180000
     30 C30         0.0020   -1.7210    0.2620 c1        1 5JZ      0.229000
     31 C31         0.7990   -0.4340    2.0350 c1        1 5JZ      0.242000
     32 C29         0.1910    0.5900    0.0310 c1        1 5JZ      0.228000
     33 C36        -0.9600   -3.0760   -1.5710 c3        1 5JZ      0.012000
     34 C33         2.0740    4.0950    5.5210 c2        1 5JZ      0.352000
     35 C34        -2.4290   -2.7010   -1.5250 c2        1 5JZ      0.274000
     36 C35         1.4830   -5.8830   -7.9900 c3        1 5JZ      0.198000
     37 N37        -1.0160    0.0210    3.4510 n1        1 5JZ     -0.142500
     38 N40         0.4700   -1.6330    1.5210 n1        1 5JZ     -0.311000
     39 N38        -0.1370   -0.6100   -0.4830 n1        1 5JZ     -0.339000
     40 N39         0.6590    0.6780    1.2900 n1        1 5JZ     -0.256000
     41 N41        -3.2110   -2.7110   -2.7280 n         1 5JZ     -0.364000
     42 N42        -0.4080   -2.9920   -0.2640 n3        1 5JZ     -0.268000
     43 N43         1.1580   -0.3330    3.3460 n1        1 5JZ     -0.142500
     44 N44         1.2810    4.9500    6.3710 n         1 5JZ     -0.275000
     45 O46         3.2340    3.8640    5.8150 o         1 5JZ     -0.341000
     46 O47        -2.9380   -2.3610   -0.4710 o         1 5JZ     -0.381000
     47 O48         0.1400   -5.5160   -8.0990 os        1 5JZ     -0.279000
     48 O49         2.2080   -5.2830   -7.0000 os        1 5JZ     -0.231000
     49 O45        -0.3220    1.8030   -0.4930 os        1 5JZ     -0.168000
     50 H4         -5.0280   -2.7540   -3.5520 h1        1 5JZ      0.086000
     51 H4A        -4.8940   -1.7200   -2.3300 h1        1 5JZ      0.086000
     52 H4B        -4.9880   -3.2960   -2.0400 h1        1 5JZ      0.086000
     53 H5         -2.0360    8.3930    4.1440 ha        1 5JZ      0.136500
     54 H6         -1.0290    6.6360    2.8200 ha        1 5JZ      0.136500
     55 H7         -1.7500    8.4170    6.5260 ha        1 5JZ      0.136500
     56 H8          0.2560    4.9170    3.8860 ha        1 5JZ      0.136500
     57 H13        -1.5840   -5.1980   -4.4640 ha        1 5JZ      0.155000
     58 H15        -0.2260   -1.8730    3.0320 DU        1 5JZ      0.225000
     59 H17        -0.7890    6.9330    8.6740 hc        1 5JZ      0.091500
     60 H17A        0.3760    7.8360    8.0670 hc        1 5JZ      0.091500
     61 H20        -0.3760   -5.0550   -1.4110 hc        1 5JZ      0.112000
     62 H20A       -1.7030   -4.8660   -2.2950 hc        1 5JZ      0.112000
     63 H22        -0.3320    4.3150    4.8240 ha        1 5JZ      0.145000
     64 H32        -1.2640    3.5220   -2.1340 hc        1 5JZ      0.095000
     65 H32A        0.0320    3.7730   -3.0470 hc        1 5JZ      0.095000
     66 H32B        0.0240    4.2520   -1.5150 hc        1 5JZ      0.095000
     67 H2          1.3140   -7.5980   -6.8300 hc        1 5JZ      0.097667
     68 H2A         2.4470   -7.7220   -7.9590 hc        1 5JZ      0.097667
     69 H2B         0.8980   -7.8420   -8.3610 hc        1 5JZ      0.097667
     70 H3          2.0190   -4.6300   -9.5600 hc        1 5JZ      0.097667
     71 H3A         3.1310   -5.7470   -9.2500 hc        1 5JZ      0.097667
     72 H3B         1.7850   -6.1470  -10.0290 hc        1 5JZ      0.097667
     73 H9          1.9030   -3.9210   -2.6150 ha        1 5JZ      0.135000
     74 H14        -1.8480    2.6010    4.2180 ha        1 5JZ      0.170000
     75 H12         3.1330   -4.3580   -4.6130 ha        1 5JZ      0.152000
     76 H11         2.8310    1.8420    3.9930 ha        1 5JZ      0.170000
     77 H16         1.4460    6.4600    9.1940 hc        1 5JZ      0.091500
     78 H16A        0.4310    5.2680    8.8970 hc        1 5JZ      0.091500
     79 H18         2.3770    4.7930    7.9290 h1        1 5JZ      0.109500
     80 H18A        2.4340    6.2160    7.2160 h1        1 5JZ      0.109500
     81 H19        -1.3750   -4.9880   -7.1260 h1        1 5JZ      0.104500
     82 H19A       -0.9480   -6.5130   -6.9390 h1        1 5JZ      0.104500
     83 H1          0.0900    1.5350   -2.4070 h1        1 5JZ      0.090500
     84 H1A         1.2530    2.2760   -1.5890 h1        1 5JZ      0.090500
     85 H36        -0.4830   -2.4580   -2.1680 h1        1 5JZ      0.135000
     86 HN41       -2.7950   -2.7520   -3.5450 hn        1 5JZ      0.237000
     87 HN42       -0.3580   -3.7430    0.2620 hn        1 5JZ      0.248000
@<TRIPOS>BOND
     1    1   41 1   
     2    1   50 1   
     3    1   51 1   
     4    1   52 1   
     5    2    4 1   
     6    2   53 1   
     7    3    5 1   
     8    3   54 1   
     9    4   55 1   
    10    5   56 1   
    11    6   12 1   
    12    6   34 1   
    13    7   11 1   
    14    7   57 1   
    15    8   37 1   
    16    8   43 1   
    17    9   23 1   
    18    9   27 1   
    19    9   59 1   
    20    9   60 1   
    21   10   11 1   
    22   10   33 1   
    23   10   61 1   
    24   10   62 1   
    25   11   19 1   
    26   12   63 1   
    27   13   22 1   
    28   14   29 1   
    29   14   48 1   
    30   15   20 1   
    31   16   26 1   
    32   16   64 1   
    33   16   65 1   
    34   16   66 1   
    35   17   36 1   
    36   17   67 1   
    37   17   68 1   
    38   17   69 1   
    39   18   36 1   
    40   18   70 1   
    41   18   71 1   
    42   18   72 1   
    43   19   21 1   
    44   19   73 1   
    45   20   74 1   
    46   21   75 1   
    47   22   76 1   
    48   23   24 1   
    49   23   77 1   
    50   23   78 1   
    51   24   44 1   
    52   24   79 1   
    53   24   80 1   
    54   25   29 1   
    55   25   47 1   
    56   25   81 1   
    57   25   82 1   
    58   26   49 1   
    59   26   83 1   
    60   26   84 1   
    61   27   28 1   
    62   28   44 1   
    63   30   39 1   
    64   30   42 1   
    65   31   38 1   
    66   32   40 1   
    67   32   49 1   
    68   33   35 1   
    69   33   42 1   
    70   33   85 1   
    71   34   44 1   
    72   34   45 1   
    73   35   41 1   
    74   35   46 1   
    75   36   47 1   
    76   36   48 1   
    77   41   86 1   
    78   42   87 1   
@<TRIPOS>SUBSTRUCTURE
     1 5JZ         1 TEMP              0 ****  ****    0 ROOT
