@<TRIPOS>MOLECULE
5K3
   27    27     1     0     0
SMALL
bcc


@<TRIPOS>ATOM
      1 O2         -0.0670    0.1400   -0.1100 oh        1 5K3     -0.624800
      2 C1          1.3400    0.1340   -0.1080 c3        1 5K3      0.324900
      3 O           1.7120    0.1210    1.2620 os        1 5K3     -0.456600
      4 C           1.4910    1.3550    1.9270 c3        1 5K3      0.119700
      5 C2          1.9500   -1.1120   -0.7470 c3        1 5K3     -0.101400
      6 C3          1.6790   -1.1200   -2.2390 c3        1 5K3     -0.032100
      7 C4          2.1580   -2.3760   -2.8760 ca        1 5K3     -0.114300
      8 C9          1.4150   -3.5550   -2.7520 ca        1 5K3     -0.090500
      9 C8          1.8490   -4.7360   -3.3490 ca        1 5K3     -0.182500
     10 C7          3.0440   -4.7330   -4.0820 ca        1 5K3      0.122100
     11 O1          3.5380   -5.8570   -4.7030 oh        1 5K3     -0.498100
     12 C6          3.8010   -3.5580   -4.2170 ca        1 5K3     -0.182500
     13 C5          3.3500   -2.3900   -3.6120 ca        1 5K3     -0.090500
     14 H2         -0.3680   -0.6400    0.3720 ho        1 5K3      0.413000
     15 H1          1.6480    1.0820   -0.6300 h2        1 5K3      0.074700
     16 H21C        3.0520   -1.1170   -0.5460 hc        1 5K3      0.062700
     17 H22C        1.5140   -2.0270   -0.2700 hc        1 5K3      0.062700
     18 HC1         2.1640    2.1450    1.5090 h1        1 5K3      0.037700
     19 HC2         1.7450    1.1460    2.9950 h1        1 5K3      0.037700
     20 HC3         0.4230    1.6680    1.8260 h1        1 5K3      0.037700
     21 H31C        0.5730   -1.0070   -2.4080 hc        1 5K3      0.054200
     22 H32C        2.1790   -0.2340   -2.7130 hc        1 5K3      0.054200
     23 H9          0.4770   -3.5500   -2.1760 ha        1 5K3      0.133500
     24 H5          3.9380   -1.4660   -3.7150 ha        1 5K3      0.133500
     25 H8          1.2610   -5.6590   -3.2500 ha        1 5K3      0.142000
     26 HA          2.9240   -6.5860   -4.5310 ho        1 5K3      0.419000
     27 H6          4.7340   -3.5770   -4.7970 ha        1 5K3      0.142000
@<TRIPOS>BOND
     1    1    2 1   
     2    1   14 1   
     3    2    3 1   
     4    2    5 1   
     5    2   15 1   
     6    3    4 1   
     7    4   18 1   
     8    4   19 1   
     9    4   20 1   
    10    5    6 1   
    11    5   16 1   
    12    5   17 1   
    13    6    7 1   
    14    6   21 1   
    15    6   22 1   
    16    7    8 ar  
    17    7   13 ar  
    18    8    9 ar  
    19    8   23 1   
    20    9   10 ar  
    21    9   25 1   
    22   10   11 1   
    23   10   12 ar  
    24   11   26 1   
    25   12   13 ar  
    26   12   27 1   
    27   13   24 1   
@<TRIPOS>SUBSTRUCTURE
     1 5K3         1 TEMP              0 ****  ****    0 ROOT
