@<TRIPOS>MOLECULE
5K3
   27    27     1     0     0
SMALL
bcc


@<TRIPOS>ATOM
      1 O2         -0.0510    0.1520   -0.1040 oh        1 5K3     -0.624800
      2 C1          1.3550    0.1160   -0.0790 c3        1 5K3      0.324900
      3 O           1.7030    0.0660    1.2970 os        1 5K3     -0.456600
      4 C           1.4960    1.2900    1.9830 c3        1 5K3      0.119700
      5 C2          1.9500   -1.1290   -0.7350 c3        1 5K3     -0.101400
      6 C3          1.7020   -1.1020   -2.2300 c3        1 5K3     -0.032100
      7 C4          2.1660   -2.3540   -2.8850 ca        1 5K3     -0.114300
      8 C9          1.4020   -3.5220   -2.7900 ca        1 5K3     -0.090500
      9 C8          1.8200   -4.6990   -3.4050 ca        1 5K3     -0.182500
     10 C7          3.0220   -4.7030   -4.1270 ca        1 5K3      0.122100
     11 O1          3.5030   -5.8240   -4.7640 oh        1 5K3     -0.498100
     12 C6          3.8010   -3.5390   -4.2340 ca        1 5K3     -0.182500
     13 C5          3.3640   -2.3750   -3.6110 ca        1 5K3     -0.090500
     14 H2         -0.3770   -0.6320    0.3560 ho        1 5K3      0.413000
     15 H1          1.6910    1.0680   -0.5750 h2        1 5K3      0.074700
     16 H21C        1.4880   -2.0450   -0.2830 hc        1 5K3      0.062700
     17 H22C        3.0480   -1.1600   -0.5170 hc        1 5K3      0.062700
     18 HC1         0.4370    1.6280    1.8710 h1        1 5K3      0.037700
     19 HC2         2.1920    2.0740    1.5940 h1        1 5K3      0.037700
     20 HC3         1.7280    1.0540    3.0510 h1        1 5K3      0.037700
     21 H31C        2.2270   -0.2160   -2.6790 hc        1 5K3      0.054200
     22 H32C        0.6010   -0.9620   -2.4140 hc        1 5K3      0.054200
     23 H9          0.4580   -3.5110   -2.2230 ha        1 5K3      0.133500
     24 H5          3.9690   -1.4590   -3.6920 ha        1 5K3      0.133500
     25 H8          1.2160   -5.6130   -3.3280 ha        1 5K3      0.142000
     26 HA          2.8760   -6.5450   -4.6110 ho        1 5K3      0.419000
     27 H6          4.7390   -3.5630   -4.8060 ha        1 5K3      0.142000
@<TRIPOS>BOND
     1    1    2 1   
     2    1   14 1   
     3    2    3 1   
     4    2    5 1   
     5    2   15 1   
     6    3    4 1   
     7    4   18 1   
     8    4   19 1   
     9    4   20 1   
    10    5    6 1   
    11    5   16 1   
    12    5   17 1   
    13    6    7 1   
    14    6   21 1   
    15    6   22 1   
    16    7    8 ar  
    17    7   13 ar  
    18    8    9 ar  
    19    8   23 1   
    20    9   10 ar  
    21    9   25 1   
    22   10   11 1   
    23   10   12 ar  
    24   11   26 1   
    25   12   13 ar  
    26   12   27 1   
    27   13   24 1   
@<TRIPOS>SUBSTRUCTURE
     1 5K3         1 TEMP              0 ****  ****    0 ROOT
