@<TRIPOS>MOLECULE
5KH
   52    55     1     0     0
SMALL
bcc


@<TRIPOS>ATOM
      1 C14        -0.0570    0.2630   -0.3580 ca        1 5KH     -0.137000
      2 C15         1.3370    0.2000   -0.3490 ca        1 5KH     -0.065000
      3 C16        -0.8250    0.6990    3.3470 c3        1 5KH      0.689200
      4 C10         2.0300    0.2940    0.8610 ca        1 5KH     -0.134600
      5 C11         1.3330    0.4630    2.0620 ca        1 5KH     -0.043000
      6 C12        -0.0610    0.5140    2.0410 ca        1 5KH     -0.176300
      7 C13        -0.7610    0.4160    0.8360 ca        1 5KH     -0.064000
      8 C01         8.6760    2.1890    0.4820 c3        1 5KH     -0.174100
      9 O03        10.0800    0.2380    0.5950 o         1 5KH     -0.561100
     10 N04         7.8220   -0.1510    0.4810 n         1 5KH     -0.256200
     11 C05         6.4760    0.2680    0.4070 cc        1 5KH     -0.084400
     12 C06         5.6220   -0.8380    0.4480 cd        1 5KH      0.016400
     13 N07         4.2200   -0.8000    0.4070 n         1 5KH     -0.280200
     14 C08         3.5220    0.3090    0.9000 c         1 5KH      0.681700
     15 O09         4.1300    1.2970    1.3520 o         1 5KH     -0.580100
     16 F17        -2.0890    0.1600    3.3480 f         1 5KH     -0.234633
     17 F18        -0.2200    0.1360    4.4440 f         1 5KH     -0.234633
     18 F19        -1.0200    2.0110    3.7050 f         1 5KH     -0.234633
     19 C20         3.5220   -1.9350   -0.1040 ca        1 5KH      0.070600
     20 C21         3.5190   -2.2240   -1.4890 ca        1 5KH     -0.101300
     21 C22         4.2420   -1.3700   -2.4590 c3        1 5KH     -0.052800
     22 C23         2.8220   -3.3510   -1.9470 ca        1 5KH     -0.096000
     23 C24         2.1300   -4.1850   -1.0810 ca        1 5KH     -0.147000
     24 C25         2.1380   -3.8900    0.2920 ca        1 5KH      0.126100
     25 C26         2.8300   -2.7810    0.7880 ca        1 5KH     -0.213000
     26 O27         1.4390   -4.7500    1.1070 oh        1 5KH     -0.492100
     27 C28         6.4670   -2.0330    0.5600 ca        1 5KH     -0.094800
     28 C29         7.8300   -1.5620    0.5750 ca        1 5KH      0.019600
     29 C30         8.9010   -2.4590    0.6740 ca        1 5KH     -0.122000
     30 C31         8.6050   -3.8150    0.7640 ca        1 5KH     -0.114000
     31 C32         7.2820   -4.2790    0.7580 ca        1 5KH     -0.148000
     32 C33         6.2110   -3.3970    0.6570 ca        1 5KH     -0.089000
     33 H1         -0.6030    0.1900   -1.3100 ha        1 5KH      0.149000
     34 H2          1.8910    0.0690   -1.2930 ha        1 5KH      0.152000
     35 H3          1.8810    0.5610    3.0140 ha        1 5KH      0.166000
     36 H4         -1.8620    0.4570    0.8350 ha        1 5KH      0.156000
     37 H5          8.0470    2.5040    1.3500 hc        1 5KH      0.076700
     38 H6          9.6580    2.7210    0.5300 hc        1 5KH      0.076700
     39 H7          8.1560    2.4690   -0.4670 hc        1 5KH      0.076700
     40 H8          6.2180    1.3300    0.3690 h4        1 5KH      0.195000
     41 H9          4.1730   -1.7860   -3.4940 hc        1 5KH      0.050367
     42 H10         5.3240   -1.2940   -2.1810 hc        1 5KH      0.050367
     43 H11         3.8130   -0.3360   -2.4680 hc        1 5KH      0.050367
     44 H12         2.8260   -3.5780   -3.0250 ha        1 5KH      0.142000
     45 H13         1.5830   -5.0660   -1.4460 ha        1 5KH      0.157000
     46 H14         2.8310   -2.5740    1.8690 ha        1 5KH      0.148000
     47 H15         1.5200   -4.4350    2.0190 ho        1 5KH      0.424000
     48 H16         9.9400   -2.0950    0.6820 ha        1 5KH      0.168000
     49 H17         9.4300   -4.5400    0.8450 ha        1 5KH      0.135000
     50 H18         7.0900   -5.3590    0.8360 ha        1 5KH      0.133000
     51 H19         5.1760   -3.7690    0.6530 ha        1 5KH      0.142000
     52 C02         8.9330    0.7060    0.5260 c         1 5KH      0.682100
@<TRIPOS>BOND
     1    1    2 ar  
     2    1    7 ar  
     3    1   33 1   
     4    2    4 ar  
     5    2   34 1   
     6    3    6 1   
     7    3   16 1   
     8    3   17 1   
     9    3   18 1   
    10    4    5 ar  
    11    4   14 1   
    12    5    6 ar  
    13    5   35 1   
    14    6    7 ar  
    15    7   36 1   
    16    8   37 1   
    17    8   38 1   
    18    8   39 1   
    19    8   52 1   
    20    9   52 2   
    21   10   11 1   
    22   10   28 1   
    23   10   52 1   
    24   11   12 2   
    25   11   40 1   
    26   12   13 1   
    27   12   27 1   
    28   13   14 1   
    29   13   19 1   
    30   14   15 2   
    31   19   20 ar  
    32   19   25 ar  
    33   20   21 1   
    34   20   22 ar  
    35   21   41 1   
    36   21   42 1   
    37   21   43 1   
    38   22   23 ar  
    39   22   44 1   
    40   23   24 ar  
    41   23   45 1   
    42   24   25 ar  
    43   24   26 1   
    44   25   46 1   
    45   26   47 1   
    46   27   28 ar  
    47   27   32 ar  
    48   28   29 ar  
    49   29   30 ar  
    50   29   48 1   
    51   30   31 ar  
    52   30   49 1   
    53   31   32 ar  
    54   31   50 1   
    55   32   51 1   
@<TRIPOS>SUBSTRUCTURE
     1 5KH         1 TEMP              0 ****  ****    0 ROOT
