@<TRIPOS>MOLECULE
5KH
   52    53     1     0     0
SMALL
bcc


@<TRIPOS>ATOM
      1 C14         1.1520    1.8390    1.9250 c2        1 5KH     -0.425000
      2 C15         2.4750    1.8210    1.3450 c2        1 5KH     -0.011000
      3 C16        -3.4930   -0.6780    2.1510 c3        1 5KH      0.519000
      4 C10         3.1220    0.6940    1.0030 c2        1 5KH     -0.212000
      5 C11        -1.7660   -2.5390    1.7350 c1        1 5KH      0.257000
      6 C12        -2.1390   -1.3050    1.9570 c2        1 5KH     -0.583000
      7 C13         0.2680    0.8680    1.9860 c1        1 5KH      0.186000
      8 C01        10.0080    1.9120   -0.7020 c3        1 5KH     -0.241000
      9 O03        11.0170   -0.2720   -0.5450 o         1 5KH     -0.312000
     10 N04         8.7300   -0.2160   -0.4450 n         1 5KH     -0.160000
     11 C05         7.4780    0.4580   -0.4040 c2        1 5KH     -0.129000
     12 C06         6.4620   -0.4930   -0.2550 c2        1 5KH      0.015000
     13 N07         5.0680   -0.4200   -0.0700 n         1 5KH     -0.186000
     14 C08         4.4820    0.7630    0.4190 c2        1 5KH      0.341000
     15 O09         5.1120    1.8380    0.3460 o         1 5KH     -0.348000
     16 F17        -3.8710    0.1530    1.1240 f         1 5KH     -0.161667
     17 F18        -4.5330   -1.5670    2.2720 f         1 5KH     -0.161667
     18 F19        -3.5820    0.1090    3.2730 f         1 5KH     -0.161667
     19 C20         4.4130   -1.6900   -0.1960 c2        1 5KH      0.137000
     20 C21         3.0670   -1.7560   -0.7710 c2        1 5KH     -0.098000
     21 C22         2.8320   -0.9150   -1.9750 c3        1 5KH     -0.177000
     22 C23         2.0910   -2.5560   -0.2870 c2        1 5KH     -0.071000
     23 C24         2.1830   -3.3970    0.8780 c2        1 5KH     -0.218000
     24 C25         1.0970   -4.0200    1.3830 c2        1 5KH     -0.018000
     25 C26         5.1150   -2.7960    0.1670 c1        1 5KH     -0.248000
     26 O27         1.2540   -4.8030    2.5020 oh        1 5KH     -0.255000
     27 C28         7.1300   -1.7900   -0.2310 c2        1 5KH     -0.163000
     28 C29         8.5040   -1.5950   -0.3080 c2        1 5KH      0.006000
     29 C30         9.4160   -2.7400   -0.0790 c3        1 5KH     -0.074000
     30 C31         8.6790   -3.9030    0.5100 c2        1 5KH     -0.143000
     31 C32         7.3430   -4.0210    0.6700 c2        1 5KH     -0.108000
     32 C33         6.4490   -2.9710    0.2340 c2        1 5KH      0.089000
     33 H1          2.9490    2.8100    1.1910 ha        1 5KH      0.160000
     34 H2          0.8460    2.8150    2.3710 ha        1 5KH      0.209000
     35 H3          2.6840   -0.3060    1.1580 ha        1 5KH      0.160000
     36 H4         -1.2990   -0.5470    2.0130 ha        1 5KH      0.274000
     37 H5          9.4410    2.2290   -1.6110 hc        1 5KH      0.118333
     38 H6          9.5540    2.3940    0.1990 hc        1 5KH      0.118333
     39 H7         11.0720    2.2450   -0.7980 hc        1 5KH      0.118333
     40 H8          7.4070    1.5440   -0.4670 h4        1 5KH      0.197000
     41 H9          1.8670   -1.1810   -2.4720 hc        1 5KH      0.085667
     42 H10         2.7960    0.1670   -1.6890 hc        1 5KH      0.085667
     43 H11         3.6600   -1.0550   -2.7130 hc        1 5KH      0.085667
     44 H12         1.1190   -2.5700   -0.8160 ha        1 5KH      0.118000
     45 H13         3.1760   -3.5350    1.3390 ha        1 5KH      0.173000
     46 H14         0.0760   -3.9370    0.9710 h4        1 5KH      0.140000
     47 H15         0.3850   -5.1700    2.7180 ho        1 5KH      0.217000
     48 H16         9.8850   -3.0550   -1.0540 hc        1 5KH      0.124500
     49 H17        10.2600   -2.4360    0.6020 hc        1 5KH      0.124500
     50 H18         9.3430   -4.7240    0.8280 ha        1 5KH      0.131000
     51 H19         6.8930   -4.9200    1.1170 ha        1 5KH      0.148000
     52 C02         9.9850    0.4150   -0.5620 c2        1 5KH      0.325000
@<TRIPOS>BOND
     1    1    2 1   
     2    1    7 1   
     3    1   34 1   
     4    2    4 1   
     5    2   33 1   
     6    3    6 1   
     7    3   16 1   
     8    3   17 1   
     9    3   18 1   
    10    4   14 1   
    11    4   35 1   
    12    5    6 1   
    13    6   36 1   
    14    8   37 1   
    15    8   38 1   
    16    8   39 1   
    17    8   52 1   
    18    9   52 1   
    19   10   11 1   
    20   10   28 1   
    21   10   52 1   
    22   11   12 1   
    23   11   40 1   
    24   12   13 1   
    25   12   27 1   
    26   13   14 1   
    27   13   19 1   
    28   14   15 1   
    29   19   20 1   
    30   19   25 1   
    31   20   21 1   
    32   20   22 1   
    33   21   41 1   
    34   21   42 1   
    35   21   43 1   
    36   22   23 1   
    37   22   44 1   
    38   23   24 1   
    39   23   45 1   
    40   24   26 1   
    41   24   46 1   
    42   25   32 1   
    43   26   47 1   
    44   27   28 1   
    45   27   32 1   
    46   28   29 1   
    47   29   30 1   
    48   29   48 1   
    49   29   49 1   
    50   30   31 1   
    51   30   50 1   
    52   31   32 1   
    53   31   51 1   
@<TRIPOS>SUBSTRUCTURE
     1 5KH         1 TEMP              0 ****  ****    0 ROOT
