@<TRIPOS>MOLECULE
5KJ
   29    25     1     0     0
SMALL
bcc


@<TRIPOS>ATOM
      1 OA2        -2.9990   -2.5870    2.7950 o         1 5KJ     -0.579500
      2 C          -1.7520   -2.3750    2.8070 c1        1 5KJ      0.305000
      3 OA1        -1.1790   -2.0390    3.8800 o         1 5KJ     -0.579500
      4 CA         -0.9560   -2.4840    1.5290 c2        1 5KJ     -0.128000
      5 N          -1.2640   -3.7170    0.8810 n3        1 5KJ     -0.321000
      6 CB         -1.3110   -1.3320    0.6150 c3        1 5KJ     -0.125000
      7 CG         -0.1020   -0.3770    0.4960 c3        1 5KJ     -0.212000
      8 CD         -0.4240    0.7370   -0.5220 c3        1 5KJ     -0.059000
      9 NE          0.6520    1.7250   -0.5200 n3        1 5KJ     -0.287000
     10 C1          0.7140    2.7230    0.5210 c3        1 5KJ     -0.121000
     11 CZ          1.6280    1.7230   -1.5690 c1        1 5KJ      0.092000
     12 NH1         2.8990    1.5880   -1.2800 n1        1 5KJ     -0.305000
     13 NH2         1.2170    1.8700   -2.9260 n2        1 5KJ     -0.093000
     14 OH          2.1690    1.9240   -3.9360 oh        1 5KJ     -0.268000
     15 H2         -0.0010   -2.4530    1.7350 h4        1 5KJ      0.083000
     16 H3         -0.4940   -4.1700    0.7090 hn        1 5KJ      0.125500
     17 H4         -1.6990   -3.5500    0.0990 hn        1 5KJ      0.125500
     18 H6         -1.5410   -1.6780   -0.2690 hc        1 5KJ      0.065000
     19 H7         -2.0690   -0.8500    0.9810 hc        1 5KJ      0.065000
     20 H8          0.0860    0.0230    1.3690 hc        1 5KJ      0.111500
     21 H9          0.6810   -0.8790    0.1920 hc        1 5KJ      0.111500
     22 H10        -0.5070    0.3520   -1.4080 h1        1 5KJ      0.085000
     23 H11        -1.2640    1.1700   -0.2760 h1        1 5KJ      0.085000
     24 H12         1.2400    2.3780    1.2760 h1        1 5KJ      0.083667
     25 H13        -0.1980    2.9360    0.8270 h1        1 5KJ      0.083667
     26 H14         1.1410    3.5390    0.1690 h1        1 5KJ      0.083667
     27 H15         3.1600    1.4950   -0.4180 DU        1 5KJ      0.158000
     28 H17         0.3360    1.9470   -3.1280 hn        1 5KJ      0.185000
     29 H18         1.8390    2.3610   -4.6310 ho        1 5KJ      0.231000
@<TRIPOS>BOND
     1    1    2 1   
     2    2    3 1   
     3    4    5 1   
     4    4    6 1   
     5    4   15 1   
     6    5   16 1   
     7    5   17 1   
     8    6    7 1   
     9    6   18 1   
    10    6   19 1   
    11    7    8 1   
    12    7   20 1   
    13    7   21 1   
    14    8    9 1   
    15    8   22 1   
    16    8   23 1   
    17    9   10 1   
    18    9   11 1   
    19   10   24 1   
    20   10   25 1   
    21   10   26 1   
    22   11   12 1   
    23   13   14 1   
    24   13   28 1   
    25   14   29 1   
@<TRIPOS>SUBSTRUCTURE
     1 5KJ         1 TEMP              0 ****  ****    0 ROOT
