@<TRIPOS>MOLECULE
5KJ
   32    30     1     0     0
SMALL
bcc


@<TRIPOS>ATOM
      1 OA2        -0.9180   -0.4680    0.6370 o         1 5KJ     -0.224000
      2 C          -1.7800   -0.6140    1.4580 c1        1 5KJ      0.450000
      3 OA1        -2.6300   -0.7550    2.2650 o         1 5KJ     -0.224000
      4 CA          2.5830   -0.2520   -1.5220 c2        1 5KJ     -0.598000
      5 N           1.2030   -0.3290   -1.1830 nz        1 5KJ      0.080000
      6 CB          3.2880    0.9850   -1.7290 c3        1 5KJ     -0.021000
      7 CG          3.5380    1.1950   -3.2560 c3        1 5KJ     -0.214000
      8 CD          4.4790    2.3570   -3.4480 c3        1 5KJ     -0.132000
      9 NE          4.9350    2.5170   -4.8960 nx        1 5KJ     -0.015000
     10 C1          3.8770    3.1400   -5.7360 c3        1 5KJ     -0.203000
     11 CZ          6.2080    3.3210   -5.0070 c2        1 5KJ      0.002000
     12 NH1         6.6560    4.2590   -4.2780 n2        1 5KJ     -0.136000
     13 NH2         7.1300    2.9190   -6.1930 ny        1 5KJ      0.081000
     14 OH          7.3030    1.5810   -6.2200 oh        1 5KJ     -0.221000
     15 H2          3.0950   -1.2160   -1.5970 hx        1 5KJ      0.178000
     16 H3          0.6160   -0.5040   -2.0060 hn        1 5KJ      0.223000
     17 H4          1.0530   -1.1030   -0.5220 hn        1 5KJ      0.223000
     18 H6          2.7540    1.8910   -1.3370 hc        1 5KJ      0.088000
     19 H7          4.2990    0.9290   -1.2380 hc        1 5KJ      0.088000
     20 H8          2.5560    1.3760   -3.7600 hc        1 5KJ      0.107000
     21 H9          3.9750    0.2430   -3.6560 hc        1 5KJ      0.107000
     22 H10         5.4080    2.1920   -2.8300 hx        1 5KJ      0.135500
     23 H11         3.9910    3.3230   -3.1390 hx        1 5KJ      0.135500
     24 H12         3.6890    4.1940   -5.3970 hx        1 5KJ      0.151000
     25 H13         2.9290    2.5440   -5.6240 hx        1 5KJ      0.151000
     26 H14         4.1860    3.1370   -6.8150 hx        1 5KJ      0.151000
     27 H15         6.1750    4.6340   -3.4850 hn        1 5KJ      0.276000
     28 H17         8.0320    3.4450   -6.1510 hn        1 5KJ      0.292000
     29 H18         8.1500    1.3430   -5.7690 ho        1 5KJ      0.300000
     30 HN3         0.8740    0.5320   -0.7360 hn        1 5KJ      0.223000
     31 HE1         5.1140    1.5620   -5.2530 hn        1 5KJ      0.257000
     32 HH23        6.6450    3.1660   -7.0840 hn        1 5KJ      0.292000
@<TRIPOS>BOND
     1    1    2 1   
     2    2    3 1   
     3    4    5 1   
     4    4    6 1   
     5    4   15 1   
     6    5   16 1   
     7    5   17 1   
     8    5   30 1   
     9    6    7 1   
    10    6   18 1   
    11    6   19 1   
    12    7    8 1   
    13    7   20 1   
    14    7   21 1   
    15    8    9 1   
    16    8   22 1   
    17    8   23 1   
    18    9   10 1   
    19    9   11 1   
    20    9   31 1   
    21   10   24 1   
    22   10   25 1   
    23   10   26 1   
    24   11   12 1   
    25   11   13 1   
    26   12   27 1   
    27   13   14 1   
    28   13   28 1   
    29   13   32 1   
    30   14   29 1   
@<TRIPOS>SUBSTRUCTURE
     1 5KJ         1 TEMP              0 ****  ****    0 ROOT
