@<TRIPOS>MOLECULE
5KJ
   29    28     1     0     0
SMALL
bcc


@<TRIPOS>ATOM
      1 OA2        -4.9690    0.3120   -0.0810 o         1 5KJ     -0.841800
      2 C          -3.9200   -0.3630    0.1250 c         1 5KJ      0.888600
      3 OA1        -3.8700   -1.4180    0.8150 o         1 5KJ     -0.841800
      4 CA         -2.5890    0.1280   -0.5390 c3        1 5KJ      0.016500
      5 N          -2.7160    1.3700   -1.2920 n3        1 5KJ     -0.891800
      6 CB         -1.5140    0.1890    0.5460 c3        1 5KJ     -0.062400
      7 CG         -0.1230    0.3400   -0.0310 c3        1 5KJ     -0.110400
      8 CD          0.9090    0.3560    1.0960 c3        1 5KJ      0.178800
      9 NE          2.2810    0.6660    0.7400 nh        1 5KJ     -0.777600
     10 C1          2.4950    1.9740    0.1730 c3        1 5KJ      0.177100
     11 CZ          3.0880   -0.3960    0.1900 c2        1 5KJ      0.697100
     12 NH1         2.6980   -1.5850   -0.1730 n2        1 5KJ     -0.843100
     13 NH2         4.5530   -0.1410    0.2090 nh        1 5KJ     -0.500700
     14 OH          5.1390   -0.4540   -0.9530 oh        1 5KJ     -0.423300
     15 H2         -2.2940   -0.6690   -1.2830 h1        1 5KJ      0.041700
     16 H3         -3.5490    1.2920   -1.8520 hn        1 5KJ      0.330800
     17 H4         -2.8890    2.1170   -0.6420 hn        1 5KJ      0.330800
     18 H6         -1.7260    1.0360    1.2490 hc        1 5KJ      0.048700
     19 H7         -1.5870   -0.7650    1.1360 hc        1 5KJ      0.048700
     20 H8          0.0800   -0.5040   -0.7390 hc        1 5KJ      0.043200
     21 H9         -0.0590    1.2890   -0.6240 hc        1 5KJ      0.043200
     22 H10         0.6010    1.1410    1.8470 h1        1 5KJ      0.055700
     23 H11         0.8910   -0.6340    1.6340 h1        1 5KJ      0.055700
     24 H12         3.3410    2.4750    0.7180 h1        1 5KJ      0.035700
     25 H13         2.7450    1.9380   -0.9220 h1        1 5KJ      0.035700
     26 H14         1.5780    2.6090    0.2990 h1        1 5KJ      0.035700
     27 H15         1.7190   -1.7670   -0.1160 hn        1 5KJ      0.413400
     28 H17         4.7140    0.8600    0.3280 hn        1 5KJ      0.378800
     29 H18         5.2480   -1.4250   -0.9410 ho        1 5KJ      0.437000
@<TRIPOS>BOND
     1    1    2 1   
     2    2    3 1   
     3    2    4 1   
     4    4    5 1   
     5    4    6 1   
     6    4   15 1   
     7    5   16 1   
     8    5   17 1   
     9    6    7 1   
    10    6   18 1   
    11    6   19 1   
    12    7    8 1   
    13    7   20 1   
    14    7   21 1   
    15    8    9 1   
    16    8   22 1   
    17    8   23 1   
    18    9   10 1   
    19    9   11 1   
    20   10   24 1   
    21   10   25 1   
    22   10   26 1   
    23   11   12 2   
    24   11   13 1   
    25   12   27 1   
    26   13   14 1   
    27   13   28 1   
    28   14   29 1   
@<TRIPOS>SUBSTRUCTURE
     1 5KJ         1 TEMP              0 ****  ****    0 ROOT
