@<TRIPOS>MOLECULE
5KJ
   32    30     1     0     0
SMALL
bcc


@<TRIPOS>ATOM
      1 OA2        -0.9040   -0.4390    0.6690 o         1 5KJ     -0.224000
      2 C          -1.7620   -0.5800    1.4950 c1        1 5KJ      0.450000
      3 OA1        -2.6080   -0.7160    2.3070 o         1 5KJ     -0.224000
      4 CA          2.5840   -0.2450   -1.5140 c2        1 5KJ     -0.598000
      5 N           1.2070   -0.3120   -1.1640 n4        1 5KJ      0.080000
      6 CB          3.2960    0.9870   -1.7250 c3        1 5KJ     -0.021000
      7 CG          3.5360    1.1970   -3.2540 c3        1 5KJ     -0.214000
      8 CD          4.4850    2.3520   -3.4530 c3        1 5KJ     -0.132000
      9 NE          4.9290    2.5100   -4.9040 n4        1 5KJ     -0.015000
     10 C1          3.8690    3.1440   -5.7340 c3        1 5KJ     -0.203000
     11 CZ          6.2080    3.3040   -5.0240 c2        1 5KJ      0.002000
     12 NH1         6.6700    4.2370   -4.2980 n2        1 5KJ     -0.136000
     13 NH2         7.1160    2.8960   -6.2200 n4        1 5KJ      0.081000
     14 OH          7.2770    1.5570   -6.2510 oh        1 5KJ     -0.221000
     15 H2          3.0880   -1.2130   -1.5950 hx        1 5KJ      0.178000
     16 H3          0.8880    0.5500   -0.7130 hn        1 5KJ      0.223000
     17 H4          0.6110   -0.4820   -1.9830 hn        1 5KJ      0.223000
     18 H6          4.3120    0.9220   -1.2440 hc        1 5KJ      0.088000
     19 H7          2.7730    1.8960   -1.3270 hc        1 5KJ      0.088000
     20 H8          3.9620    0.2420   -3.6590 hc        1 5KJ      0.107000
     21 H9          2.5510    1.3870   -3.7490 hc        1 5KJ      0.107000
     22 H10         4.0070    3.3210   -3.1380 hx        1 5KJ      0.135500
     23 H11         5.4180    2.1780   -2.8430 hx        1 5KJ      0.135500
     24 H12         4.1680    3.1400   -6.8150 hx        1 5KJ      0.151000
     25 H13         2.9160    2.5560   -5.6140 hx        1 5KJ      0.151000
     26 H14         3.6920    4.1990   -5.3910 hx        1 5KJ      0.151000
     27 H15         6.2000    4.6140   -3.5000 hn        1 5KJ      0.276000
     28 H17         6.6250    3.1490   -7.1060 hn        1 5KJ      0.292000
     29 H18         8.1260    1.3110   -5.8080 ho        1 5KJ      0.300000
     30 HN3         1.0560   -1.0850   -0.5030 hn        1 5KJ      0.223000
     31 HE1         5.0970    1.5540   -5.2640 hn        1 5KJ      0.257000
     32 HH23        8.0220    3.4140   -6.1850 hn        1 5KJ      0.292000
@<TRIPOS>BOND
     1    1    2 1   
     2    2    3 1   
     3    4    5 1   
     4    4    6 1   
     5    4   15 1   
     6    5   16 1   
     7    5   17 1   
     8    5   30 1   
     9    6    7 1   
    10    6   18 1   
    11    6   19 1   
    12    7    8 1   
    13    7   20 1   
    14    7   21 1   
    15    8    9 1   
    16    8   22 1   
    17    8   23 1   
    18    9   10 1   
    19    9   11 1   
    20    9   31 1   
    21   10   24 1   
    22   10   25 1   
    23   10   26 1   
    24   11   12 1   
    25   11   13 1   
    26   12   27 1   
    27   13   14 1   
    28   13   28 1   
    29   13   32 1   
    30   14   29 1   
@<TRIPOS>SUBSTRUCTURE
     1 5KJ         1 TEMP              0 ****  ****    0 ROOT
