@<TRIPOS>MOLECULE
5KJ
   32    30     1     0     0
SMALL
bcc


@<TRIPOS>ATOM
      1 OA2        -0.8320   -0.3880    0.7760 o         1 5KJ     -0.224000
      2 C          -1.6750   -0.5160    1.6200 c1        1 5KJ      0.450000
      3 OA1        -2.5050   -0.6400    2.4490 o         1 5KJ     -0.224000
      4 CA          2.6200   -0.2160   -1.4620 c2        1 5KJ     -0.598000
      5 N           1.2470   -0.2880   -1.0950 n4        1 5KJ      0.080000
      6 CB          3.3180    1.0180   -1.7090 c3        1 5KJ     -0.021000
      7 CG          3.5390    1.1950   -3.2440 c3        1 5KJ     -0.214000
      8 CD          4.4730    2.3550   -3.4800 c3        1 5KJ     -0.132000
      9 NE          4.9020    2.4840   -4.9390 n4        1 5KJ     -0.015000
     10 C1          3.8260    3.0860   -5.7730 c3        1 5KJ     -0.203000
     11 CZ          6.1700    3.2880   -5.0910 c2        1 5KJ      0.002000
     12 NH1         6.6290    4.2430   -4.3920 n2        1 5KJ     -0.136000
     13 NH2         7.0710    2.8620   -6.2850 n4        1 5KJ      0.081000
     14 OH          7.2470    1.5240   -6.2860 oh        1 5KJ     -0.221000
     15 H2          3.1330   -1.1800   -1.5270 hx        1 5KJ      0.178000
     16 H3          1.1110   -1.0470   -0.4150 hn        1 5KJ      0.223000
     17 H4          0.9250    0.5820   -0.6600 hn        1 5KJ      0.223000
     18 H6          2.7900    1.9310   -1.3260 hc        1 5KJ      0.088000
     19 H7          4.3380    0.9740   -1.2370 hc        1 5KJ      0.088000
     20 H8          3.9710    0.2360   -3.6320 hc        1 5KJ      0.107000
     21 H9          2.5470    1.3630   -3.7330 hc        1 5KJ      0.107000
     22 H10         3.9880    3.3260   -3.1830 hx        1 5KJ      0.135500
     23 H11         5.4140    2.2050   -2.8760 hx        1 5KJ      0.135500
     24 H12         4.1140    3.0600   -6.8570 hx        1 5KJ      0.151000
     25 H13         2.8820    2.4900   -5.6300 hx        1 5KJ      0.151000
     26 H14         3.6410    4.1460   -5.4530 hx        1 5KJ      0.151000
     27 H15         6.1620    4.6340   -3.5980 hn        1 5KJ      0.276000
     28 H17         7.9720    3.3900   -6.2720 hn        1 5KJ      0.292000
     29 H18         8.1030    1.2980   -5.8460 ho        1 5KJ      0.300000
     30 HN3         0.6450   -0.4820   -1.9030 hn        1 5KJ      0.223000
     31 HE1         5.0760    1.5220   -5.2780 hn        1 5KJ      0.257000
     32 HH23        6.5690    3.0880   -7.1730 hn        1 5KJ      0.292000
@<TRIPOS>BOND
     1    1    2 1   
     2    2    3 1   
     3    4    5 1   
     4    4    6 1   
     5    4   15 1   
     6    5   16 1   
     7    5   17 1   
     8    5   30 1   
     9    6    7 1   
    10    6   18 1   
    11    6   19 1   
    12    7    8 1   
    13    7   20 1   
    14    7   21 1   
    15    8    9 1   
    16    8   22 1   
    17    8   23 1   
    18    9   10 1   
    19    9   11 1   
    20    9   31 1   
    21   10   24 1   
    22   10   25 1   
    23   10   26 1   
    24   11   12 1   
    25   11   13 1   
    26   12   27 1   
    27   13   14 1   
    28   13   28 1   
    29   13   32 1   
    30   14   29 1   
@<TRIPOS>SUBSTRUCTURE
     1 5KJ         1 TEMP              0 ****  ****    0 ROOT
