@<TRIPOS>MOLECULE
5KV
   32    31     1     0     0
SMALL
bcc


@<TRIPOS>ATOM
      1 O13         0.0800   -0.0620    0.3750 oh        1 5KV     -0.634800
      2 C18         1.8180    1.3810   -0.3050 c3        1 5KV      0.110100
      3 C19         1.4740   -0.0550    0.1370 c3        1 5KV      0.107100
      4 C20         2.3080   -0.4290    1.3700 c3        1 5KV      0.058100
      5 C21         3.3350    1.4680   -0.5770 c3        1 5KV      0.075500
      6 C22         4.0480    1.0560    0.7480 c3        1 5KV      0.341900
      7 O25         3.7000   -0.2800    1.0660 os        1 5KV     -0.433600
      8 O28         5.4370    1.0140    0.6170 oh        1 5KV     -0.596800
      9 N29         3.7880    2.7550   -1.0870 n8        1 5KV     -0.981800
     10 O30         1.1440    1.7360   -1.5010 oh        1 5KV     -0.625800
     11 C31         2.1090   -1.9030    1.7760 c3        1 5KV      0.215400
     12 O32         0.8440   -2.0580    2.3160 os        1 5KV     -0.618500
     13 S33         0.5670   -1.8490    4.0310 s6        1 5KV      1.701300
     14 S34         5.8550    2.6180   -2.2480 s4        1 5KV      1.816000
     15 O35         6.0990    1.3020   -1.9930 o         1 5KV     -0.591067
     16 O36         5.3010    2.9630   -3.4440 o         1 5KV     -0.591067
     17 O37         6.4610    3.5920   -1.5170 o         1 5KV     -0.710867
     18 O38         1.5140   -2.7010    4.5820 o         1 5KV     -0.746533
     19 O39        -0.7640   -2.2260    4.1250 o         1 5KV     -0.746533
     20 O40         0.8400   -0.4850    4.1380 o         1 5KV     -0.746533
     21 H1         -0.1050   -0.7110    1.0750 ho        1 5KV      0.468000
     22 H2          1.5170    2.1030    0.5060 h1        1 5KV      0.053700
     23 H3          1.6920   -0.7690   -0.7070 h1        1 5KV      0.050700
     24 H4          2.0270    0.2320    2.2410 h1        1 5KV      0.104700
     25 H5          3.5970    0.7000   -1.3670 h1        1 5KV      0.098700
     26 H6          3.8160    1.7660    1.5890 h2        1 5KV      0.080700
     27 H7          5.6680    0.2920    0.0110 ho        1 5KV      0.444000
     28 H8          3.1120    3.1050   -1.7480 hn        1 5KV      0.392800
     29 H9          0.2440    1.3900   -1.4230 ho        1 5KV      0.436000
     30 H10         2.9060   -2.1900    2.5150 h1        1 5KV      0.038700
     31 H11         2.1860   -2.5600    0.8680 h1        1 5KV      0.038700
     32 H292        3.8860    3.4170   -0.3380 hn        1 5KV      0.392800
@<TRIPOS>BOND
     1    1    3 1   
     2    1   21 1   
     3    2    3 1   
     4    2    5 1   
     5    2   10 1   
     6    2   22 1   
     7    3    4 1   
     8    3   23 1   
     9    4    7 1   
    10    4   11 1   
    11    4   24 1   
    12    5    6 1   
    13    5    9 1   
    14    5   25 1   
    15    6    7 1   
    16    6    8 1   
    17    6   26 1   
    18    8   27 1   
    19    9   28 1   
    20    9   32 1   
    21   10   29 1   
    22   11   12 1   
    23   11   30 1   
    24   11   31 1   
    25   12   13 1   
    26   13   18 1   
    27   13   19 1   
    28   13   20 1   
    29   14   15 1   
    30   14   16 1   
    31   14   17 2   
@<TRIPOS>SUBSTRUCTURE
     1 5KV         1 TEMP              0 ****  ****    0 ROOT
