@<TRIPOS>MOLECULE
5KV
   32    31     1     0     0
SMALL
bcc


@<TRIPOS>ATOM
      1 O13         0.0600    0.0420    0.4250 oh        1 5KV     -0.634800
      2 C18         1.8320    1.4500   -0.2360 c3        1 5KV      0.110100
      3 C19         1.4460    0.0090    0.1500 c3        1 5KV      0.107100
      4 C20         2.2980   -0.4510    1.3420 c3        1 5KV      0.058100
      5 C21         3.3440    1.4940   -0.5460 c3        1 5KV      0.075500
      6 C22         4.0750    0.9970    0.7390 c3        1 5KV      0.341900
      7 O25         3.6860   -0.3380    1.0070 os        1 5KV     -0.433600
      8 O28         5.4570    0.9120    0.5690 oh        1 5KV     -0.596800
      9 N29         3.8320    2.7870   -1.0100 n3        1 5KV     -0.981800
     10 O30         1.1420    1.8840   -1.3970 oh        1 5KV     -0.625800
     11 C31         2.0540   -1.9340    1.6870 c3        1 5KV      0.215400
     12 O32         0.7980   -2.0670    2.2530 os        1 5KV     -0.618500
     13 S33         0.5730   -1.9270    3.9830 s6        1 5KV      1.701300
     14 S34         5.8620    2.6280   -2.2320 s4        1 5KV      1.816000
     15 O35         6.0630    1.2940   -2.0430 o         1 5KV     -0.591067
     16 O36         5.2900    3.0470   -3.3970 o         1 5KV     -0.591067
     17 O37         6.5220    3.5460   -1.4760 o         1 5KV     -0.710867
     18 O38         1.5020   -2.8380    4.4700 o         1 5KV     -0.746533
     19 O39        -0.7680   -2.2590    4.0960 o         1 5KV     -0.746533
     20 O40         0.9010   -0.5810    4.1430 o         1 5KV     -0.746533
     21 H1         -0.1310   -0.6320    1.1000 ho        1 5KV      0.468000
     22 H2          1.5790    2.1450    0.6130 h1        1 5KV      0.053700
     23 H3          1.6170   -0.6730   -0.7310 h1        1 5KV      0.050700
     24 H4          2.0640    0.1790    2.2490 h1        1 5KV      0.104700
     25 H5          3.5570    0.7550   -1.3760 h1        1 5KV      0.098700
     26 H6          3.8920    1.6770    1.6170 h2        1 5KV      0.080700
     27 H7          5.6460    0.2100   -0.0750 ho        1 5KV      0.444000
     28 H8          3.9740    3.4100   -0.2350 hn        1 5KV      0.392800
     29 H9          0.2320    1.5660   -1.3100 ho        1 5KV      0.436000
     30 H10         2.0840   -2.5510    0.7490 h1        1 5KV      0.038700
     31 H11         2.8590   -2.2830    2.3910 h1        1 5KV      0.038700
     32 H292        3.1520    3.1900   -1.6360 hn        1 5KV      0.392800
@<TRIPOS>BOND
     1    1    3 1   
     2    1   21 1   
     3    2    3 1   
     4    2    5 1   
     5    2   10 1   
     6    2   22 1   
     7    3    4 1   
     8    3   23 1   
     9    4    7 1   
    10    4   11 1   
    11    4   24 1   
    12    5    6 1   
    13    5    9 1   
    14    5   25 1   
    15    6    7 1   
    16    6    8 1   
    17    6   26 1   
    18    8   27 1   
    19    9   28 1   
    20    9   32 1   
    21   10   29 1   
    22   11   12 1   
    23   11   30 1   
    24   11   31 1   
    25   12   13 1   
    26   13   18 1   
    27   13   19 1   
    28   13   20 1   
    29   14   15 1   
    30   14   16 1   
    31   14   17 2   
@<TRIPOS>SUBSTRUCTURE
     1 5KV         1 TEMP              0 ****  ****    0 ROOT
