@<TRIPOS>MOLECULE
5L0
   47    51     1     0     0
SMALL
bcc


@<TRIPOS>ATOM
      1 CAN         0.5010   -0.3470   -0.2380 c3        1 5L0      0.141800
      2 CAL         1.8020   -1.1100    0.0460 c3        1 5L0      0.093400
      3 OAQ         2.2010   -0.9860    1.4070 os        1 5L0     -0.407600
      4 CAM         1.1840   -1.3880    2.3190 c3        1 5L0      0.093400
      5 CAO        -0.1220   -0.6230    2.0680 c3        1 5L0      0.141800
      6 NAY        -0.5840   -0.6480    0.6890 nh        1 5L0     -0.619000
      7 CAS        -1.4590   -1.6910    0.3030 cc        1 5L0      0.159600
      8 CAK        -1.7440   -2.7970    1.0970 cd        1 5L0     -0.198000
      9 CAX        -2.7220   -3.7360    0.6850 cd        1 5L0      0.027700
     10 CAF        -2.1650   -1.5510   -0.9480 cc        1 5L0     -0.185000
     11 CAI        -3.1090   -2.4720   -1.3380 cd        1 5L0     -0.044300
     12 NBA        -3.3980   -3.5560   -0.5420 na        1 5L0      0.071700
     13 CAU        -4.3150   -4.6100   -0.7200 cd        1 5L0     -0.267300
     14 CAR        -5.1860   -4.7620   -1.8790 c         1 5L0      0.610300
     15 OAB        -5.1920   -3.9600   -2.8250 o         1 5L0     -0.569100
     16 CAA        -6.0800   -5.9620   -1.8520 c3        1 5L0     -0.190100
     17 CAJ        -4.2130   -5.4560    0.4100 cc        1 5L0     -0.059000
     18 CAT        -3.2270   -4.9300    1.2860 cc        1 5L0     -0.169200
     19 CAV        -2.7780   -5.5000    2.5390 cc        1 5L0      0.063900
     20 NAZ        -3.7100   -5.9550    3.4620 na        1 5L0      0.021700
     21 CAH        -5.1030   -5.9670    3.4610 cc        1 5L0     -0.231100
     22 CAD        -5.4880   -6.5630    4.6840 cd        1 5L0      0.008600
     23 NAP        -4.3870   -6.9180    5.4410 nd        1 5L0     -0.286600
     24 CAW        -3.2950   -6.5500    4.7050 cc        1 5L0     -0.037300
     25 CAG        -1.8950   -6.6590    4.9880 cc        1 5L0     -0.095000
     26 CAC        -0.9960   -6.1960    4.0680 cd        1 5L0     -0.124000
     27 CAE        -1.4320   -5.6200    2.8430 cd        1 5L0     -0.176000
     28 H1          0.1820   -0.5580   -1.2940 h1        1 5L0      0.070950
     29 H2          0.7010    0.7580   -0.1390 h1        1 5L0      0.070950
     30 H3          1.6930   -2.1960   -0.2140 h1        1 5L0      0.057700
     31 H4          2.6500   -0.6600   -0.5320 h1        1 5L0      0.057700
     32 H5          1.6000   -1.1320    3.3280 h1        1 5L0      0.057700
     33 H6          1.0250   -2.4950    2.2380 h1        1 5L0      0.057700
     34 H7         -0.9230   -1.0070    2.7560 h1        1 5L0      0.070950
     35 H8          0.0520    0.4650    2.3110 h1        1 5L0      0.070950
     36 H9         -1.2460   -2.9910    2.0580 ha        1 5L0      0.161000
     37 H10        -1.9730   -0.6840   -1.5970 ha        1 5L0      0.163000
     38 H11        -3.6800   -2.3970   -2.2850 h4        1 5L0      0.206000
     39 H12        -6.7490   -5.9180   -0.9580 hc        1 5L0      0.067700
     40 H13        -6.7070   -5.9950   -2.7760 hc        1 5L0      0.067700
     41 H14        -5.4640   -6.8930   -1.7950 hc        1 5L0      0.067700
     42 H15        -4.7910   -6.3660    0.5650 ha        1 5L0      0.164000
     43 H16        -5.6900   -5.5580    2.6430 h4        1 5L0      0.184000
     44 H17        -6.5030   -6.7440    5.0390 h4        1 5L0      0.179000
     45 H18        -1.5970   -7.1140    5.9420 ha        1 5L0      0.162000
     46 H19         0.0860   -6.2680    4.2560 ha        1 5L0      0.140000
     47 H20        -0.6870   -5.2760    2.1120 ha        1 5L0      0.149000
@<TRIPOS>BOND
     1    1    2 1   
     2    1    6 1   
     3    1   28 1   
     4    1   29 1   
     5    2    3 1   
     6    2   30 1   
     7    2   31 1   
     8    3    4 1   
     9    4    5 1   
    10    4   32 1   
    11    4   33 1   
    12    5    6 1   
    13    5   34 1   
    14    5   35 1   
    15    6    7 1   
    16    7    8 2   
    17    7   10 1   
    18    8    9 1   
    19    8   36 1   
    20    9   12 1   
    21    9   18 2   
    22   10   11 2   
    23   10   37 1   
    24   11   12 1   
    25   11   38 1   
    26   12   13 1   
    27   13   14 1   
    28   13   17 2   
    29   14   15 2   
    30   14   16 1   
    31   16   39 1   
    32   16   40 1   
    33   16   41 1   
    34   17   18 1   
    35   17   42 1   
    36   18   19 1   
    37   19   20 1   
    38   19   27 2   
    39   20   21 1   
    40   20   24 1   
    41   21   22 2   
    42   21   43 1   
    43   22   23 1   
    44   22   44 1   
    45   23   24 2   
    46   24   25 1   
    47   25   26 2   
    48   25   45 1   
    49   26   27 1   
    50   26   46 1   
    51   27   47 1   
@<TRIPOS>SUBSTRUCTURE
     1 5L0         1 TEMP              0 ****  ****    0 ROOT
