@<TRIPOS>MOLECULE
5L0
   47    51     1     0     0
SMALL
bcc


@<TRIPOS>ATOM
      1 CAN         0.4830   -0.3240   -0.2180 c3        1 5L0      0.141800
      2 CAL         1.7880   -1.0830    0.0590 c3        1 5L0      0.093400
      3 OAQ         2.1890   -0.9670    1.4190 os        1 5L0     -0.407600
      4 CAM         1.1750   -1.3790    2.3300 c3        1 5L0      0.093400
      5 CAO        -0.1350   -0.6190    2.0870 c3        1 5L0      0.141800
      6 NAY        -0.5990   -0.6360    0.7080 nh        1 5L0     -0.619000
      7 CAS        -1.4700   -1.6810    0.3170 cc        1 5L0      0.159600
      8 CAK        -1.7480   -2.7940    1.1030 cd        1 5L0     -0.198000
      9 CAX        -2.7230   -3.7340    0.6860 cd        1 5L0      0.027700
     10 CAF        -2.1790   -1.5360   -0.9320 cc        1 5L0     -0.185000
     11 CAI        -3.1190   -2.4580   -1.3270 cd        1 5L0     -0.044300
     12 NBA        -3.4010   -3.5490   -0.5390 na        1 5L0      0.071700
     13 CAU        -4.3140   -4.6060   -0.7230 cd        1 5L0     -0.267300
     14 CAR        -5.1860   -4.7540   -1.8810 c         1 5L0      0.610300
     15 OAB        -5.1980   -3.9450   -2.8220 o         1 5L0     -0.569100
     16 CAA        -6.0740   -5.9580   -1.8610 c3        1 5L0     -0.190100
     17 CAJ        -4.2060   -5.4600    0.4010 cc        1 5L0     -0.059000
     18 CAT        -3.2210   -4.9360    1.2790 cc        1 5L0     -0.169200
     19 CAV        -2.7680   -5.5120    2.5270 cc        1 5L0      0.063900
     20 NAZ        -3.6960   -5.9780    3.4490 na        1 5L0      0.021700
     21 CAH        -5.0880   -5.9960    3.4500 cc        1 5L0     -0.231100
     22 CAD        -5.4690   -6.6030    4.6690 cd        1 5L0      0.008600
     23 NAP        -4.3650   -6.9580    5.4210 nd        1 5L0     -0.286600
     24 CAW        -3.2760   -6.5790    4.6870 cc        1 5L0     -0.037300
     25 CAG        -1.8750   -6.6840    4.9660 cc        1 5L0     -0.095000
     26 CAC        -0.9790   -6.2100    4.0480 cd        1 5L0     -0.124000
     27 CAE        -1.4200   -5.6280    2.8290 cd        1 5L0     -0.176000
     28 H1          0.1630   -0.5300   -1.2760 h1        1 5L0      0.070950
     29 H2          0.6770    0.7810   -0.1120 h1        1 5L0      0.070950
     30 H3          1.6840   -2.1680   -0.2090 h1        1 5L0      0.057700
     31 H4          2.6330   -0.6250   -0.5180 h1        1 5L0      0.057700
     32 H5          1.0210   -2.4870    2.2420 h1        1 5L0      0.057700
     33 H6          1.5910   -1.1280    3.3400 h1        1 5L0      0.057700
     34 H7          0.0340    0.4680    2.3360 h1        1 5L0      0.070950
     35 H8         -0.9330   -1.0120    2.7730 h1        1 5L0      0.070950
     36 H9         -1.2480   -2.9920    2.0620 ha        1 5L0      0.161000
     37 H10        -1.9920   -0.6630   -1.5750 ha        1 5L0      0.163000
     38 H11        -3.6920   -2.3790   -2.2740 h4        1 5L0      0.206000
     39 H12        -5.4540   -6.8860   -1.8120 hc        1 5L0      0.067700
     40 H13        -6.7420   -5.9230   -0.9670 hc        1 5L0      0.067700
     41 H14        -6.7030   -5.9880   -2.7840 hc        1 5L0      0.067700
     42 H15        -4.7800   -6.3740    0.5500 ha        1 5L0      0.164000
     43 H16        -5.6790   -5.5840    2.6350 h4        1 5L0      0.184000
     44 H17        -6.4820   -6.7910    5.0240 h4        1 5L0      0.179000
     45 H18        -1.5730   -7.1440    5.9180 ha        1 5L0      0.162000
     46 H19         0.1030   -6.2780    4.2340 ha        1 5L0      0.140000
     47 H20        -0.6780   -5.2750    2.0980 ha        1 5L0      0.149000
@<TRIPOS>BOND
     1    1    2 1   
     2    1    6 1   
     3    1   28 1   
     4    1   29 1   
     5    2    3 1   
     6    2   30 1   
     7    2   31 1   
     8    3    4 1   
     9    4    5 1   
    10    4   32 1   
    11    4   33 1   
    12    5    6 1   
    13    5   34 1   
    14    5   35 1   
    15    6    7 1   
    16    7    8 2   
    17    7   10 1   
    18    8    9 1   
    19    8   36 1   
    20    9   12 1   
    21    9   18 2   
    22   10   11 2   
    23   10   37 1   
    24   11   12 1   
    25   11   38 1   
    26   12   13 1   
    27   13   14 1   
    28   13   17 2   
    29   14   15 2   
    30   14   16 1   
    31   16   39 1   
    32   16   40 1   
    33   16   41 1   
    34   17   18 1   
    35   17   42 1   
    36   18   19 1   
    37   19   20 1   
    38   19   27 2   
    39   20   21 1   
    40   20   24 1   
    41   21   22 2   
    42   21   43 1   
    43   22   23 1   
    44   22   44 1   
    45   23   24 2   
    46   24   25 1   
    47   25   26 2   
    48   25   45 1   
    49   26   27 1   
    50   26   46 1   
    51   27   47 1   
@<TRIPOS>SUBSTRUCTURE
     1 5L0         1 TEMP              0 ****  ****    0 ROOT
