@<TRIPOS>MOLECULE
5L2
   56    57     1     0     0
SMALL
bcc


@<TRIPOS>ATOM
      1 C1         -0.2860    0.4690    0.2870 c3        1 5L2     -0.068100
      2 C2          0.9850    0.4170   -0.5550 c3        1 5L2      0.159100
      3 C3          2.1740   -0.1000    0.2710 c3        1 5L2      0.062100
      4 C4          1.8340   -1.4600    0.8970 c3        1 5L2      0.089100
      5 C5          0.5400   -1.3120    1.7120 c3        1 5L2      0.099100
      6 C6          0.0410   -2.6860    2.1830 c3        1 5L2      0.147400
      7 O2          0.7940   -0.3610   -1.7200 oh        1 5L2     -0.656800
      8 O3          3.2620   -0.2030   -0.6430 oh        1 5L2     -0.652800
      9 O4          1.6230   -2.4370   -0.1090 oh        1 5L2     -0.583800
     10 O6         -0.8240   -2.4970    3.2960 os        1 5L2     -0.447900
     11 CAZ        -2.1670   -2.7660    3.1450 c         1 5L2      0.642100
     12 OAG        -2.5590   -3.1930    2.0600 o         1 5L2     -0.526000
     13 CAB        -2.9400   -2.4880    4.3850 c3        1 5L2     -0.150100
     14 O5         -0.5360   -0.7730    0.9390 os        1 5L2     -0.348600
     15 SBN        -0.4680    1.8450    1.4310 s6        1 5L2      1.435900
     16 OAN        -1.8070    1.8800    1.7970 o         1 5L2     -0.605300
     17 OAO         0.5380    1.6800    2.3950 o         1 5L2     -0.605300
     18 N          -0.0780    3.1100    0.4630 n3        1 5L2     -0.820500
     19 CD1        -0.5780    3.3890   -0.8640 c3        1 5L2      0.221800
     20 CG          0.5820    4.0720   -1.6450 c3        1 5L2      0.221100
     21 OD2         1.1360    3.0360   -2.4740 os        1 5L2     -0.638500
     22 SBM         2.4860    2.9210   -3.3370 s6        1 5L2      1.675400
     23 OAL         2.2280    3.2500   -4.6290 o         1 5L2     -0.574300
     24 OAM         3.5550    3.3040   -2.5860 o         1 5L2     -0.574300
     25 NAF         2.5650    1.0900   -3.3440 nz        1 5L2     -0.821500
     26 CB          1.5480    4.5720   -0.5690 c3        1 5L2     -0.151400
     27 CA          0.9740    4.0630    0.7790 c3        1 5L2      0.189500
     28 C           0.4900    5.2510    1.6110 c         1 5L2      0.610100
     29 O           0.6270    6.4440    1.3450 o         1 5L2     -0.516000
     30 OAS        -0.1100    4.8770    2.7690 os        1 5L2     -0.430900
     31 CAA        -0.5620    5.9270    3.6360 c3        1 5L2      0.126700
     32 H1         -1.1610    0.5060   -0.4380 h2        1 5L2      0.136700
     33 H2          1.2370    1.4410   -0.9520 h1        1 5L2      0.054700
     34 H3          2.4200    0.6360    1.0880 h1        1 5L2      0.088700
     35 H4          2.6680   -1.7880    1.5790 h1        1 5L2      0.069700
     36 H5          0.7440   -0.6370    2.5920 h1        1 5L2      0.098700
     37 H6          0.9100   -3.2760    2.5770 h1        1 5L2      0.091200
     38 H7         -0.4610   -3.2290    1.3390 h1        1 5L2      0.091200
     39 H8          0.4770   -1.2400   -1.4470 ho        1 5L2      0.474000
     40 H9          4.0390   -0.4600   -0.1300 ho        1 5L2      0.438000
     41 H10         2.4620   -2.5370   -0.5800 ho        1 5L2      0.413000
     42 H11        -3.6110   -1.6130    4.2000 hc        1 5L2      0.083367
     43 H12        -3.5640   -3.3820    4.6300 hc        1 5L2      0.083367
     44 H13        -2.2600   -2.2590    5.2410 hc        1 5L2      0.083367
     45 H16        -1.4440    4.1110   -0.8230 h1        1 5L2      0.090700
     46 H17         0.2150    4.8750   -2.3370 h1        1 5L2      0.102700
     47 H18         3.0400    0.7140   -2.5090 hn        1 5L2      0.490133
     48 H19         3.0390    0.7180   -4.1660 hn        1 5L2      0.490133
     49 H20         2.5870    4.1850   -0.7080 hc        1 5L2      0.109200
     50 H21         1.5900    5.6950   -0.5770 hc        1 5L2      0.109200
     51 H22         1.7770    3.5540    1.3940 h1        1 5L2      0.115700
     52 H23        -1.3220    6.5500    3.1070 h1        1 5L2      0.066367
     53 H24         0.3070    6.5540    3.9490 h1        1 5L2      0.066367
     54 H25        -1.0070    5.3720    4.4990 h1        1 5L2      0.066367
     55 H14        -0.9080    2.4480   -1.3830 h1        1 5L2      0.090700
     56 HAF3        1.6230    0.6690   -3.3250 hn        1 5L2      0.490133
@<TRIPOS>BOND
     1    1    2 1   
     2    1   14 1   
     3    1   15 1   
     4    1   32 1   
     5    2    3 1   
     6    2    7 1   
     7    2   33 1   
     8    3    4 1   
     9    3    8 1   
    10    3   34 1   
    11    4    5 1   
    12    4    9 1   
    13    4   35 1   
    14    5    6 1   
    15    5   14 1   
    16    5   36 1   
    17    6   10 1   
    18    6   37 1   
    19    6   38 1   
    20    7   39 1   
    21    8   40 1   
    22    9   41 1   
    23   10   11 1   
    24   11   12 2   
    25   11   13 1   
    26   13   42 1   
    27   13   43 1   
    28   13   44 1   
    29   15   16 2   
    30   15   17 2   
    31   15   18 1   
    32   18   19 1   
    33   18   27 1   
    34   19   20 1   
    35   19   45 1   
    36   19   55 1   
    37   20   21 1   
    38   20   26 1   
    39   20   46 1   
    40   21   22 1   
    41   22   23 2   
    42   22   24 2   
    43   22   25 1   
    44   25   47 1   
    45   25   48 1   
    46   25   56 1   
    47   26   27 1   
    48   26   49 1   
    49   26   50 1   
    50   27   28 1   
    51   27   51 1   
    52   28   29 2   
    53   28   30 1   
    54   30   31 1   
    55   31   52 1   
    56   31   53 1   
    57   31   54 1   
@<TRIPOS>SUBSTRUCTURE
     1 5L2         1 TEMP              0 ****  ****    0 ROOT
