@<TRIPOS>MOLECULE
5L2
   56    57     1     0     0
SMALL
bcc


@<TRIPOS>ATOM
      1 C1          0.0420    0.4420    0.3910 c3        1 5L2     -0.074100
      2 C2          1.5090    0.5540   -0.0260 c3        1 5L2      0.172100
      3 C3          2.4300    0.1840    1.1480 c3        1 5L2      0.064100
      4 C4          2.0740   -1.2080    1.6980 c3        1 5L2      0.087100
      5 C5          0.5760   -1.2660    2.0190 c3        1 5L2      0.096100
      6 C6          0.1420   -2.7080    2.3140 c3        1 5L2      0.148400
      7 O2          1.7470   -0.2610   -1.1610 oh        1 5L2     -0.674800
      8 O3          3.7520    0.1820    0.6330 oh        1 5L2     -0.600800
      9 O4          2.3730   -2.2120    0.7420 oh        1 5L2     -0.594800
     10 O6         -1.1060   -2.6890    2.9960 os        1 5L2     -0.444900
     11 CAZ        -2.2440   -3.0420    2.3050 c         1 5L2      0.644100
     12 OAG        -2.1310   -3.3900    1.1310 o         1 5L2     -0.533000
     13 CAB        -3.4670   -2.9440    3.1460 c3        1 5L2     -0.150100
     14 O5         -0.2410   -0.8520    0.9180 os        1 5L2     -0.352600
     15 SBN        -0.6400    1.7360    1.4300 s6        1 5L2      1.426900
     16 OAN        -2.0130    1.5140    1.5060 o         1 5L2     -0.604800
     17 OAO         0.1390    1.7730    2.5940 o         1 5L2     -0.604800
     18 N          -0.3310    3.0460    0.5050 n3        1 5L2     -0.816500
     19 CD1        -0.9890    3.3420   -0.7490 c3        1 5L2      0.224800
     20 CG          0.1090    3.9090   -1.6920 c3        1 5L2      0.203100
     21 OD2         0.5270    2.7920   -2.4940 os        1 5L2     -0.620500
     22 SBM         1.6110    2.7480   -3.6900 s6        1 5L2      1.658400
     23 OAL         0.9870    2.9430   -4.8810 o         1 5L2     -0.570300
     24 OAM         2.7840    3.2960   -3.2710 o         1 5L2     -0.570300
     25 NAF         1.8890    0.9390   -3.6220 n4        1 5L2     -0.814500
     26 CB          1.2260    4.3930   -0.7580 c3        1 5L2     -0.137400
     27 CA          0.7870    3.9600    0.6680 c3        1 5L2      0.196500
     28 C           0.3920    5.2140    1.4480 c         1 5L2      0.608100
     29 O          -0.4550    6.0500    1.1350 o         1 5L2     -0.515000
     30 OAS         1.1170    5.3620    2.5850 os        1 5L2     -0.418900
     31 CAA         0.8160    6.5040    3.3990 c3        1 5L2      0.122700
     32 H1         -0.5680    0.4210   -0.5670 h2        1 5L2      0.116700
     33 H2          1.7520    1.5950   -0.3860 h1        1 5L2      0.059700
     34 H3          2.3150    0.9510    1.9660 h1        1 5L2      0.088700
     35 H4          2.6600   -1.4010    2.6410 h1        1 5L2      0.069700
     36 H5          0.3730   -0.5980    2.9040 h1        1 5L2      0.089700
     37 H6          0.8640   -3.1660    3.0410 h1        1 5L2      0.091700
     38 H7          0.0960   -3.3040    1.3650 h1        1 5L2      0.091700
     39 H8          1.5880   -1.1840   -0.8980 ho        1 5L2      0.470000
     40 H9          4.3480    0.1680    1.3930 ho        1 5L2      0.424000
     41 H10         3.3170   -2.1310    0.5420 ho        1 5L2      0.422000
     42 H11        -3.2050   -2.8360    4.2260 hc        1 5L2      0.083367
     43 H12        -4.0550   -2.0500    2.8180 hc        1 5L2      0.083367
     44 H13        -4.0850   -3.8630    2.9980 hc        1 5L2      0.083367
     45 H16        -1.4740    2.4250   -1.1810 h1        1 5L2      0.100700
     46 H17        -0.2880    4.6990   -2.3800 h1        1 5L2      0.099700
     47 H18         1.1900    0.4760   -3.0160 hn        1 5L2      0.488133
     48 H19         2.7960    0.7010   -3.2020 hn        1 5L2      0.488133
     49 H20         2.2160    3.9390   -1.0110 hc        1 5L2      0.098200
     50 H21         1.3210    5.5070   -0.8190 hc        1 5L2      0.098200
     51 H22         1.6280    3.4470    1.2220 h1        1 5L2      0.110700
     52 H23         1.5130    6.3900    4.2670 h1        1 5L2      0.065700
     53 H24         1.0190    7.4390    2.8250 h1        1 5L2      0.065700
     54 H25        -0.2520    6.4680    3.7190 h1        1 5L2      0.065700
     55 H14        -1.7680    4.1470   -0.6040 h1        1 5L2      0.100700
     56 HAF3        1.8370    0.4930   -4.5380 hn        1 5L2      0.488133
@<TRIPOS>BOND
     1    1    2 1   
     2    1   14 1   
     3    1   15 1   
     4    1   32 1   
     5    2    3 1   
     6    2    7 1   
     7    2   33 1   
     8    3    4 1   
     9    3    8 1   
    10    3   34 1   
    11    4    5 1   
    12    4    9 1   
    13    4   35 1   
    14    5    6 1   
    15    5   14 1   
    16    5   36 1   
    17    6   10 1   
    18    6   37 1   
    19    6   38 1   
    20    7   39 1   
    21    8   40 1   
    22    9   41 1   
    23   10   11 1   
    24   11   12 2   
    25   11   13 1   
    26   13   42 1   
    27   13   43 1   
    28   13   44 1   
    29   15   16 2   
    30   15   17 2   
    31   15   18 1   
    32   18   19 1   
    33   18   27 1   
    34   19   20 1   
    35   19   45 1   
    36   19   55 1   
    37   20   21 1   
    38   20   26 1   
    39   20   46 1   
    40   21   22 1   
    41   22   23 2   
    42   22   24 2   
    43   22   25 1   
    44   25   47 1   
    45   25   48 1   
    46   25   56 1   
    47   26   27 1   
    48   26   49 1   
    49   26   50 1   
    50   27   28 1   
    51   27   51 1   
    52   28   29 2   
    53   28   30 1   
    54   30   31 1   
    55   31   52 1   
    56   31   53 1   
    57   31   54 1   
@<TRIPOS>SUBSTRUCTURE
     1 5L2         1 TEMP              0 ****  ****    0 ROOT
