@<TRIPOS>MOLECULE
5LI
   29    29     1     0     0
SMALL
bcc


@<TRIPOS>ATOM
      1 C1         -0.3050   -0.6610    1.2500 ca        1 5LI     -0.103000
      2 C2          0.8670   -1.2050    0.7240 ca        1 5LI     -0.030000
      3 C3         -0.2830    0.5800    1.8770 ca        1 5LI     -0.029000
      4 C4          2.0760   -0.4930    0.8100 ca        1 5LI     -0.208600
      5 C5          0.9250    1.2970    1.9910 ca        1 5LI      0.029400
      6 C6          2.1030    0.7600    1.4590 ca        1 5LI      0.029400
      7 C7          8.5320   -0.2250   -0.2910 c         1 5LI      0.547900
      8 C8          3.2460   -1.1730    0.2600 c         1 5LI      0.593700
      9 C9          5.4460   -1.0050   -0.9510 c3        1 5LI      0.092800
     10 C10         6.4530   -0.1790   -1.7560 c3        1 5LI      0.109800
     11 N11         4.2470   -0.2660   -0.4910 ny        1 5LI     -0.711800
     12 N12         7.4140    0.6480   -0.9340 nx        1 5LI     -0.423700
     13 O13         8.6150   -0.1770    0.9100 o         1 5LI     -0.322100
     14 O14         3.5310   -2.3570    0.2600 o         1 5LI     -0.397100
     15 O15         6.6780    1.3200   -0.0150 oh        1 5LI     -0.405300
     16 Cl16        0.9170    2.7850    2.7770 cl        1 5LI      0.027600
     17 Cl17        3.5670    1.6160    1.6620 cl        1 5LI     -0.063400
     18 H1         -1.2520   -1.2260    1.1760 ha        1 5LI      0.195000
     19 H2          0.8450   -2.2010    0.2450 ha        1 5LI      0.180000
     20 H3         -1.2130    1.0080    2.2990 ha        1 5LI      0.201000
     21 H7          9.1210   -0.7680   -1.0660 hx        1 5LI      0.177200
     22 H9          5.9290   -1.4760   -0.0440 hx        1 5LI      0.145700
     23 H9A         5.0980   -1.8550   -1.6210 hx        1 5LI      0.145700
     24 H10         5.9260    0.5260   -2.4660 hx        1 5LI      0.141700
     25 H10A        7.0860   -0.8930   -2.3650 hx        1 5LI      0.141700
     26 HN11        4.5030    0.5120    0.1610 hn        1 5LI      0.471300
     27 HO15        7.2820    1.6980    0.6730 ho        1 5LI      0.505000
     28 H112        3.7520    0.1420   -1.2910 hn        1 5LI      0.471300
     29 H121        7.8670    1.3380   -1.5750 hn        1 5LI      0.489800
@<TRIPOS>BOND
     1    1    2 ar  
     2    1    3 ar  
     3    1   18 1   
     4    2    4 ar  
     5    2   19 1   
     6    3    5 ar  
     7    3   20 1   
     8    4    6 ar  
     9    4    8 1   
    10    5    6 ar  
    11    5   16 1   
    12    6   17 1   
    13    7   12 1   
    14    7   13 2   
    15    7   21 1   
    16    8   11 1   
    17    8   14 2   
    18    9   10 1   
    19    9   11 1   
    20    9   22 1   
    21    9   23 1   
    22   10   12 1   
    23   10   24 1   
    24   10   25 1   
    25   11   26 1   
    26   11   28 1   
    27   12   15 1   
    28   12   29 1   
    29   15   27 1   
@<TRIPOS>SUBSTRUCTURE
     1 5LI         1 TEMP              0 ****  ****    0 ROOT
