@<TRIPOS>MOLECULE
5LI
   27    27     1     0     0
SMALL
bcc


@<TRIPOS>ATOM
      1 C1         -2.7140    2.4960   -0.8850 ca        1 5LI     -0.126000
      2 C2         -1.4070    2.0290   -1.0020 ca        1 5LI     -0.078000
      3 C3         -3.6510    1.7730   -0.1520 ca        1 5LI     -0.099000
      4 C4         -1.0240    0.8380   -0.3760 ca        1 5LI     -0.128600
      5 C5         -3.2820    0.5720    0.4650 ca        1 5LI      0.009400
      6 C6         -1.9640    0.0970    0.3540 ca        1 5LI      0.038400
      7 C7          5.1900   -0.4220   -0.9900 c         1 5LI      0.604900
      8 C8          0.3930    0.3980   -0.5590 c         1 5LI      0.673700
      9 C9          2.4890   -0.3190    0.5040 c3        1 5LI      0.070000
     10 C10         3.4980    0.8300    0.2620 c3        1 5LI      0.036000
     11 N11         1.1280    0.1280    0.5760 n         1 5LI     -0.563900
     12 N12         4.8900    0.4050    0.1320 n         1 5LI     -0.290300
     13 O13         6.1190   -1.2370   -0.9720 o         1 5LI     -0.552100
     14 O14         0.9060    0.3210   -1.6940 o         1 5LI     -0.598100
     15 O15         5.3550   -0.0480    1.3050 oh        1 5LI     -0.441100
     16 CL16       -4.4510   -0.2900    1.3400 cl        1 5LI     -0.060400
     17 CL17       -1.5330   -1.3750    1.0800 cl        1 5LI     -0.057400
     18 H1         -3.0090    3.4340   -1.3780 ha        1 5LI      0.149000
     19 H2         -0.6650    2.5850   -1.5980 ha        1 5LI      0.159000
     20 H3         -4.6860    2.1410   -0.0600 ha        1 5LI      0.156000
     21 H7          4.5980   -0.1730   -1.8990 h5        1 5LI      0.051200
     22 H9          2.5840   -1.0620   -0.3410 h1        1 5LI      0.067200
     23 H9A         2.7500   -0.8380    1.4690 h1        1 5LI      0.067200
     24 H10         3.2350    1.3680   -0.6910 h1        1 5LI      0.076700
     25 H10A        3.4530    1.5570    1.1190 h1        1 5LI      0.076700
     26 HN11        0.7100    0.2210    1.4700 hn        1 5LI      0.324500
     27 HO15        6.3140    0.1420    1.2930 ho        1 5LI      0.431000
@<TRIPOS>BOND
     1    1    2 ar  
     2    1    3 ar  
     3    1   18 1   
     4    2    4 ar  
     5    2   19 1   
     6    3    5 ar  
     7    3   20 1   
     8    4    6 ar  
     9    4    8 1   
    10    5    6 ar  
    11    5   16 1   
    12    6   17 1   
    13    7   12 1   
    14    7   13 2   
    15    7   21 1   
    16    8   11 1   
    17    8   14 2   
    18    9   10 1   
    19    9   11 1   
    20    9   22 1   
    21    9   23 1   
    22   10   12 1   
    23   10   24 1   
    24   10   25 1   
    25   11   26 1   
    26   12   15 1   
    27   15   27 1   
@<TRIPOS>SUBSTRUCTURE
     1 5LI         1 TEMP              0 ****  ****    0 ROOT
