@<TRIPOS>MOLECULE
5LI
   27    23     1     0     0
SMALL
bcc


@<TRIPOS>ATOM
      1 C1         -2.8830   -2.6410    0.2970 c1        1 5LI     -0.112500
      2 C2         -2.0260   -1.5800    0.0240 c1        1 5LI     -0.078000
      3 C3         -3.5790   -2.6780    1.4930 c1        1 5LI     -0.112500
      4 C4         -1.8680   -0.5650    0.9450 c1        1 5LI     -0.108000
      5 C5         -3.4220   -1.6600    2.4190 c1        1 5LI     -0.069000
      6 C6         -2.5670   -0.6020    2.1460 c2        1 5LI     -0.040000
      7 C7          4.4420    0.7730   -0.9470 c1        1 5LI      0.206000
      8 C8         -0.8500    0.5610    0.6850 c1        1 5LI      0.347000
      9 C9          0.9920    1.5030   -0.6910 c3        1 5LI     -0.046000
     10 C10         2.0370    0.8580   -1.6130 c3        1 5LI     -0.080000
     11 N11        -0.1370    0.6020   -0.5390 n3        1 5LI     -0.373000
     12 N12         3.3160    1.5180   -1.4350 n2        1 5LI     -0.180000
     13 O13         5.4240    1.3640   -0.4960 o         1 5LI     -0.313000
     14 O14        -0.7120    1.4580    1.5000 o         1 5LI     -0.359000
     15 O15         3.4920    2.8240   -1.8860 oh        1 5LI     -0.246000
     16 CL16       -4.4370   -1.6120    3.8360 cl        1 5LI      0.018000
     17 CL17       -2.6020    0.6190    3.3940 cl        1 5LI      0.021000
     18 H1         -2.9950   -3.3650   -0.3610 ha        1 5LI      0.152500
     19 H2         -1.5350   -1.5540   -0.8200 ha        1 5LI      0.159000
     20 H3         -4.1840   -3.4260    1.6850 ha        1 5LI      0.152500
     21 H7          4.4440   -0.1880   -1.0040 ha        1 5LI      0.144000
     22 H9          0.6840    2.3510   -1.0850 h1        1 5LI      0.106500
     23 H9A         1.3910    1.6750    0.1830 h1        1 5LI      0.106500
     24 H10         2.1260   -0.0890   -1.3900 h1        1 5LI      0.116000
     25 H10A        1.7500    0.9470   -2.5450 h1        1 5LI      0.116000
     26 HN11       -0.3950    0.0780   -1.2310 hn        1 5LI      0.238000
     27 HO15        4.0930    2.8320   -2.5660 ho        1 5LI      0.230000
@<TRIPOS>BOND
     1    1    3 1   
     2    1   18 1   
     3    2    4 1   
     4    2   19 1   
     5    3   20 1   
     6    4    6 1   
     7    5    6 1   
     8    5   16 1   
     9    6   17 1   
    10    7   13 1   
    11    7   21 1   
    12    8   11 1   
    13    8   14 1   
    14    9   10 1   
    15    9   11 1   
    16    9   22 1   
    17    9   23 1   
    18   10   12 1   
    19   10   24 1   
    20   10   25 1   
    21   11   26 1   
    22   12   15 1   
    23   15   27 1   
@<TRIPOS>SUBSTRUCTURE
     1 5LI         1 TEMP              0 ****  ****    0 ROOT
