@<TRIPOS>MOLECULE
5LI
   29    29     1     0     0
SMALL
bcc


@<TRIPOS>ATOM
      1 C1         -0.3450   -0.6420    1.0900 ca        1 5LI     -0.103000
      2 C2          0.8310   -1.1760    0.5630 ca        1 5LI     -0.030000
      3 C3         -0.3190    0.5580    1.7910 ca        1 5LI     -0.029000
      4 C4          2.0500   -0.4940    0.7260 ca        1 5LI     -0.208600
      5 C5          0.8980    1.2430    1.9820 ca        1 5LI      0.029400
      6 C6          2.0810    0.7160    1.4510 ca        1 5LI      0.029400
      7 C7          8.5380   -0.2840   -0.1770 c         1 5LI      0.547900
      8 C8          3.2230   -1.1630    0.1680 c         1 5LI      0.593700
      9 C9          5.4600   -0.9650   -0.9680 c3        1 5LI      0.092800
     10 C10         6.5030   -0.1120   -1.6930 c3        1 5LI      0.109800
     11 N11         4.2610   -0.2320   -0.4970 n4        1 5LI     -0.711800
     12 N12         7.4550    0.6470   -0.7970 n4        1 5LI     -0.423700
     13 O13         8.5880   -0.3090    1.0270 o         1 5LI     -0.322100
     14 O14         3.4860   -2.3500    0.1050 o         1 5LI     -0.397100
     15 O15         6.7050    1.2770    0.1390 oh        1 5LI     -0.405300
     16 CL16        0.8940    2.6810    2.8570 cl        1 5LI      0.027600
     17 CL17        3.5540    1.5300    1.7460 cl        1 5LI     -0.063400
     18 H1         -1.3000   -1.1830    0.9540 ha        1 5LI      0.195000
     19 H2          0.8050   -2.1400    0.0250 ha        1 5LI      0.180000
     20 H3         -1.2530    0.9790    2.2130 ha        1 5LI      0.201000
     21 H7          9.1400   -0.7910   -0.9660 hx        1 5LI      0.177200
     22 H9          5.9090   -1.4980   -0.0780 hx        1 5LI      0.145700
     23 H9A         5.1170   -1.7670   -1.6970 hx        1 5LI      0.145700
     24 H10         6.0100    0.6440   -2.3750 hx        1 5LI      0.141700
     25 H10A        7.1410   -0.8000   -2.3270 hx        1 5LI      0.141700
     26 HN11        4.5120    0.5000    0.2070 hn        1 5LI      0.471300
     27 HO15        7.2950    1.6020    0.8650 ho        1 5LI      0.505000
     28 H112        3.7960    0.2340   -1.2850 hn        1 5LI      0.471300
     29 H121        7.9380    1.3640   -1.3830 hn        1 5LI      0.489800
@<TRIPOS>BOND
     1    1    2 ar  
     2    1    3 ar  
     3    1   18 1   
     4    2    4 ar  
     5    2   19 1   
     6    3    5 ar  
     7    3   20 1   
     8    4    6 ar  
     9    4    8 1   
    10    5    6 ar  
    11    5   16 1   
    12    6   17 1   
    13    7   12 1   
    14    7   13 2   
    15    7   21 1   
    16    8   11 1   
    17    8   14 2   
    18    9   10 1   
    19    9   11 1   
    20    9   22 1   
    21    9   23 1   
    22   10   12 1   
    23   10   24 1   
    24   10   25 1   
    25   11   26 1   
    26   11   28 1   
    27   12   15 1   
    28   12   29 1   
    29   15   27 1   
@<TRIPOS>SUBSTRUCTURE
     1 5LI         1 TEMP              0 ****  ****    0 ROOT
