@<TRIPOS>MOLECULE
5LI
   29    29     1     0     0
SMALL
bcc


@<TRIPOS>ATOM
      1 C1         -0.4080   -1.0310    1.1470 ca        1 5LI     -0.104000
      2 C2          0.8980   -1.3830    0.8080 ca        1 5LI     -0.029000
      3 C3         -0.7080    0.2740    1.5220 ca        1 5LI     -0.027000
      4 C4          1.9200   -0.4150    0.8280 ca        1 5LI     -0.206600
      5 C5          0.3070    1.2510    1.5680 ca        1 5LI      0.029400
      6 C6          1.6190    0.9060    1.2230 ca        1 5LI      0.026400
      7 C7          8.4890   -0.9970   -1.3450 c         1 5LI      0.540900
      8 C8          3.2500   -0.9140    0.4880 c         1 5LI      0.596700
      9 C9          5.5760   -0.3320   -0.2720 c3        1 5LI      0.083800
     10 C10         6.4640    0.5350   -1.1850 c3        1 5LI      0.111800
     11 N11         4.1490    0.0610   -0.3070 n4        1 5LI     -0.711800
     12 N12         7.9370    0.3830   -0.8930 n4        1 5LI     -0.411700
     13 O13         9.0500   -1.6510   -0.5010 o         1 5LI     -0.315100
     14 O14         3.7430   -2.0100    0.6890 o         1 5LI     -0.403100
     15 O15         8.1030    0.6220    0.4320 oh        1 5LI     -0.373300
     16 CL16       -0.0910    2.8140    2.0490 cl        1 5LI      0.030600
     17 CL17        2.8390    2.0960    1.3450 cl        1 5LI     -0.045400
     18 H1         -1.2040   -1.7980    1.1250 ha        1 5LI      0.195000
     19 H2          1.1330   -2.4260    0.5300 ha        1 5LI      0.180000
     20 H3         -1.7440    0.5510    1.7960 ha        1 5LI      0.201000
     21 H7          8.3020   -1.1760   -2.4280 hx        1 5LI      0.168200
     22 H9          5.9220   -0.2540    0.8050 hx        1 5LI      0.139700
     23 H9A         5.6510   -1.4190   -0.5780 hx        1 5LI      0.139700
     24 H10         6.2200    1.6310   -1.0440 hx        1 5LI      0.126200
     25 H10A        6.3210    0.2590   -2.2690 hx        1 5LI      0.126200
     26 HN11        4.0120    1.0150    0.1140 hn        1 5LI      0.469800
     27 HO15        8.9820    0.2690    0.7220 ho        1 5LI      0.501000
     28 H112        3.8040    0.0790   -1.2730 hn        1 5LI      0.469800
     29 H121        8.4370    1.1260   -1.4310 hn        1 5LI      0.490800
@<TRIPOS>BOND
     1    1    2 ar  
     2    1    3 ar  
     3    1   18 1   
     4    2    4 ar  
     5    2   19 1   
     6    3    5 ar  
     7    3   20 1   
     8    4    6 ar  
     9    4    8 1   
    10    5    6 ar  
    11    5   16 1   
    12    6   17 1   
    13    7   12 1   
    14    7   13 2   
    15    7   21 1   
    16    8   11 1   
    17    8   14 2   
    18    9   10 1   
    19    9   11 1   
    20    9   22 1   
    21    9   23 1   
    22   10   12 1   
    23   10   24 1   
    24   10   25 1   
    25   11   26 1   
    26   11   28 1   
    27   12   15 1   
    28   12   29 1   
    29   15   27 1   
@<TRIPOS>SUBSTRUCTURE
     1 5LI         1 TEMP              0 ****  ****    0 ROOT
