@<TRIPOS>MOLECULE
5LK
   56    60     1     0     0
SMALL
bcc


@<TRIPOS>ATOM
      1 N1          1.9540    1.2700   -0.5580 na        1 5LK      0.025400
      2 N2          1.1970    1.5770   -1.6130 nc        1 5LK     -0.496800
      3 C3         -0.0020    0.9710   -1.4330 cd        1 5LK      0.298200
      4 C5         -0.0480    0.2670   -0.1630 cd        1 5LK     -0.144300
      5 C6          1.2270    0.5010    0.4050 cc        1 5LK      0.075100
      6 N7          1.7710    0.1110    1.6340 ne        1 5LK     -0.512100
      7 C8          3.0050    0.4180    1.8660 c2        1 5LK      0.421200
      8 C10         3.9550    1.1460    0.9520 c3        1 5LK     -0.105700
      9 C11         3.2410    1.9320   -0.2110 c3        1 5LK      0.303200
     10 N12         3.1470    3.3410    0.0980 n3        1 5LK     -0.926800
     11 C15         4.9520    0.1940    0.3750 ca        1 5LK     -0.134300
     12 C16         6.3210    0.4700    0.5010 ca        1 5LK     -0.077000
     13 C18         7.2740   -0.3960   -0.0230 ca        1 5LK     -0.186000
     14 C20         6.8480   -1.5590   -0.6860 ca        1 5LK      0.135100
     15 C21         5.4820   -1.8480   -0.8200 ca        1 5LK     -0.186000
     16 C23         4.5440   -0.9690   -0.2880 ca        1 5LK     -0.077000
     17 O25         7.8330   -2.3780   -1.1820 oh        1 5LK     -0.494100
     18 C27        -1.1660   -0.4790    0.3530 ca        1 5LK      0.017000
     19 C28        -2.4650   -0.1000   -0.0130 ca        1 5LK     -0.146000
     20 C30        -3.5920   -0.8050    0.4640 ca        1 5LK      0.129600
     21 C31        -3.3770   -1.9070    1.3190 ca        1 5LK     -0.175000
     22 C33        -2.0840   -2.2840    1.6690 ca        1 5LK     -0.112000
     23 C35        -0.9790   -1.5820    1.1980 ca        1 5LK     -0.129000
     24 N37        -4.8840   -0.4310    0.0040 nh        1 5LK     -0.635000
     25 C38        -5.9630   -1.3580    0.3020 c3        1 5LK      0.183800
     26 C41        -7.2800   -0.9630   -0.3970 c3        1 5LK      0.165300
     27 N44        -7.6600    0.4210   -0.1500 n3        1 5LK     -0.732600
     28 C45        -6.5730    1.3490   -0.4260 c3        1 5LK      0.165300
     29 C48        -5.2530    0.9530    0.2670 c3        1 5LK      0.183800
     30 C51        -8.8830    0.7860   -0.8270 c3        1 5LK      0.157100
     31 H3         -0.7930    1.0200   -2.1830 h4        1 5LK      0.048100
     32 H8          3.4260    0.0990    2.8400 h4        1 5LK      0.037800
     33 H10         4.5060    1.9050    1.5830 hc        1 5LK      0.097700
     34 HN12        2.8200    3.8770   -0.6810 hn        1 5LK      0.374800
     35 H16         6.6520    1.3850    1.0180 ha        1 5LK      0.143000
     36 H18         8.3480   -0.1860    0.0700 ha        1 5LK      0.147000
     37 H21         5.1550   -2.7590   -1.3410 ha        1 5LK      0.147000
     38 H23         3.4700   -1.1930   -0.3950 ha        1 5LK      0.143000
     39 HO25        7.4070   -3.1320   -1.6160 ho        1 5LK      0.422000
     40 H28        -2.5940    0.7600   -0.6890 ha        1 5LK      0.136000
     41 H31        -4.2220   -2.4840    1.7220 ha        1 5LK      0.132000
     42 H33        -1.9350   -3.1480    2.3340 ha        1 5LK      0.130000
     43 H35         0.0350   -1.8940    1.4880 ha        1 5LK      0.146000
     44 H38        -5.6660   -2.3770   -0.0760 h1        1 5LK      0.043950
     45 H38A       -6.1550   -1.4330    1.4120 h1        1 5LK      0.043950
     46 H41        -7.1830   -1.1800   -1.5010 h1        1 5LK      0.038200
     47 H41A       -8.0940   -1.6210    0.0150 h1        1 5LK      0.038200
     48 H45        -6.3830    1.4520   -1.5340 h1        1 5LK      0.038200
     49 H45A       -6.8760    2.3580   -0.0300 h1        1 5LK      0.038200
     50 H48        -5.3540    1.1450    1.3740 h1        1 5LK      0.043950
     51 H48A       -4.4440    1.6260   -0.1300 h1        1 5LK      0.043950
     52 H51        -9.6970    0.0860   -0.5040 h1        1 5LK      0.032367
     53 H51A       -9.1640    1.8300   -0.5270 h1        1 5LK      0.032367
     54 H51B       -8.8030    0.7470   -1.9490 h1        1 5LK      0.032367
     55 H25         3.8930    1.8450   -1.1400 h2        1 5LK      0.103700
     56 H26         2.5950    3.5310    0.9090 hn        1 5LK      0.374800
@<TRIPOS>BOND
     1    1    2 1   
     2    1    5 1   
     3    1    9 1   
     4    2    3 2   
     5    3    4 1   
     6    3   31 1   
     7    4    5 2   
     8    4   18 1   
     9    5    6 1   
    10    6    7 2   
    11    7    8 1   
    12    7   32 1   
    13    8    9 1   
    14    8   11 1   
    15    8   33 1   
    16    9   10 1   
    17    9   55 1   
    18   10   34 1   
    19   10   56 1   
    20   11   12 ar  
    21   11   16 ar  
    22   12   13 ar  
    23   12   35 1   
    24   13   14 ar  
    25   13   36 1   
    26   14   15 ar  
    27   14   17 1   
    28   15   16 ar  
    29   15   37 1   
    30   16   38 1   
    31   17   39 1   
    32   18   19 ar  
    33   18   23 ar  
    34   19   20 ar  
    35   19   40 1   
    36   20   21 ar  
    37   20   24 1   
    38   21   22 ar  
    39   21   41 1   
    40   22   23 ar  
    41   22   42 1   
    42   23   43 1   
    43   24   25 1   
    44   24   29 1   
    45   25   26 1   
    46   25   44 1   
    47   25   45 1   
    48   26   27 1   
    49   26   46 1   
    50   26   47 1   
    51   27   28 1   
    52   27   30 1   
    53   28   29 1   
    54   28   48 1   
    55   28   49 1   
    56   29   50 1   
    57   29   51 1   
    58   30   52 1   
    59   30   53 1   
    60   30   54 1   
@<TRIPOS>SUBSTRUCTURE
     1 5LK         1 TEMP              0 ****  ****    0 ROOT
