@<TRIPOS>MOLECULE
5LK
   57    61     1     0     0
SMALL
bcc


@<TRIPOS>ATOM
      1 N1          0.0430    0.2980    0.4150 na        1 5LK     -0.010600
      2 N2          1.2770   -0.2630    0.4600 nc        1 5LK     -0.508800
      3 C3          1.5620   -0.4590    1.7560 cd        1 5LK      0.363200
      4 C5          0.4400   -0.0710    2.6270 cd        1 5LK     -0.062300
      5 C6         -0.5510    0.3750    1.7400 cc        1 5LK      0.076100
      6 N7         -1.8430    0.8590    1.9420 ne        1 5LK     -0.475100
      7 C8         -2.5280    1.2230    0.9080 c2        1 5LK      0.418200
      8 C10        -2.0970    1.1970   -0.5370 c3        1 5LK     -0.101700
      9 C11        -0.7360    0.4480   -0.7750 c3        1 5LK      0.285200
     10 N12        -1.0050   -0.9220   -1.4600 nz        1 5LK     -0.893600
     11 C15        -1.9700    2.5840   -1.0750 ca        1 5LK     -0.193300
     12 C16        -2.8260    3.0110   -2.0970 ca        1 5LK     -0.070500
     13 C18        -2.7360    4.3050   -2.5990 ca        1 5LK     -0.180500
     14 C20        -1.7770    5.1840   -2.0690 ca        1 5LK      0.170100
     15 C21        -0.9130    4.7660   -1.0370 ca        1 5LK     -0.180500
     16 C23        -1.0200    3.4730   -0.5480 ca        1 5LK     -0.070500
     17 O25        -1.6190    6.4690   -2.5080 oh        1 5LK     -0.472100
     18 C27         0.4330   -0.1590    4.0630 ca        1 5LK     -0.034000
     19 C28         1.2290   -1.1290    4.6890 ca        1 5LK     -0.144000
     20 C30         1.2650   -1.2460    6.0960 ca        1 5LK      0.149600
     21 C31         0.4710   -0.3500    6.8540 ca        1 5LK     -0.151000
     22 C33        -0.3060    0.6140    6.2250 ca        1 5LK     -0.104000
     23 C35        -0.3380    0.7200    4.8370 ca        1 5LK     -0.118000
     24 N37         2.1470   -2.1740    6.6960 nh        1 5LK     -0.639000
     25 C38         2.3150   -2.0710    8.1370 c3        1 5LK      0.185800
     26 C41         3.4390   -2.9840    8.6670 c3        1 5LK      0.165300
     27 N44         3.3000   -4.3630    8.2220 n3        1 5LK     -0.732600
     28 C45         3.1550   -4.4540    6.7770 c3        1 5LK      0.165300
     29 C48         2.0310   -3.5500    6.2330 c3        1 5LK      0.185800
     30 C51         4.3450   -5.2210    8.7330 c3        1 5LK      0.155100
     31 H3          2.5320   -0.8440    2.0910 h4        1 5LK      0.078100
     32 H8         -3.5470    1.6240    1.0900 h4        1 5LK      0.069800
     33 H10        -2.9170    0.6640   -1.1050 hc        1 5LK      0.079700
     34 HN12       -1.5220   -0.7580   -2.3250 hn        1 5LK      0.455800
     35 H16        -3.5890    2.3310   -2.5070 ha        1 5LK      0.140000
     36 H18        -3.4140    4.6390   -3.3990 ha        1 5LK      0.164500
     37 H21        -0.1740    5.4730   -0.6310 ha        1 5LK      0.164500
     38 H23        -0.3550    3.1490    0.2690 ha        1 5LK      0.140000
     39 HO25       -2.2840    6.6490   -3.1920 ho        1 5LK      0.437000
     40 H28         1.8380   -1.8010    4.0640 ha        1 5LK      0.132000
     41 H31         0.4580   -0.4040    7.9540 ha        1 5LK      0.148000
     42 H33        -0.9100    1.3040    6.8350 ha        1 5LK      0.145000
     43 H35        -0.9570    1.4930    4.3610 ha        1 5LK      0.147000
     44 H38         1.3590   -2.3240    8.6810 h1        1 5LK      0.044450
     45 H38A        2.5960   -1.0080    8.3830 h1        1 5LK      0.044450
     46 H41         4.4350   -2.5440    8.3680 h1        1 5LK      0.043450
     47 H41A        3.3780   -2.9770    9.7910 h1        1 5LK      0.043450
     48 H45         2.8880   -5.5180    6.5240 h1        1 5LK      0.043450
     49 H45A        4.1160   -4.2000    6.2410 h1        1 5LK      0.043450
     50 H48         2.0990   -3.5660    5.1110 h1        1 5LK      0.044450
     51 H48A        1.0350   -3.9910    6.5300 h1        1 5LK      0.044450
     52 H51         4.1260   -6.2770    8.4250 h1        1 5LK      0.038033
     53 H51A        5.3700   -4.9440    8.3620 h1        1 5LK      0.038033
     54 H51B        4.3420   -5.1630    9.8530 h1        1 5LK      0.038033
     55 H25        -0.1240    1.0140   -1.5550 hx        1 5LK      0.141700
     56 H26        -0.1160   -1.3830   -1.6800 hn        1 5LK      0.455800
     57 H123       -1.5520   -1.5370   -0.8540 hn        1 5LK      0.455800
@<TRIPOS>BOND
     1    1    2 1   
     2    1    5 1   
     3    1    9 1   
     4    2    3 2   
     5    3    4 1   
     6    3   31 1   
     7    4    5 2   
     8    4   18 1   
     9    5    6 1   
    10    6    7 2   
    11    7    8 1   
    12    7   32 1   
    13    8    9 1   
    14    8   11 1   
    15    8   33 1   
    16    9   10 1   
    17    9   55 1   
    18   10   34 1   
    19   10   56 1   
    20   10   57 1   
    21   11   12 ar  
    22   11   16 ar  
    23   12   13 ar  
    24   12   35 1   
    25   13   14 ar  
    26   13   36 1   
    27   14   15 ar  
    28   14   17 1   
    29   15   16 ar  
    30   15   37 1   
    31   16   38 1   
    32   17   39 1   
    33   18   19 ar  
    34   18   23 ar  
    35   19   20 ar  
    36   19   40 1   
    37   20   21 ar  
    38   20   24 1   
    39   21   22 ar  
    40   21   41 1   
    41   22   23 ar  
    42   22   42 1   
    43   23   43 1   
    44   24   25 1   
    45   24   29 1   
    46   25   26 1   
    47   25   44 1   
    48   25   45 1   
    49   26   27 1   
    50   26   46 1   
    51   26   47 1   
    52   27   28 1   
    53   27   30 1   
    54   28   29 1   
    55   28   48 1   
    56   28   49 1   
    57   29   50 1   
    58   29   51 1   
    59   30   52 1   
    60   30   53 1   
    61   30   54 1   
@<TRIPOS>SUBSTRUCTURE
     1 5LK         1 TEMP              0 ****  ****    0 ROOT
