@<TRIPOS>MOLECULE
5LK
   56    51     1     0     0
SMALL
bcc


@<TRIPOS>ATOM
      1 N1          0.1610    0.0940   -3.2470 n2        1 5LK     -0.132000
      2 N2          1.5320   -0.0640   -3.2370 n2        1 5LK     -0.132000
      3 C3          1.9410   -0.1260   -1.9460 c1        1 5LK     -0.100000
      4 C5          0.8350   -0.0080   -1.1450 c2        1 5LK     -0.078000
      5 C6         -0.2680    0.1290   -1.9630 c1        1 5LK     -0.100000
      6 N7         -1.7030   -0.0520   -1.6580 n1        1 5LK     -0.084000
      7 C8         -2.6750    0.2420   -2.6370 c1        1 5LK     -0.075000
      8 C10        -2.2450    0.7100   -4.0090 c3        1 5LK     -0.077000
      9 C11        -0.7590    0.4310   -4.3410 c2        1 5LK      0.135000
     10 N12        -0.7290   -0.6700   -5.2900 n3        1 5LK     -0.339000
     11 C15        -2.6060    2.2560   -4.1920 c2        1 5LK     -0.116000
     12 C16        -2.3300    2.8950   -5.3860 c2        1 5LK     -0.075500
     13 C18        -2.6880    4.2220   -5.5610 c1        1 5LK     -0.186000
     14 C20        -3.3190    4.9080   -4.5450 c2        1 5LK      0.089000
     15 C21        -3.5980    4.2690   -3.3440 c1        1 5LK     -0.186000
     16 C23        -3.2400    2.9430   -3.1690 c2        1 5LK     -0.075500
     17 O25        -3.5990    6.2580   -4.6930 oh        1 5LK     -0.248000
     18 C27         0.8420    0.0960    0.2500 c1        1 5LK     -0.002000
     19 C28         1.1610   -1.0210    1.0350 c1        1 5LK     -0.099000
     20 C30         1.2420   -0.8950    2.4190 c1        1 5LK     -0.001000
     21 C31         1.0090    0.3290    3.0140 c1        1 5LK     -0.152000
     22 C33         0.6920    1.4370    2.2300 c1        1 5LK     -0.130000
     23 C35         0.6110    1.3140    0.8480 c2        1 5LK     -0.107000
     24 N37         1.6830   -2.0220    3.2300 n3        1 5LK     -0.222000
     25 C38         2.8430   -1.6570    3.9350 c3        1 5LK     -0.066000
     26 C41         3.2740   -2.7150    4.9210 c3        1 5LK     -0.070000
     27 N44         2.1930   -3.1260    5.7990 n3        1 5LK     -0.259000
     28 C45         1.0320   -3.4910    5.0950 c3        1 5LK     -0.070000
     29 C48         0.6010   -2.4320    4.1090 c3        1 5LK     -0.066000
     30 C51         2.6250   -4.2240    6.6060 c3        1 5LK     -0.119000
     31 H3          2.8660   -0.1300   -1.6420 DU        1 5LK      0.155800
     32 H8         -3.6330    0.2390   -2.3950 DU        1 5LK      0.155800
     33 H10        -2.8140    0.3070   -4.6990 hc        1 5LK      0.126000
     34 HN12       -1.3210   -0.5100   -5.9500 hn        1 5LK      0.172000
     35 H16        -1.8810    2.4100   -6.1090 ha        1 5LK      0.139500
     36 H18        -2.4910    4.6760   -6.4120 DU        1 5LK      0.155800
     37 H21        -4.0500    4.7600   -2.6160 DU        1 5LK      0.155800
     38 H23        -3.4410    2.4790   -2.3010 ha        1 5LK      0.139500
     39 HO25       -4.4450    6.3840   -4.6220 ho        1 5LK      0.220000
     40 H28         1.3260   -1.8840    0.6130 ha        1 5LK      0.145000
     41 H31         1.0670    0.4230    4.0240 ha        1 5LK      0.134000
     42 H33         0.5290    2.2940    2.6500 DU        1 5LK      0.155800
     43 H35         0.3950    2.0710    0.3160 ha        1 5LK      0.149000
     44 H38         2.6710   -0.8400    4.4130 h1        1 5LK      0.081250
     45 H38A        3.6000   -1.4970    3.2680 h1        1 5LK      0.081250
     46 H41         3.5880   -3.4780    4.4390 h1        1 5LK      0.076500
     47 H41A        3.9750   -2.3760    5.4420 h1        1 5LK      0.076500
     48 H45         1.1970   -4.2910    4.6290 h1        1 5LK      0.076500
     49 H45A        0.3040   -3.6420    5.7390 h1        1 5LK      0.076500
     50 H48         0.2790   -1.6470    4.6060 h1        1 5LK      0.081250
     51 H48A       -0.1350   -2.7870    3.5630 h1        1 5LK      0.081250
     52 H51         1.9630   -4.4090    7.2790 h1        1 5LK      0.071000
     53 H51A        3.4780   -3.9970    7.0400 h1        1 5LK      0.071000
     54 H51B        2.7500   -5.0390    6.0260 h1        1 5LK      0.071000
     55 H25        -0.4130    1.2010   -4.7810 h4        1 5LK      0.125000
     56 H26         0.1160   -0.7440   -5.6490 hn        1 5LK      0.172000
@<TRIPOS>BOND
     1    1    2 1   
     2    1    5 1   
     3    2    3 1   
     4    3    4 1   
     5    4    5 1   
     6    4   18 1   
     7    6    7 1   
     8    7    8 1   
     9    8    9 1   
    10    8   11 1   
    11    8   33 1   
    12    9   10 1   
    13    9   55 1   
    14   10   34 1   
    15   10   56 1   
    16   11   12 1   
    17   11   16 1   
    18   12   13 1   
    19   12   35 1   
    20   13   14 1   
    21   14   15 1   
    22   14   17 1   
    23   15   16 1   
    24   16   38 1   
    25   17   39 1   
    26   18   23 1   
    27   19   20 1   
    28   19   40 1   
    29   20   24 1   
    30   21   22 1   
    31   21   41 1   
    32   22   23 1   
    33   23   43 1   
    34   24   25 1   
    35   24   29 1   
    36   25   26 1   
    37   25   44 1   
    38   25   45 1   
    39   26   27 1   
    40   26   46 1   
    41   26   47 1   
    42   27   28 1   
    43   27   30 1   
    44   28   29 1   
    45   28   48 1   
    46   28   49 1   
    47   29   50 1   
    48   29   51 1   
    49   30   52 1   
    50   30   53 1   
    51   30   54 1   
@<TRIPOS>SUBSTRUCTURE
     1 5LK         1 TEMP              0 ****  ****    0 ROOT
