@<TRIPOS>MOLECULE
5LK
   57    61     1     0     0
SMALL
bcc


@<TRIPOS>ATOM
      1 N1          0.0060    0.3210    0.4410 na        1 5LK     -0.010600
      2 N2          1.2440   -0.2300    0.4760 nc        1 5LK     -0.508800
      3 C3          1.5360   -0.4350    1.7690 cd        1 5LK      0.363200
      4 C5          0.4150   -0.0640    2.6480 cd        1 5LK     -0.061300
      5 C6         -0.5840    0.3810    1.7690 cc        1 5LK      0.076100
      6 N7         -1.8790    0.8520    1.9800 ne        1 5LK     -0.475100
      7 C8         -2.5710    1.2200    0.9540 c2        1 5LK      0.418200
      8 C10        -2.1460    1.2110   -0.4940 c3        1 5LK     -0.101700
      9 C11        -0.7800    0.4740   -0.7440 c3        1 5LK      0.285200
     10 N12        -1.0420   -0.8930   -1.4380 n4        1 5LK     -0.893600
     11 C15        -2.0300    2.6040   -1.0190 ca        1 5LK     -0.193300
     12 C16        -2.8910    3.0350   -2.0350 ca        1 5LK     -0.070500
     13 C18        -2.8120    4.3340   -2.5250 ca        1 5LK     -0.180500
     14 C20        -1.8590    5.2150   -1.9880 ca        1 5LK      0.170100
     15 C21        -0.9910    4.7940   -0.9610 ca        1 5LK     -0.180500
     16 C23        -1.0870    3.4950   -0.4850 ca        1 5LK     -0.070500
     17 O25        -1.7120    6.5050   -2.4150 oh        1 5LK     -0.472100
     18 C27         0.4150   -0.1650    4.0830 ca        1 5LK     -0.034000
     19 C28         1.2220   -1.1330    4.6970 ca        1 5LK     -0.144000
     20 C30         1.2650   -1.2620    6.1030 ca        1 5LK      0.149600
     21 C31         0.4670   -0.3810    6.8730 ca        1 5LK     -0.151000
     22 C33        -0.3220    0.5820    6.2550 ca        1 5LK     -0.104000
     23 C35        -0.3600    0.7000    4.8680 ca        1 5LK     -0.118000
     24 N37         2.1580   -2.1880    6.6910 nh        1 5LK     -0.639000
     25 C38         2.3310   -2.0950    8.1320 c3        1 5LK      0.185800
     26 C41         3.4660   -3.0030    8.6490 c3        1 5LK      0.165300
     27 N44         3.3390   -4.3780    8.1930 n3        1 5LK     -0.732600
     28 C45         3.1880   -4.4590    6.7480 c3        1 5LK      0.165300
     29 C48         2.0530   -3.5600    6.2170 c3        1 5LK      0.185800
     30 C51         4.3940   -5.2310    8.6910 c3        1 5LK      0.155100
     31 H3          2.5110   -0.8140    2.0970 h4        1 5LK      0.078100
     32 H8         -3.5930    1.6100    1.1430 h4        1 5LK      0.069800
     33 H10        -2.9640    0.6780   -1.0640 hc        1 5LK      0.079700
     34 HN12       -0.1510   -1.3450   -1.6660 hn        1 5LK      0.455467
     35 H16        -3.6490    2.3520   -2.4510 ha        1 5LK      0.140000
     36 H18        -3.4940    4.6700   -3.3210 ha        1 5LK      0.164500
     37 H21        -0.2560    5.5030   -0.5500 ha        1 5LK      0.164500
     38 H23        -0.4180    3.1690    0.3280 ha        1 5LK      0.140000
     39 HO25       -2.3780    6.6870   -3.0960 ho        1 5LK      0.437000
     40 H28         1.8350   -1.7940    4.0640 ha        1 5LK      0.132000
     41 H31         0.4580   -0.4440    7.9720 ha        1 5LK      0.148000
     42 H33        -0.9300    1.2610    6.8740 ha        1 5LK      0.145000
     43 H35        -0.9890    1.4720    4.4020 ha        1 5LK      0.147000
     44 H38         2.6030   -1.0320    8.3870 h1        1 5LK      0.044450
     45 H38A        1.3800   -2.3620    8.6790 h1        1 5LK      0.044450
     46 H41         3.4110   -3.0050    9.7740 h1        1 5LK      0.043450
     47 H41A        4.4570   -2.5510    8.3500 h1        1 5LK      0.043450
     48 H45         2.9290   -5.5230    6.4860 h1        1 5LK      0.043450
     49 H45A        4.1440   -4.1910    6.2100 h1        1 5LK      0.043450
     50 H48         2.1160   -3.5650    5.0940 h1        1 5LK      0.044450
     51 H48A        1.0630   -4.0130    6.5140 h1        1 5LK      0.044450
     52 H51         4.3950   -5.1830    9.8120 h1        1 5LK      0.038033
     53 H51A        5.4150   -4.9410    8.3180 h1        1 5LK      0.038033
     54 H51B        4.1830   -6.2860    8.3760 h1        1 5LK      0.038033
     55 H25        -0.1760    1.0510   -1.5220 hx        1 5LK      0.141700
     56 H26        -1.5640   -0.7260   -2.3000 hn        1 5LK      0.455467
     57 H123       -1.5820   -1.5160   -0.8340 hn        1 5LK      0.455467
@<TRIPOS>BOND
     1    1    2 1   
     2    1    5 1   
     3    1    9 1   
     4    2    3 2   
     5    3    4 1   
     6    3   31 1   
     7    4    5 2   
     8    4   18 1   
     9    5    6 1   
    10    6    7 2   
    11    7    8 1   
    12    7   32 1   
    13    8    9 1   
    14    8   11 1   
    15    8   33 1   
    16    9   10 1   
    17    9   55 1   
    18   10   34 1   
    19   10   56 1   
    20   10   57 1   
    21   11   12 ar  
    22   11   16 ar  
    23   12   13 ar  
    24   12   35 1   
    25   13   14 ar  
    26   13   36 1   
    27   14   15 ar  
    28   14   17 1   
    29   15   16 ar  
    30   15   37 1   
    31   16   38 1   
    32   17   39 1   
    33   18   19 ar  
    34   18   23 ar  
    35   19   20 ar  
    36   19   40 1   
    37   20   21 ar  
    38   20   24 1   
    39   21   22 ar  
    40   21   41 1   
    41   22   23 ar  
    42   22   42 1   
    43   23   43 1   
    44   24   25 1   
    45   24   29 1   
    46   25   26 1   
    47   25   44 1   
    48   25   45 1   
    49   26   27 1   
    50   26   46 1   
    51   26   47 1   
    52   27   28 1   
    53   27   30 1   
    54   28   29 1   
    55   28   48 1   
    56   28   49 1   
    57   29   50 1   
    58   29   51 1   
    59   30   52 1   
    60   30   53 1   
    61   30   54 1   
@<TRIPOS>SUBSTRUCTURE
     1 5LK         1 TEMP              0 ****  ****    0 ROOT
