@<TRIPOS>MOLECULE
5LK
   57    61     1     0     0
SMALL
bcc


@<TRIPOS>ATOM
      1 N1         -0.0260    0.2700    0.3910 na        1 5LK     -0.006600
      2 N2          1.1990   -0.3090    0.4240 nc        1 5LK     -0.507800
      3 C3          1.5020   -0.4930    1.7170 cd        1 5LK      0.362200
      4 C5          0.3980   -0.0830    2.6010 cd        1 5LK     -0.061300
      5 C6         -0.6010    0.3650    1.7240 cc        1 5LK      0.072100
      6 N7         -1.8870    0.8620    1.9400 ne        1 5LK     -0.477100
      7 C8         -2.5820    1.2240    0.9140 c2        1 5LK      0.416200
      8 C10        -2.1670    1.1880   -0.5360 c3        1 5LK     -0.100700
      9 C11        -0.8330    0.3940   -0.7840 c3        1 5LK      0.282200
     10 N12        -1.1570   -0.9930   -1.4090 n4        1 5LK     -0.894600
     11 C15        -1.9940    2.5690   -1.0750 ca        1 5LK     -0.194300
     12 C16        -2.7580    2.9820   -2.1770 ca        1 5LK     -0.069000
     13 C18        -2.6270    4.2650   -2.6890 ca        1 5LK     -0.181000
     14 C20        -1.7180    5.1560   -2.0850 ca        1 5LK      0.171100
     15 C21        -0.9530    4.7550   -0.9780 ca        1 5LK     -0.181000
     16 C23        -1.0990    3.4660   -0.4780 ca        1 5LK     -0.069000
     17 O25        -1.6340    6.4020   -2.6400 oh        1 5LK     -0.473100
     18 C27         0.4130   -0.1550    4.0380 ca        1 5LK     -0.034000
     19 C28         1.2130   -1.1230    4.6620 ca        1 5LK     -0.144000
     20 C30         1.2700   -1.2260    6.0700 ca        1 5LK      0.150600
     21 C31         0.4920   -0.3190    6.8300 ca        1 5LK     -0.151000
     22 C33        -0.2900    0.6430    6.2030 ca        1 5LK     -0.104000
     23 C35        -0.3420    0.7350    4.8140 ca        1 5LK     -0.119000
     24 N37         2.1560   -2.1520    6.6660 nh        1 5LK     -0.639000
     25 C38         2.3440   -2.0360    8.1030 c3        1 5LK      0.185800
     26 C41         3.4710   -2.9490    8.6270 c3        1 5LK      0.165300
     27 N44         3.3210   -4.3310    8.1960 n3        1 5LK     -0.732600
     28 C45         3.1570   -4.4360    6.7550 c3        1 5LK      0.165300
     29 C48         2.0290   -3.5320    6.2170 c3        1 5LK      0.185800
     30 C51         4.3690   -5.1890    8.7010 c3        1 5LK      0.155100
     31 H3          2.4730   -0.8840    2.0420 h4        1 5LK      0.078100
     32 H8         -3.5950    1.6340    1.1050 h4        1 5LK      0.070800
     33 H10        -3.0070    0.6850   -1.1010 hc        1 5LK      0.080700
     34 HN12       -0.2870   -1.4870   -1.6330 hn        1 5LK      0.456133
     35 H16        -3.4800    2.2930   -2.6410 ha        1 5LK      0.140000
     36 H18        -3.2230    4.6020   -3.5510 ha        1 5LK      0.164500
     37 H21        -0.2490    5.4570   -0.5050 ha        1 5LK      0.164500
     38 H23        -0.5050    3.1550    0.3970 ha        1 5LK      0.140000
     39 HO25       -1.0010    6.9300   -2.1270 ho        1 5LK      0.438000
     40 H28         1.8090   -1.8040    4.0350 ha        1 5LK      0.132000
     41 H31         0.4940   -0.3610    7.9310 ha        1 5LK      0.148000
     42 H33        -0.8820    1.3420    6.8150 ha        1 5LK      0.145000
     43 H35        -0.9650    1.5060    4.3400 ha        1 5LK      0.147000
     44 H38         2.6330   -0.9730    8.3360 h1        1 5LK      0.044700
     45 H38A        1.3950   -2.2800    8.6630 h1        1 5LK      0.044700
     46 H41         4.4650   -2.5170    8.3100 h1        1 5LK      0.043700
     47 H41A        3.4270   -2.9310    9.7510 h1        1 5LK      0.043700
     48 H45         2.8810   -5.5010    6.5140 h1        1 5LK      0.043700
     49 H45A        4.1110   -4.1900    6.2040 h1        1 5LK      0.043700
     50 H48         2.0810   -3.5580    5.0940 h1        1 5LK      0.044700
     51 H48A        1.0350   -3.9660    6.5310 h1        1 5LK      0.044700
     52 H51         4.1410   -6.2470    8.4060 h1        1 5LK      0.038033
     53 H51A        5.3900   -4.9210    8.3140 h1        1 5LK      0.038033
     54 H51B        4.3810   -5.1210    9.8200 h1        1 5LK      0.038033
     55 H25        -0.2290    0.9140   -1.6010 hx        1 5LK      0.141700
     56 H26        -1.6910   -0.8480   -2.2670 hn        1 5LK      0.456133
     57 H123       -1.7050   -1.5680   -0.7660 hn        1 5LK      0.456133
@<TRIPOS>BOND
     1    1    2 1   
     2    1    5 1   
     3    1    9 1   
     4    2    3 2   
     5    3    4 1   
     6    3   31 1   
     7    4    5 2   
     8    4   18 1   
     9    5    6 1   
    10    6    7 2   
    11    7    8 1   
    12    7   32 1   
    13    8    9 1   
    14    8   11 1   
    15    8   33 1   
    16    9   10 1   
    17    9   55 1   
    18   10   34 1   
    19   10   56 1   
    20   10   57 1   
    21   11   12 ar  
    22   11   16 ar  
    23   12   13 ar  
    24   12   35 1   
    25   13   14 ar  
    26   13   36 1   
    27   14   15 ar  
    28   14   17 1   
    29   15   16 ar  
    30   15   37 1   
    31   16   38 1   
    32   17   39 1   
    33   18   19 ar  
    34   18   23 ar  
    35   19   20 ar  
    36   19   40 1   
    37   20   21 ar  
    38   20   24 1   
    39   21   22 ar  
    40   21   41 1   
    41   22   23 ar  
    42   22   42 1   
    43   23   43 1   
    44   24   25 1   
    45   24   29 1   
    46   25   26 1   
    47   25   44 1   
    48   25   45 1   
    49   26   27 1   
    50   26   46 1   
    51   26   47 1   
    52   27   28 1   
    53   27   30 1   
    54   28   29 1   
    55   28   48 1   
    56   28   49 1   
    57   29   50 1   
    58   29   51 1   
    59   30   52 1   
    60   30   53 1   
    61   30   54 1   
@<TRIPOS>SUBSTRUCTURE
     1 5LK         1 TEMP              0 ****  ****    0 ROOT
