@<TRIPOS>MOLECULE
5M0
   20    20     1     0     0
SMALL
bcc


@<TRIPOS>ATOM
      1 OAC         0.0380    0.6460    0.0180 oh        1 5M0     -0.590100
      2 CAH         1.1520   -0.1390   -0.1220 c         1 5M0      0.641700
      3 OAD         1.4040   -0.8070    0.8810 o         1 5M0     -0.487000
      4 CAK         1.9000   -0.1130   -1.3910 ca        1 5M0     -0.241600
      5 CAG         3.2800    0.1100   -1.3400 ca        1 5M0     -0.041000
      6 CAI         4.0450    0.1460   -2.5040 ca        1 5M0     -0.125300
      7 CAA         5.5050    0.3830   -2.4500 c3        1 5M0     -0.048800
      8 CAE         3.4090   -0.0610   -3.7370 ca        1 5M0     -0.066000
      9 CAF         2.0480   -0.3060   -3.8090 ca        1 5M0     -0.197000
     10 CAJ         1.2550   -0.3360   -2.6340 ca        1 5M0      0.177600
     11 NAB        -0.1250   -0.5100   -2.7140 nh        1 5M0     -0.837200
     12 H2          3.7580    0.2520   -0.3570 ha        1 5M0      0.150000
     13 H3          5.8240    0.7240   -1.4350 hc        1 5M0      0.045700
     14 H4          5.8040    1.1630   -3.1940 hc        1 5M0      0.045700
     15 H5          6.0580   -0.5600   -2.6930 hc        1 5M0      0.045700
     16 H6          4.0060   -0.0350   -4.6630 ha        1 5M0      0.137000
     17 H7          1.5780   -0.4740   -4.7900 ha        1 5M0      0.138000
     18 H8         -0.4500   -0.9260   -3.5570 hn        1 5M0      0.406800
     19 H9         -0.0450    1.2460   -0.7360 ho        1 5M0      0.438000
     20 HAB3       -0.5610   -0.8660   -1.8910 hn        1 5M0      0.406800
@<TRIPOS>BOND
     1    1    2 1   
     2    1   19 1   
     3    2    3 2   
     4    2    4 1   
     5    4    5 ar  
     6    4   10 ar  
     7    5    6 ar  
     8    5   12 1   
     9    6    7 1   
    10    6    8 ar  
    11    7   13 1   
    12    7   14 1   
    13    7   15 1   
    14    8    9 ar  
    15    8   16 1   
    16    9   10 ar  
    17    9   17 1   
    18   10   11 1   
    19   11   18 1   
    20   11   20 1   
@<TRIPOS>SUBSTRUCTURE
     1 5M0         1 TEMP              0 ****  ****    0 ROOT
