@<TRIPOS>MOLECULE
5M0
   19    19     1     0     0
SMALL
bcc


@<TRIPOS>ATOM
      1 OAC         0.0240    0.3710    0.1170 o         1 5M0     -0.838300
      2 CAH         1.2280   -0.0230    0.0670 c         1 5M0      0.913200
      3 OAD         1.8910   -0.3480    1.0910 o         1 5M0     -0.838300
      4 CAK         1.9310   -0.0740   -1.2810 ca        1 5M0     -0.171600
      5 CAG         3.3130    0.0890   -1.2970 ca        1 5M0     -0.075000
      6 CAI         4.0390    0.1300   -2.4940 ca        1 5M0     -0.157300
      7 CAA         5.5050    0.3260   -2.4780 c3        1 5M0     -0.027800
      8 CAE         3.3490    0.0010   -3.7010 ca        1 5M0     -0.120000
      9 CAF         1.9720   -0.1830   -3.7150 ca        1 5M0     -0.214000
     10 CAJ         1.2360   -0.2440   -2.5080 ca        1 5M0      0.149600
     11 NAB        -0.1340   -0.5520   -2.5500 nh        1 5M0     -0.817200
     12 H2          3.8300    0.1860   -0.3280 ha        1 5M0      0.147000
     13 H3          5.9860   -0.1570   -3.3640 hc        1 5M0      0.022700
     14 H4          5.7510    1.4180   -2.5020 hc        1 5M0      0.022700
     15 H5          5.9550   -0.1090   -1.5510 hc        1 5M0      0.022700
     16 H6          3.9000    0.0420   -4.6520 ha        1 5M0      0.099000
     17 H7          1.4550   -0.2890   -4.6790 ha        1 5M0      0.106000
     18 H8         -0.5790   -0.4400   -1.6530 hn        1 5M0      0.389300
     19 H9         -0.6110   -0.0440   -3.2640 hn        1 5M0      0.389300
@<TRIPOS>BOND
     1    1    2 1   
     2    2    3 1   
     3    2    4 1   
     4    4    5 ar  
     5    4   10 ar  
     6    5    6 ar  
     7    5   12 1   
     8    6    7 1   
     9    6    8 ar  
    10    7   13 1   
    11    7   14 1   
    12    7   15 1   
    13    8    9 ar  
    14    8   16 1   
    15    9   10 ar  
    16    9   17 1   
    17   10   11 1   
    18   11   18 1   
    19   11   19 1   
@<TRIPOS>SUBSTRUCTURE
     1 5M0         1 TEMP              0 ****  ****    0 ROOT
