@<TRIPOS>MOLECULE
5M0
   19    19     1     0     0
SMALL
bcc


@<TRIPOS>ATOM
      1 OAC         0.0250    0.3820    0.1160 o         1 5M0     -0.838300
      2 CAH         1.2290   -0.0130    0.0670 c         1 5M0      0.913200
      3 OAD         1.8920   -0.3340    1.0930 o         1 5M0     -0.838300
      4 CAK         1.9310   -0.0700   -1.2810 ca        1 5M0     -0.171600
      5 CAG         3.3140    0.0920   -1.2980 ca        1 5M0     -0.075000
      6 CAI         4.0390    0.1280   -2.4950 ca        1 5M0     -0.157300
      7 CAA         5.5050    0.3240   -2.4810 c3        1 5M0     -0.027800
      8 CAE         3.3490   -0.0060   -3.7020 ca        1 5M0     -0.120000
      9 CAF         1.9720   -0.1900   -3.7140 ca        1 5M0     -0.214000
     10 CAJ         1.2360   -0.2460   -2.5070 ca        1 5M0      0.149600
     11 NAB        -0.1340   -0.5540   -2.5470 nv        1 5M0     -0.817200
     12 H2          3.8310    0.1950   -0.3290 ha        1 5M0      0.147000
     13 H3          5.7510    1.4160   -2.5040 hc        1 5M0      0.022367
     14 H4          5.9850   -0.1580   -3.3680 hc        1 5M0      0.022367
     15 H5          5.9550   -0.1120   -1.5550 hc        1 5M0      0.022367
     16 H6          3.8990    0.0300   -4.6530 ha        1 5M0      0.099000
     17 H7          1.4540   -0.3000   -4.6780 ha        1 5M0      0.106000
     18 H8         -0.6110   -0.0490   -3.2640 hn        1 5M0      0.389300
     19 H9         -0.5790   -0.4370   -1.6510 hn        1 5M0      0.389300
@<TRIPOS>BOND
     1    1    2 1   
     2    2    3 1   
     3    2    4 1   
     4    4    5 ar  
     5    4   10 ar  
     6    5    6 ar  
     7    5   12 1   
     8    6    7 1   
     9    6    8 ar  
    10    7   13 1   
    11    7   14 1   
    12    7   15 1   
    13    8    9 ar  
    14    8   16 1   
    15    9   10 ar  
    16    9   17 1   
    17   10   11 1   
    18   11   18 1   
    19   11   19 1   
@<TRIPOS>SUBSTRUCTURE
     1 5M0         1 TEMP              0 ****  ****    0 ROOT
