@<TRIPOS>MOLECULE
5MA
   45    49     1     0     0
SMALL
bcc


@<TRIPOS>ATOM
      1 C          -0.6930   -3.1540   -1.3890 ca        1 5MA     -0.036600
      2 N           1.7840   -1.1270    1.2620 na        1 5MA      0.037900
      3 O          -2.5460   -2.2100   -0.2180 os        1 5MA     -0.219200
      4 C1          0.6890   -3.3670   -1.5550 ca        1 5MA     -0.060000
      5 CL1        -1.7500   -3.9650   -2.4390 cl        1 5MA     -0.052400
      6 C2          1.6420   -2.7470   -0.7570 ca        1 5MA     -0.175000
      7 CL2        -4.9650   -0.2930    3.7760 cl        1 5MA     -0.080400
      8 C3          1.1750   -1.8900    0.2410 ca        1 5MA     -0.053200
      9 CL3        -2.3850    0.3460   -1.8220 cl        1 5MA     -0.045400
     10 C4         -0.2390   -1.6600    0.4410 ca        1 5MA     -0.036600
     11 C5         -1.1780   -2.2990   -0.3800 ca        1 5MA      0.219100
     12 C6         -3.6090   -1.2120    1.6570 ca        1 5MA     -0.094000
     13 C7         -3.0380   -1.0500    0.3900 ca        1 5MA      0.094100
     14 C8         -3.0900    0.1790   -0.2920 ca        1 5MA      0.035400
     15 C9         -3.7330    1.2660    0.3230 ca        1 5MA     -0.065300
     16 C10        -4.3130    1.1090    1.5850 ca        1 5MA     -0.112000
     17 C11        -4.2530   -0.1210    2.2440 ca        1 5MA      0.023400
     18 N12         0.8060   -0.4640    1.9540 nc        1 5MA     -0.115400
     19 N13        -0.3450   -0.7560    1.5430 nd        1 5MA     -0.190400
     20 C14         3.2000   -0.8430    1.3490 c3        1 5MA      0.131500
     21 C15         3.7070    0.1340    0.3480 cc        1 5MA     -0.153300
     22 N16         3.3740    0.1420   -1.0060 na        1 5MA      0.068800
     23 N17         3.9750    1.0820   -1.7160 nc        1 5MA     -0.227400
     24 C18         4.7880    1.7720   -0.8260 ca        1 5MA      0.271300
     25 C19         4.6320    1.1860    0.5230 ca        1 5MA     -0.215300
     26 N20         5.6330    2.8440   -1.0760 nb        1 5MA     -0.609000
     27 C21         6.2820    3.3060   -0.0270 ca        1 5MA      0.416200
     28 C22         6.1870    2.8020    1.3210 ca        1 5MA     -0.255300
     29 C23         5.3640    1.7430    1.5950 ca        1 5MA     -0.046000
     30 C24        -3.7950    2.6140   -0.3410 c3        1 5MA      0.205100
     31 N26        -4.6590    2.6340   -1.4980 n3        1 5MA     -0.910800
     32 H1          1.0250   -4.0500   -2.3540 ha        1 5MA      0.159000
     33 H2          2.7140   -2.9420   -0.8960 ha        1 5MA      0.151000
     34 H6         -3.5490   -2.1880    2.1630 ha        1 5MA      0.168000
     35 H10        -4.8180    1.9640    2.0630 ha        1 5MA      0.152000
     36 H14         3.4310   -0.4400    2.3800 h1        1 5MA      0.091200
     37 H14A        3.7400   -1.8270    1.2140 h1        1 5MA      0.091200
     38 H21         6.9570    4.1620   -0.2230 h4        1 5MA      0.025100
     39 H22         6.7830    3.2870    2.1050 ha        1 5MA      0.146000
     40 H23         5.2580    1.3290    2.6080 ha        1 5MA      0.137000
     41 H24        -4.0970    3.3770    0.4390 h1        1 5MA      0.041200
     42 H24A       -2.7570    2.8940   -0.6880 h1        1 5MA      0.041200
     43 HN26       -5.5750    2.3000   -1.2760 hn        1 5MA      0.355800
     44 HN2A       -4.7200    3.5620   -1.8680 hn        1 5MA      0.355800
     45 HN16        2.7060   -0.4580   -1.4440 hn        1 5MA      0.334700
@<TRIPOS>BOND
     1    1    4 ar  
     2    1    5 1   
     3    1   11 ar  
     4    2    8 1   
     5    2   18 1   
     6    2   20 1   
     7    3   11 1   
     8    3   13 1   
     9    4    6 ar  
    10    4   32 1   
    11    6    8 ar  
    12    6   33 1   
    13    7   17 1   
    14    8   10 ar  
    15    9   14 1   
    16   10   11 ar  
    17   10   19 1   
    18   12   13 ar  
    19   12   17 ar  
    20   12   34 1   
    21   13   14 ar  
    22   14   15 ar  
    23   15   16 ar  
    24   15   30 1   
    25   16   17 ar  
    26   16   35 1   
    27   18   19 2   
    28   20   21 1   
    29   20   36 1   
    30   20   37 1   
    31   21   22 1   
    32   21   25 2   
    33   22   23 1   
    34   22   45 1   
    35   23   24 2   
    36   24   25 ar  
    37   24   26 ar  
    38   25   29 ar  
    39   26   27 ar  
    40   27   28 ar  
    41   27   38 1   
    42   28   29 ar  
    43   28   39 1   
    44   29   40 1   
    45   30   31 1   
    46   30   41 1   
    47   30   42 1   
    48   31   43 1   
    49   31   44 1   
@<TRIPOS>SUBSTRUCTURE
     1 5MA         1 TEMP              0 ****  ****    0 ROOT
