@<TRIPOS>MOLECULE
5MA
   45    38     1     0     0
SMALL
bcc


@<TRIPOS>ATOM
      1 C          -0.1530    0.2270   -1.9220 c1        1 5MA     -0.114000
      2 N           1.4400    0.3530    1.8920 n2        1 5MA     -0.205000
      3 O          -1.4410    1.3610   -1.6780 os        1 5MA     -0.131000
      4 C1          1.2270    0.0660   -1.8350 c1        1 5MA     -0.062000
      5 CL1        -0.2050    0.3030   -3.6660 cl        1 5MA      0.023000
      6 C2          1.8540    0.0930   -0.5950 c1        1 5MA     -0.151000
      7 CL2        -6.2070    2.8860   -0.1520 cl        1 5MA      0.001000
      8 C3          1.0910    0.2840    0.5780 c1        1 5MA      0.017000
      9 CL3        -2.4460   -0.2450   -3.9910 cl        1 5MA      0.007000
     10 C4         -0.2680    0.4420    0.4940 c1        1 5MA     -0.179000
     11 C5         -0.9050    0.4150   -0.7670 c2        1 5MA      0.169000
     12 C6         -3.6510    1.8620   -0.7890 c1        1 5MA     -0.098000
     13 C7         -2.8540    1.2200   -1.7320 c1        1 5MA      0.060000
     14 C8         -3.4440    0.5550   -2.8030 c2        1 5MA     -0.068000
     15 C9         -4.8300    0.5330   -2.9310 c2        1 5MA     -0.050000
     16 C10        -5.6250    1.1750   -1.9890 c1        1 5MA     -0.099000
     17 C11        -5.0370    1.8390   -0.9180 c1        1 5MA     -0.052000
     18 N12         0.3050    0.5540    2.6210 n2        1 5MA      0.026000
     19 N13        -0.7500    0.6090    1.7550 n1        1 5MA     -0.045000
     20 C14         2.4930    0.7830    2.7770 c2        1 5MA      0.073000
     21 C15         3.1700   -0.4450    3.4020 c2        1 5MA     -0.122000
     22 N16         2.6450   -0.8070    4.6010 n2        1 5MA     -0.072000
     23 N17         3.4790   -1.7500    5.1670 n2        1 5MA     -0.049000
     24 C18         4.5250   -1.9660    4.3040 c1        1 5MA     -0.058000
     25 C19         4.3430   -1.1660    3.2130 c1        1 5MA     -0.153000
     26 N20         5.6330   -2.8000    4.3760 n1        1 5MA     -0.081000
     27 C21         6.5410   -2.8210    3.3570 c1        1 5MA     -0.119500
     28 C22         6.3580   -2.0080    2.2470 c1        1 5MA     -0.119500
     29 C23         5.2670   -1.1860    2.1740 c1        1 5MA     -0.050000
     30 C24        -5.4800   -0.2110   -4.1050 c3        1 5MA     -0.042000
     31 N26        -5.6760    0.6980   -5.1980 n3        1 5MA     -0.342000
     32 H1          1.7530   -0.0970   -2.6480 ha        1 5MA      0.157000
     33 H2          2.8260   -0.0210   -0.5340 ha        1 5MA      0.150000
     34 H6         -3.2350    2.3750   -0.0630 ha        1 5MA      0.169000
     35 H10        -6.6020    1.1590   -2.0790 ha        1 5MA      0.160000
     36 H14         2.1150    1.3460    3.4880 ha        1 5MA      0.125000
     37 H14A        3.1580    1.3000    2.2690 ha        1 5MA      0.125000
     38 H21         7.3230   -3.4110    3.4100 ha        1 5MA      0.154000
     39 H22         7.0110   -2.0230    1.5150 ha        1 5MA      0.154000
     40 H23         5.1380   -0.6120    1.3910 ha        1 5MA      0.132000
     41 H24        -4.8950   -0.9450   -4.3920 h1        1 5MA      0.082500
     42 H24A       -6.3480   -0.5750   -3.8220 h1        1 5MA      0.082500
     43 HN26       -5.0240    0.5640   -5.8290 hn        1 5MA      0.151000
     44 HN2A       -6.5020    0.5510   -5.5750 hn        1 5MA      0.151000
     45 HN16        1.8850   -0.4640    4.9810 DU        1 5MA      0.295000
@<TRIPOS>BOND
     1    1    4 1   
     2    1   11 1   
     3    2    8 1   
     4    2   18 1   
     5    3   11 1   
     6    3   13 1   
     7    4   32 1   
     8    6    8 1   
     9    6   33 1   
    10    7   17 1   
    11    9   14 1   
    12   10   11 1   
    13   12   17 1   
    14   12   34 1   
    15   13   14 1   
    16   14   15 1   
    17   15   16 1   
    18   15   30 1   
    19   16   35 1   
    20   18   19 1   
    21   20   21 1   
    22   20   36 1   
    23   20   37 1   
    24   21   22 1   
    25   21   25 1   
    26   22   23 1   
    27   23   24 1   
    28   24   26 1   
    29   25   29 1   
    30   27   28 1   
    31   27   38 1   
    32   28   39 1   
    33   29   40 1   
    34   30   31 1   
    35   30   41 1   
    36   30   42 1   
    37   31   43 1   
    38   31   44 1   
@<TRIPOS>SUBSTRUCTURE
     1 5MA         1 TEMP              0 ****  ****    0 ROOT
