@<TRIPOS>MOLECULE
5MA
   46    50     1     0     0
SMALL
bcc


@<TRIPOS>ATOM
      1 C           1.2200   -0.9490   -1.0420 ca        1 5MA     -0.013600
      2 N           1.4890   -0.1340    3.0280 na        1 5MA      0.047900
      3 O          -1.1190   -1.3270   -0.6890 os        1 5MA     -0.224200
      4 C1          2.4950   -0.5510   -0.5740 ca        1 5MA     -0.068000
      5 CL1         1.0530   -1.3030   -2.6890 cl        1 5MA     -0.036400
      6 C2          2.7410   -0.2440    0.7540 ca        1 5MA     -0.128000
      7 CL2        -2.7170   -5.8410    0.9960 cl        1 5MA     -0.021400
      8 C3          1.6650   -0.3340    1.6440 ca        1 5MA     -0.048200
      9 CL3        -3.1480    0.3360    0.7440 cl        1 5MA     -0.055400
     10 C4          0.3490   -0.7360    1.1930 ca        1 5MA     -0.030600
     11 C5          0.1350   -1.0340   -0.1600 ca        1 5MA      0.170100
     12 C6         -1.8760   -3.4290    0.2000 ca        1 5MA     -0.078000
     13 C7         -1.9780   -2.0320    0.1510 ca        1 5MA      0.137100
     14 C8         -3.0100   -1.3580    0.8260 ca        1 5MA      0.037400
     15 C9         -3.9330   -2.1040    1.5790 ca        1 5MA     -0.164300
     16 C10        -3.8410   -3.4970    1.6230 ca        1 5MA     -0.085000
     17 C11        -2.8160   -4.1570    0.9340 ca        1 5MA      0.028400
     18 N12         0.1910   -0.3810    3.3500 nc        1 5MA     -0.106400
     19 N13        -0.4880   -0.7330    2.3460 nd        1 5MA     -0.242400
     20 C14         2.4930    0.3650    3.9530 c3        1 5MA      0.136500
     21 C15         2.1760    1.6930    4.5340 cc        1 5MA     -0.161300
     22 N16         1.7860    2.8190    3.8090 na        1 5MA      0.068800
     23 N17         1.5600    3.8960    4.5420 nc        1 5MA     -0.220400
     24 C18         1.8070    3.5210    5.8560 ca        1 5MA      0.272300
     25 C19         2.2050    2.0980    5.8860 ca        1 5MA     -0.203300
     26 N20         1.7180    4.2930    7.0070 nb        1 5MA     -0.605000
     27 C21         2.0160    3.6690    8.1290 ca        1 5MA      0.419200
     28 C22         2.4120    2.2870    8.2500 ca        1 5MA     -0.242300
     29 C23         2.5060    1.5030    7.1320 ca        1 5MA     -0.055000
     30 C24        -4.9620   -1.4270    2.4210 c3        1 5MA      0.169100
     31 N26        -5.9280   -0.6320    1.5990 n4        1 5MA     -0.850600
     32 H1          3.3230   -0.4900   -1.3020 ha        1 5MA      0.171000
     33 H2          3.7440    0.0550    1.0910 ha        1 5MA      0.163000
     34 H6         -1.0570   -3.9330   -0.3420 ha        1 5MA      0.191000
     35 H10        -4.5640   -4.0830    2.2160 ha        1 5MA      0.163000
     36 H14         3.4700    0.4090    3.3860 h1        1 5MA      0.091200
     37 H14A        2.5980   -0.3720    4.8040 h1        1 5MA      0.091200
     38 H21         1.9490    4.2830    9.0480 h4        1 5MA      0.033100
     39 H22         2.6340    1.8930    9.2520 ha        1 5MA      0.152000
     40 H23         2.8040    0.4460    7.1810 ha        1 5MA      0.138000
     41 H24        -4.4570   -0.7120    3.1410 hx        1 5MA      0.122200
     42 H24A       -5.5560   -2.1800    3.0170 hx        1 5MA      0.122200
     43 HN26       -6.6080   -0.1660    2.2050 hn        1 5MA      0.462467
     44 HN2A       -6.4220   -1.2430    0.9420 hn        1 5MA      0.462467
     45 HN16        1.6640    2.8680    2.8210 hn        1 5MA      0.327700
     46 H263       -5.4040    0.0790    1.0590 hn        1 5MA      0.462467
@<TRIPOS>BOND
     1    1    4 ar  
     2    1    5 1   
     3    1   11 ar  
     4    2    8 1   
     5    2   18 1   
     6    2   20 1   
     7    3   11 1   
     8    3   13 1   
     9    4    6 ar  
    10    4   32 1   
    11    6    8 ar  
    12    6   33 1   
    13    7   17 1   
    14    8   10 ar  
    15    9   14 1   
    16   10   11 ar  
    17   10   19 1   
    18   12   13 ar  
    19   12   17 ar  
    20   12   34 1   
    21   13   14 ar  
    22   14   15 ar  
    23   15   16 ar  
    24   15   30 1   
    25   16   17 ar  
    26   16   35 1   
    27   18   19 2   
    28   20   21 1   
    29   20   36 1   
    30   20   37 1   
    31   21   22 1   
    32   21   25 2   
    33   22   23 1   
    34   22   45 1   
    35   23   24 2   
    36   24   25 ar  
    37   24   26 ar  
    38   25   29 ar  
    39   26   27 ar  
    40   27   28 ar  
    41   27   38 1   
    42   28   29 ar  
    43   28   39 1   
    44   29   40 1   
    45   30   31 1   
    46   30   41 1   
    47   30   42 1   
    48   31   43 1   
    49   31   44 1   
    50   31   46 1   
@<TRIPOS>SUBSTRUCTURE
     1 5MA         1 TEMP              0 ****  ****    0 ROOT
