@<TRIPOS>MOLECULE
5MA
   46    50     1     0     0
SMALL
bcc


@<TRIPOS>ATOM
      1 C           1.2050   -0.8890   -1.0590 ca        1 5MA     -0.014600
      2 N           1.4900   -0.1100    3.0160 na        1 5MA      0.047900
      3 O          -1.1270   -1.3060   -0.6940 os        1 5MA     -0.224200
      4 C1          2.4760   -0.4770   -0.5970 ca        1 5MA     -0.068000
      5 Cl1         1.0310   -1.2300   -2.7090 cl        1 5MA     -0.036400
      6 C2          2.7270   -0.1790    0.7320 ca        1 5MA     -0.128000
      7 Cl2        -2.6450   -5.8600    0.9590 cl        1 5MA     -0.021400
      8 C3          1.6590   -0.2950    1.6290 ca        1 5MA     -0.048200
      9 Cl3        -3.1690    0.3120    0.7690 cl        1 5MA     -0.055400
     10 C4          0.3470   -0.7120    1.1830 ca        1 5MA     -0.030600
     11 C5          0.1270   -0.9990   -0.1710 ca        1 5MA      0.170100
     12 C6         -1.8450   -3.4270    0.1800 ca        1 5MA     -0.078000
     13 C7         -1.9680   -2.0320    0.1450 ca        1 5MA      0.137100
     14 C8         -3.0050   -1.3800    0.8330 ca        1 5MA      0.037400
     15 C9         -3.9120   -2.1470    1.5860 ca        1 5MA     -0.163300
     16 C10        -3.7990   -3.5390    1.6160 ca        1 5MA     -0.085000
     17 C11        -2.7700   -4.1760    0.9130 ca        1 5MA      0.028400
     18 N12         0.1980   -0.3800    3.3450 nc        1 5MA     -0.106400
     19 N13        -0.4830   -0.7320    2.3420 nd        1 5MA     -0.242400
     20 C14         2.4930    0.3950    3.9390 c3        1 5MA      0.136500
     21 C15         2.1600    1.7120    4.5340 cc        1 5MA     -0.161300
     22 N16         1.7490    2.8400    3.8220 na        1 5MA      0.068800
     23 N17         1.5120    3.9060    4.5660 nc        1 5MA     -0.220400
     24 C18         1.7740    3.5230    5.8760 ca        1 5MA      0.272300
     25 C19         2.1920    2.1060    5.8900 ca        1 5MA     -0.203300
     26 N20         1.6810    4.2830    7.0340 nb        1 5MA     -0.605000
     27 C21         1.9950    3.6540    8.1480 ca        1 5MA      0.419200
     28 C22         2.4130    2.2770    8.2540 ca        1 5MA     -0.242300
     29 C23         2.5110    1.5040    7.1280 ca        1 5MA     -0.055000
     30 C24        -4.9450   -1.4930    2.4420 c3        1 5MA      0.169100
     31 N26        -5.9280   -0.7040    1.6330 nz        1 5MA     -0.850600
     32 H1          3.2990   -0.3960   -1.3300 ha        1 5MA      0.171000
     33 H2          3.7280    0.1320    1.0650 ha        1 5MA      0.163000
     34 H6         -1.0230   -3.9140   -0.3730 ha        1 5MA      0.191000
     35 H10        -4.5090   -4.1410    2.2080 ha        1 5MA      0.163000
     36 H14         2.6150   -0.3480    4.7830 h1        1 5MA      0.091200
     37 H14A        3.4650    0.4580    3.3660 h1        1 5MA      0.091200
     38 H21         1.9260    4.2580    9.0730 h4        1 5MA      0.033100
     39 H22         2.6470    1.8770    9.2500 ha        1 5MA      0.152000
     40 H23         2.8250    0.4510    7.1660 ha        1 5MA      0.138000
     41 H24        -5.5240   -2.2610    3.0340 hx        1 5MA      0.122200
     42 H24A       -4.4460   -0.7780    3.1640 hx        1 5MA      0.122200
     43 HN26       -5.4180    0.0190    1.0970 hn        1 5MA      0.462467
     44 HN2A       -6.4180   -1.3170    0.9740 hn        1 5MA      0.462467
     45 HN16        1.6200    2.8950    2.8360 hn        1 5MA      0.327700
     46 H263       -6.6110   -0.2550    2.2490 hn        1 5MA      0.462467
@<TRIPOS>BOND
     1    1    4 ar  
     2    1    5 1   
     3    1   11 ar  
     4    2    8 1   
     5    2   18 1   
     6    2   20 1   
     7    3   11 1   
     8    3   13 1   
     9    4    6 ar  
    10    4   32 1   
    11    6    8 ar  
    12    6   33 1   
    13    7   17 1   
    14    8   10 ar  
    15    9   14 1   
    16   10   11 ar  
    17   10   19 1   
    18   12   13 ar  
    19   12   17 ar  
    20   12   34 1   
    21   13   14 ar  
    22   14   15 ar  
    23   15   16 ar  
    24   15   30 1   
    25   16   17 ar  
    26   16   35 1   
    27   18   19 2   
    28   20   21 1   
    29   20   36 1   
    30   20   37 1   
    31   21   22 1   
    32   21   25 2   
    33   22   23 1   
    34   22   45 1   
    35   23   24 2   
    36   24   25 ar  
    37   24   26 ar  
    38   25   29 ar  
    39   26   27 ar  
    40   27   28 ar  
    41   27   38 1   
    42   28   29 ar  
    43   28   39 1   
    44   29   40 1   
    45   30   31 1   
    46   30   41 1   
    47   30   42 1   
    48   31   43 1   
    49   31   44 1   
    50   31   46 1   
@<TRIPOS>SUBSTRUCTURE
     1 5MA         1 TEMP              0 ****  ****    0 ROOT
