@<TRIPOS>MOLECULE
5MA
   46    50     1     0     0
SMALL
bcc


@<TRIPOS>ATOM
      1 C           1.2180   -0.9370   -1.0460 ca        1 5MA     -0.013600
      2 N           1.4880   -0.1080    3.0210 na        1 5MA      0.047900
      3 O          -1.1160   -1.3420   -0.6860 os        1 5MA     -0.224200
      4 C1          2.4890   -0.5230   -0.5830 ca        1 5MA     -0.068000
      5 CL1         1.0510   -1.2980   -2.6920 cl        1 5MA     -0.036400
      6 C2          2.7350   -0.2090    0.7440 ca        1 5MA     -0.128000
      7 CL2        -2.6540   -5.8710    1.0140 cl        1 5MA     -0.021400
      8 C3          1.6620   -0.3110    1.6370 ca        1 5MA     -0.048200
      9 CL3        -3.1610    0.2990    0.7480 cl        1 5MA     -0.055400
     10 C4          0.3510   -0.7290    1.1900 ca        1 5MA     -0.030600
     11 C5          0.1370   -1.0330   -0.1620 ca        1 5MA      0.170100
     12 C6         -1.8440   -3.4510    0.2100 ca        1 5MA     -0.078000
     13 C7         -1.9640   -2.0550    0.1580 ca        1 5MA      0.137100
     14 C8         -3.0010   -1.3930    0.8330 ca        1 5MA      0.037400
     15 C9         -3.9140   -2.1480    1.5910 ca        1 5MA     -0.163300
     16 C10        -3.8050   -3.5400    1.6380 ca        1 5MA     -0.085000
     17 C11        -2.7740   -4.1880    0.9480 ca        1 5MA      0.028400
     18 N12         0.1940   -0.3710    3.3470 nc        1 5MA     -0.106400
     19 N13        -0.4840   -0.7330    2.3450 nd        1 5MA     -0.242400
     20 C14         2.4890    0.4030    3.9420 c3        1 5MA      0.137500
     21 C15         2.1560    1.7260    4.5250 cc        1 5MA     -0.161300
     22 N16         1.7460    2.8470    3.8030 na        1 5MA      0.068800
     23 N17         1.5090    3.9200    4.5370 nc        1 5MA     -0.220400
     24 C18         1.7690    3.5490    5.8500 ca        1 5MA      0.272300
     25 C19         2.1870    2.1320    5.8780 ca        1 5MA     -0.203300
     26 N20         1.6760    4.3200    7.0010 nb        1 5MA     -0.605000
     27 C21         1.9890    3.7000    8.1210 ca        1 5MA      0.419200
     28 C22         2.4060    2.3240    8.2400 ca        1 5MA     -0.242300
     29 C23         2.5050    1.5410    7.1220 ca        1 5MA     -0.055000
     30 C24        -4.9490   -1.4810    2.4340 c3        1 5MA      0.169100
     31 N26        -5.9260   -0.7000    1.6120 n4        1 5MA     -0.850600
     32 H1          3.3150   -0.4540   -1.3130 ha        1 5MA      0.171000
     33 H2          3.7360    0.1020    1.0770 ha        1 5MA      0.163000
     34 H6         -1.0210   -3.9460   -0.3340 ha        1 5MA      0.191000
     35 H10        -4.5190   -4.1330    2.2340 ha        1 5MA      0.163000
     36 H14         2.6070   -0.3330    4.7930 h1        1 5MA      0.091200
     37 H14A        3.4620    0.4600    3.3720 h1        1 5MA      0.091200
     38 H21         1.9200    4.3140    9.0410 h4        1 5MA      0.033100
     39 H22         2.6390    1.9340    9.2400 ha        1 5MA      0.152000
     40 H23         2.8180    0.4880    7.1690 ha        1 5MA      0.138000
     41 H24        -5.5320   -2.2400    3.0330 hx        1 5MA      0.122200
     42 H24A       -4.4510   -0.7590    3.1510 hx        1 5MA      0.122200
     43 HN26       -5.4120    0.0160    1.0690 hn        1 5MA      0.462467
     44 HN2A       -6.4150   -1.3180    0.9580 hn        1 5MA      0.462467
     45 HN16        1.6170    2.8930    2.8160 hn        1 5MA      0.327700
     46 H263       -6.6100   -0.2400    2.2190 hn        1 5MA      0.462467
@<TRIPOS>BOND
     1    1    4 ar  
     2    1    5 1   
     3    1   11 ar  
     4    2    8 1   
     5    2   18 1   
     6    2   20 1   
     7    3   11 1   
     8    3   13 1   
     9    4    6 ar  
    10    4   32 1   
    11    6    8 ar  
    12    6   33 1   
    13    7   17 1   
    14    8   10 ar  
    15    9   14 1   
    16   10   11 ar  
    17   10   19 1   
    18   12   13 ar  
    19   12   17 ar  
    20   12   34 1   
    21   13   14 ar  
    22   14   15 ar  
    23   15   16 ar  
    24   15   30 1   
    25   16   17 ar  
    26   16   35 1   
    27   18   19 2   
    28   20   21 1   
    29   20   36 1   
    30   20   37 1   
    31   21   22 1   
    32   21   25 2   
    33   22   23 1   
    34   22   45 1   
    35   23   24 2   
    36   24   25 ar  
    37   24   26 ar  
    38   25   29 ar  
    39   26   27 ar  
    40   27   28 ar  
    41   27   38 1   
    42   28   29 ar  
    43   28   39 1   
    44   29   40 1   
    45   30   31 1   
    46   30   41 1   
    47   30   42 1   
    48   31   43 1   
    49   31   44 1   
    50   31   46 1   
@<TRIPOS>SUBSTRUCTURE
     1 5MA         1 TEMP              0 ****  ****    0 ROOT
