@<TRIPOS>MOLECULE
5MB
   18    19     1     0     0
SMALL
bcc


@<TRIPOS>ATOM
      1 N3         -1.2980   -0.0650   -1.7430 na        1 5MB     -0.291300
      2 N1          0.9560    0.0350   -2.1850 nc        1 5MB     -0.564100
      3 C2         -0.2760   -0.0230   -2.7120 cd        1 5MB      0.415700
      4 C7A         0.7640    0.0340   -0.7870 ca        1 5MB      0.058400
      5 C3A        -0.6600   -0.0290   -0.4990 ca        1 5MB     -0.071200
      6 C4         -1.1410   -0.0440    0.8150 ca        1 5MB     -0.137000
      7 C5         -0.2070    0.0040    1.8450 ca        1 5MB     -0.058300
      8 C6          1.1770    0.0650    1.5700 ca        1 5MB     -0.155000
      9 C7          1.6750    0.0810    0.2780 ca        1 5MB     -0.064000
     10 C8         -0.6530   -0.0090    3.2590 c3        1 5MB     -0.053800
     11 HN31       -2.2660   -0.1100   -1.9020 hn        1 5MB      0.304700
     12 H21        -0.5020   -0.0390   -3.7850 h5        1 5MB      0.066800
     13 H41        -2.2170   -0.0920    1.0250 ha        1 5MB      0.135000
     14 H61         1.8770    0.1010    2.4190 ha        1 5MB      0.133000
     15 H71         2.7550    0.1290    0.0810 ha        1 5MB      0.148000
     16 H81        -0.3040    0.9160    3.7820 hc        1 5MB      0.044367
     17 H82        -1.7670   -0.0590    3.3360 hc        1 5MB      0.044367
     18 H83        -0.2220   -0.8940    3.7910 hc        1 5MB      0.044367
@<TRIPOS>BOND
     1    1    3 1   
     2    1    5 1   
     3    1   11 1   
     4    2    3 2   
     5    2    4 1   
     6    3   12 1   
     7    4    5 ar  
     8    4    9 ar  
     9    5    6 ar  
    10    6    7 ar  
    11    6   13 1   
    12    7    8 ar  
    13    7   10 1   
    14    8    9 ar  
    15    8   14 1   
    16    9   15 1   
    17   10   16 1   
    18   10   17 1   
    19   10   18 1   
@<TRIPOS>SUBSTRUCTURE
     1 5MB         1 TEMP              0 ****  ****    0 ROOT
