@<TRIPOS>MOLECULE
5MB
   18    14     1     0     0
SMALL
bcc


@<TRIPOS>ATOM
      1 N3          0.8140    0.0070   -2.3450 ne        1 5MB     -0.464900
      2 N1          2.5950    0.0070   -1.0530 ne        1 5MB     -0.464900
      3 C2          2.1740    0.0070   -2.3450 c1        1 5MB      0.400800
      4 C7A         1.4990    0.0070   -0.2540 cg        1 5MB     -0.001500
      5 C3A         0.3950    0.0070   -1.0560 cg        1 5MB     -0.001500
      6 C4         -0.8910    0.0070   -0.4820 c1        1 5MB     -0.043000
      7 C5         -1.0350    0.0070    0.8960 c1        1 5MB     -0.024100
      8 C6          0.0860    0.0070    1.7100 c1        1 5MB     -0.097500
      9 C7          1.3520    0.0070    1.1460 c1        1 5MB     -0.043000
     10 C8         -2.3960   -0.0190    1.5570 c3        1 5MB     -0.088000
     11 HN31        0.2790    0.0070   -3.0830 DU        1 5MB      0.225500
     12 H21         2.7470    0.0070   -3.1350 DU        1 5MB      0.225500
     13 H41        -1.6810    0.0070   -1.0550 ha        1 5MB      0.084000
     14 H61        -0.0150    0.0070    2.6810 ha        1 5MB      0.075500
     15 H71         2.1420    0.0070    1.7200 ha        1 5MB      0.084000
     16 H81        -2.4840    0.7520    2.1500 hc        1 5MB      0.044367
     17 H82        -2.4900   -0.8410    2.0760 hc        1 5MB      0.044367
     18 H83        -3.0910    0.0160    0.8730 hc        1 5MB      0.044367
@<TRIPOS>BOND
     1    1    3 2   
     2    1    5 1   
     3    2    3 2   
     4    2    4 1   
     5    4    9 3   
     6    5    6 3   
     7    6   13 1   
     8    7    8 3   
     9    7   10 1   
    10    8   14 1   
    11    9   15 1   
    12   10   16 1   
    13   10   17 1   
    14   10   18 1   
@<TRIPOS>SUBSTRUCTURE
     1 5MB         1 TEMP              0 ****  ****    0 ROOT
