@<TRIPOS>MOLECULE
5MB
   18    19     1     0     0
SMALL
bcc


@<TRIPOS>ATOM
      1 N3         -0.0130    0.0430   -0.0230 na        1 5MB     -0.291300
      2 N1          1.9060   -0.0210    1.2400 nc        1 5MB     -0.564100
      3 C2          1.3950    0.0180    0.0010 cd        1 5MB      0.415700
      4 C7A         0.7910   -0.0220    2.1040 ca        1 5MB      0.058400
      5 C3A        -0.4280    0.0180    1.3130 ca        1 5MB     -0.071200
      6 C4         -1.6920    0.0260    1.9140 ca        1 5MB     -0.137000
      7 C5         -1.7450   -0.0060    3.3040 ca        1 5MB     -0.058300
      8 C6         -0.5630   -0.0450    4.0770 ca        1 5MB     -0.155000
      9 C7          0.6970   -0.0530    3.5020 ca        1 5MB     -0.064000
     10 C8         -3.0530   -0.0000    4.0020 c3        1 5MB     -0.053800
     11 HN31       -0.5950    0.0720   -0.8150 hn        1 5MB      0.304700
     12 H21         1.9830    0.0290   -0.9240 h5        1 5MB      0.066800
     13 H41        -2.6080    0.0560    1.3110 ha        1 5MB      0.135000
     14 H61        -0.6560   -0.0700    5.1740 ha        1 5MB      0.133000
     15 H71         1.6070   -0.0840    4.1190 ha        1 5MB      0.148000
     16 H81        -3.9030    0.0390    3.2780 hc        1 5MB      0.044367
     17 H82        -3.1250    0.8870    4.6790 hc        1 5MB      0.044367
     18 H83        -3.1620   -0.9230    4.6250 hc        1 5MB      0.044367
@<TRIPOS>BOND
     1    1    3 1   
     2    1    5 1   
     3    1   11 1   
     4    2    3 2   
     5    2    4 1   
     6    3   12 1   
     7    4    5 ar  
     8    4    9 ar  
     9    5    6 ar  
    10    6    7 ar  
    11    6   13 1   
    12    7    8 ar  
    13    7   10 1   
    14    8    9 ar  
    15    8   14 1   
    16    9   15 1   
    17   10   16 1   
    18   10   17 1   
    19   10   18 1   
@<TRIPOS>SUBSTRUCTURE
     1 5MB         1 TEMP              0 ****  ****    0 ROOT
