@<TRIPOS>MOLECULE
5MB
   18    19     1     0     0
SMALL
bcc


@<TRIPOS>ATOM
      1 N3         -0.0150    0.0470   -0.0230 na        1 5MB     -0.291300
      2 N1          1.9050   -0.0290    1.2370 nc        1 5MB     -0.564100
      3 C2          1.3920    0.0160   -0.0010 cd        1 5MB      0.415700
      4 C7A         0.7900   -0.0280    2.1030 ca        1 5MB      0.058400
      5 C3A        -0.4290    0.0200    1.3130 ca        1 5MB     -0.071200
      6 C4         -1.6920    0.0310    1.9150 ca        1 5MB     -0.137000
      7 C5         -1.7440   -0.0050    3.3050 ca        1 5MB     -0.058300
      8 C6         -0.5610   -0.0510    4.0770 ca        1 5MB     -0.155000
      9 C7          0.6980   -0.0630    3.5010 ca        1 5MB     -0.064000
     10 C8         -3.0510    0.0050    4.0040 c3        1 5MB     -0.053800
     11 HN31       -0.5980    0.0810   -0.8140 hn        1 5MB      0.304700
     12 H21         1.9800    0.0280   -0.9270 h5        1 5MB      0.066800
     13 H41        -2.6090    0.0670    1.3130 ha        1 5MB      0.135000
     14 H61        -0.6540   -0.0780    5.1740 ha        1 5MB      0.133000
     15 H71         1.6080   -0.0990    4.1160 ha        1 5MB      0.148000
     16 H81        -3.9020    0.0430    3.2810 hc        1 5MB      0.044367
     17 H82        -3.1220    0.8950    4.6780 hc        1 5MB      0.044367
     18 H83        -3.1610   -0.9160    4.6300 hc        1 5MB      0.044367
@<TRIPOS>BOND
     1    1    3 1   
     2    1    5 1   
     3    1   11 1   
     4    2    3 2   
     5    2    4 1   
     6    3   12 1   
     7    4    5 ar  
     8    4    9 ar  
     9    5    6 ar  
    10    6    7 ar  
    11    6   13 1   
    12    7    8 ar  
    13    7   10 1   
    14    8    9 ar  
    15    8   14 1   
    16    9   15 1   
    17   10   16 1   
    18   10   17 1   
    19   10   18 1   
@<TRIPOS>SUBSTRUCTURE
     1 5MB         1 TEMP              0 ****  ****    0 ROOT
