@<TRIPOS>MOLECULE
5MC
   36    37     1     0     0
SMALL
bcc


@<TRIPOS>ATOM
      1 P           1.1420   -0.8240   -2.1660 p5        1 5MC      1.343900
      2 OP1         1.4690   -0.4730   -0.7260 o         1 5MC     -0.926500
      3 OP2         2.1310   -1.6510   -2.9170 o         1 5MC     -0.926500
      4 OP3         0.4340    0.3220   -2.8510 o         1 5MC     -0.926500
      5 O5'        -0.2460   -1.8410   -1.9580 os        1 5MC     -0.569200
      6 C5'        -0.8060   -1.9320   -0.7150 c3        1 5MC      0.223400
      7 C4'        -1.9690   -0.9320   -0.4960 c3        1 5MC      0.061100
      8 O4'        -2.4020   -1.0130    0.8820 os        1 5MC     -0.437600
      9 C3'        -1.6020    0.5380   -0.7830 c3        1 5MC      0.076100
     10 O3'        -2.2250    1.0020   -1.9580 oh        1 5MC     -0.662800
     11 C2'        -2.0920    1.3320    0.4390 c3        1 5MC      0.106100
     12 O2'        -3.3440    1.9670    0.2710 oh        1 5MC     -0.615800
     13 C1'        -2.2330    0.2380    1.5490 c3        1 5MC      0.261500
     14 N1         -1.0890    0.2030    2.4670 n         1 5MC     -0.367000
     15 C2         -1.3060    0.2950    3.8850 c         1 5MC      0.823900
     16 O2         -2.4760    0.4550    4.3120 o         1 5MC     -0.687500
     17 N3         -0.2230    0.2410    4.7740 nc        1 5MC     -0.767100
     18 C4          1.0140    0.0430    4.2770 cd        1 5MC      0.712500
     19 N4          2.0870   -0.1080    5.1690 nh        1 5MC     -0.898800
     20 C5          1.2730   -0.0600    2.8560 cd        1 5MC     -0.384800
     21 C6          0.1850    0.0260    2.0000 cc        1 5MC      0.075600
     22 CM5         2.6180   -0.2720    2.2870 c3        1 5MC     -0.056900
     23 H5'        -0.0370   -1.7870    0.0940 h1        1 5MC      0.000200
     24 H5''       -1.2560   -2.9620   -0.5930 h1        1 5MC      0.000200
     25 H4'        -2.8590   -1.2360   -1.1080 h1        1 5MC      0.046700
     26 H3'        -0.4700    0.6250   -0.8970 h1        1 5MC      0.158700
     27 HO3'       -1.5420    0.9010   -2.6590 ho        1 5MC      0.492000
     28 H2'        -1.3760    2.1450    0.7250 h1        1 5MC      0.073700
     29 HO2'       -3.7610    1.5770   -0.5080 ho        1 5MC      0.420000
     30 H1'        -3.1680    0.3900    2.1650 h2        1 5MC      0.109700
     31 HN41        1.9470    0.2390    6.0900 hn        1 5MC      0.393800
     32 HN42        2.9690    0.1190    4.7700 hn        1 5MC      0.393800
     33 H6          0.3670   -0.0490    0.8800 h4        1 5MC      0.291000
     34 HM51        3.0820   -1.2020    2.6980 hc        1 5MC      0.054367
     35 HM52        2.5450   -0.3760    1.1600 hc        1 5MC      0.054367
     36 HM53        3.2910    0.5900    2.5250 hc        1 5MC      0.054367
@<TRIPOS>BOND
     1    1    2 1   
     2    1    3 1   
     3    1    4 1   
     4    1    5 1   
     5    5    6 1   
     6    6    7 1   
     7    6   23 1   
     8    6   24 1   
     9    7    8 1   
    10    7    9 1   
    11    7   25 1   
    12    8   13 1   
    13    9   10 1   
    14    9   11 1   
    15    9   26 1   
    16   10   27 1   
    17   11   12 1   
    18   11   13 1   
    19   11   28 1   
    20   12   29 1   
    21   13   14 1   
    22   13   30 1   
    23   14   15 1   
    24   14   21 1   
    25   15   16 2   
    26   15   17 1   
    27   17   18 2   
    28   18   19 1   
    29   18   20 1   
    30   19   31 1   
    31   19   32 1   
    32   20   21 2   
    33   20   22 1   
    34   21   33 1   
    35   22   34 1   
    36   22   35 1   
    37   22   36 1   
@<TRIPOS>SUBSTRUCTURE
     1 5MC         1 TEMP              0 ****  ****    0 ROOT
