@<TRIPOS>MOLECULE
5MC
   36    35     1     0     0
SMALL
bcc


@<TRIPOS>ATOM
      1 P           1.2470   -4.1650   -0.6210 p3        1 5MC      2.536000
      2 OP1         2.7590   -4.2470   -0.7640 o         1 5MC     -1.233500
      3 OP2         0.8810   -4.2460    0.8190 os        1 5MC     -1.271000
      4 OP3         0.6100   -5.3050   -1.3660 o         1 5MC     -1.233500
      5 O5'         0.7470   -2.8270   -1.2050 os        1 5MC     -0.731000
      6 C5'         1.0850   -1.6520   -0.5450 c3        1 5MC      0.073000
      7 C4'         1.4270   -0.6990   -1.4610 c3        1 5MC     -0.050000
      8 O4'         0.2050    0.0040   -1.9710 os        1 5MC     -0.294000
      9 C3'         2.3290    0.4390   -0.7690 c3        1 5MC     -0.035000
     10 O3'         3.7370    0.3450   -1.2500 oh        1 5MC     -0.390000
     11 C2'         1.8240    1.5030   -1.1260 c3        1 5MC     -0.005000
     12 O2'         2.4910    1.9980   -2.3700 oh        1 5MC     -0.343000
     13 C1'         0.2420    1.1790   -1.4230 c3        1 5MC      0.113000
     14 N1         -0.4940    1.1770   -0.2080 n         1 5MC     -0.260000
     15 C2         -0.0140    1.9260    0.9300 c2        1 5MC      0.342000
     16 O2          0.9720    2.6600    0.8140 o         1 5MC     -0.412000
     17 N3         -0.7570    1.8820    2.2070 n2        1 5MC     -0.340000
     18 C4         -2.0650    1.3500    2.2400 c1        1 5MC      0.186000
     19 N4         -2.8160    1.4190    3.4040 n2        1 5MC     -0.337000
     20 C5         -2.5880    0.6270    1.0710 c2        1 5MC     -0.294000
     21 C6         -1.7690    0.5150   -0.1430 c2        1 5MC      0.073000
     22 CM5        -4.0110    0.0810    1.0870 c3        1 5MC     -0.179000
     23 H5'         0.3330   -1.3450   -0.0260 h1        1 5MC      0.039500
     24 H5''        1.8580   -1.8230    0.0590 h1        1 5MC      0.039500
     25 H4'         1.9320   -1.1220   -2.2350 h1        1 5MC      0.086000
     26 H3'         2.2920    0.3540    0.2190 h1        1 5MC      0.198000
     27 HO3'        4.2820    0.3860   -0.5670 ho        1 5MC      0.291000
     28 H2'         1.9030    2.1620   -0.4210 h1        1 5MC      0.113000
     29 HO2'        2.6230    2.9060   -2.3060 ho        1 5MC      0.219000
     30 H1'        -0.1210    1.8350   -2.0270 h2        1 5MC      0.149000
     31 HN41       -2.5720    1.9720    4.0610 hn        1 5MC      0.189000
     32 HN42       -3.5390    0.8540    3.5210 hn        1 5MC      0.189000
     33 H6         -2.0680   -0.0340   -0.8790 h4        1 5MC      0.291000
     34 HM51       -4.0980   -0.5820    1.8030 hc        1 5MC      0.093667
     35 HM52       -4.2150   -0.3530    0.2040 hc        1 5MC      0.093667
     36 HM53       -4.6520    0.8280    1.2460 hc        1 5MC      0.093667
@<TRIPOS>BOND
     1    1    2 1   
     2    1    4 1   
     3    1    5 1   
     4    5    6 1   
     5    6    7 1   
     6    6   23 1   
     7    6   24 1   
     8    7    8 1   
     9    7    9 1   
    10    7   25 1   
    11    8   13 1   
    12    9   10 1   
    13    9   11 1   
    14    9   26 1   
    15   10   27 1   
    16   11   12 1   
    17   11   13 1   
    18   11   28 1   
    19   12   29 1   
    20   13   14 1   
    21   13   30 1   
    22   14   15 1   
    23   14   21 1   
    24   15   16 1   
    25   15   17 1   
    26   17   18 1   
    27   18   20 1   
    28   19   31 1   
    29   19   32 1   
    30   20   21 1   
    31   20   22 1   
    32   21   33 1   
    33   22   34 1   
    34   22   35 1   
    35   22   36 1   
@<TRIPOS>SUBSTRUCTURE
     1 5MC         1 TEMP              0 ****  ****    0 ROOT
