@<TRIPOS>MOLECULE
5MD
   31    31     1     0     0
SMALL
bcc


@<TRIPOS>ATOM
      1 O5'        -3.9820   -0.3180   -0.1480 oh        1 5MD     -0.341000
      2 C5'        -2.5640   -0.3180   -0.1480 c3        1 5MD     -0.044000
      3 C4'        -2.0490   -0.3180    1.3100 c3        1 5MD     -0.003000
      4 O4'        -0.5900   -1.0030    1.3790 os        1 5MD     -0.270000
      5 C1'         0.2690   -0.1000    1.0050 c3        1 5MD      0.101000
      6 C1          0.2400   -0.1350   -0.4230 c2        1 5MD     -0.255000
      7 C6          1.1490    0.7230   -0.9440 c1        1 5MD      0.063000
      8 C2          0.3560   -1.5290   -1.0160 c2        1 5MD      0.370000
      9 O2          0.2040   -1.5650   -2.2160 o         1 5MD     -0.347000
     10 N3          1.4090   -2.1470   -0.6840 n         1 5MD     -0.364000
     11 C4          2.6600   -1.3780   -0.7780 c2        1 5MD      0.397000
     12 O4          3.7030   -1.9440   -1.0400 o         1 5MD     -0.361000
     13 N5          2.5080    0.1710   -1.0580 n2        1 5MD     -0.267000
     14 C5          3.5010    0.8620   -1.8330 c3        1 5MD     -0.079000
     15 C3'        -1.9170    0.8460    1.7110 c3        1 5MD      0.020000
     16 O3'        -2.1580    0.9130    3.2120 oh        1 5MD     -0.327000
     17 C2'        -0.4460    1.2270    1.3880 c3        1 5MD     -0.178000
     18 H5'        -4.2780   -0.5530   -0.9510 ho        1 5MD      0.206000
     19 H5'1       -2.2390   -1.1150   -0.6080 h1        1 5MD      0.088000
     20 H5'2       -2.2390    0.4790   -0.6080 h1        1 5MD      0.088000
     21 H4'        -2.6730   -0.8010    1.8850 h1        1 5MD      0.116000
     22 H1'         1.2140   -0.2100    1.2240 h1        1 5MD      0.094000
     23 H6          0.9530    1.6670   -1.0920 ha        1 5MD      0.167000
     24 HN3         1.4750   -3.0040   -0.9880 hn        1 5MD      0.268000
     25 H51         3.3200    1.8210   -1.8130 h1        1 5MD      0.103000
     26 H52         3.4730    0.5440   -2.7550 h1        1 5MD      0.103000
     27 H53         4.3850    0.6890   -1.4570 h1        1 5MD      0.103000
     28 H3'        -2.5330    1.4390    1.2410 h1        1 5MD      0.108000
     29 H3'A       -2.7120    1.5830    3.3930 ho        1 5MD      0.211000
     30 H2'1       -0.4180    1.8520    0.6390 hc        1 5MD      0.115000
     31 H2'2       -0.0210    1.6230    2.1720 hc        1 5MD      0.115000
@<TRIPOS>BOND
     1    1    2 1   
     2    1   18 1   
     3    2    3 1   
     4    2   19 1   
     5    2   20 1   
     6    3    4 1   
     7    3   15 1   
     8    3   21 1   
     9    4    5 1   
    10    5    6 1   
    11    5   17 1   
    12    5   22 1   
    13    6    7 1   
    14    6    8 1   
    15    7   23 1   
    16    8    9 1   
    17    8   10 1   
    18   10   11 1   
    19   10   24 1   
    20   11   12 1   
    21   11   13 1   
    22   13   14 1   
    23   14   25 1   
    24   14   26 1   
    25   14   27 1   
    26   15   16 1   
    27   15   17 1   
    28   15   28 1   
    29   16   29 1   
    30   17   30 1   
    31   17   31 1   
@<TRIPOS>SUBSTRUCTURE
     1 5MD         1 TEMP              0 ****  ****    0 ROOT
