@<TRIPOS>MOLECULE
5MD
   31    32     1     0     0
SMALL
bcc


@<TRIPOS>ATOM
      1 O5'         1.9520   -1.5660   -2.9180 oh        1 5MD     -0.598800
      2 C5'         1.3510   -0.2880   -2.9120 c3        1 5MD      0.117400
      3 C4'        -0.1720   -0.3930   -2.8340 c3        1 5MD      0.101100
      4 O4'        -0.5170   -1.0840   -1.6240 os        1 5MD     -0.428600
      5 C1'        -1.3170   -0.2580   -0.7620 c3        1 5MD      0.222300
      6 C1         -0.6010   -0.0350    0.5330 cc        1 5MD     -0.288400
      7 C6         -0.9290   -0.7870    1.6260 cd        1 5MD      0.069600
      8 C2          0.4820    0.9560    0.6360 c         1 5MD      0.729700
      9 O2          0.8910    1.6940   -0.2770 o         1 5MD     -0.624500
     10 N3          1.1010    1.0720    1.8950 n         1 5MD     -0.583500
     11 C4          0.7440    0.2980    3.0070 c         1 5MD      0.806500
     12 O4          1.3300    0.4400    4.1010 o         1 5MD     -0.632500
     13 N5         -0.3090   -0.6450    2.8520 n         1 5MD     -0.373000
     14 C5         -0.6950   -1.4750    3.9640 c3        1 5MD      0.075300
     15 C3'        -0.8410    0.9930   -2.8060 c3        1 5MD      0.125100
     16 O3'        -1.6550    1.0920   -3.9620 oh        1 5MD     -0.593800
     17 C2'        -1.6710    1.0250   -1.5160 c3        1 5MD     -0.133400
     18 H5'         1.6240   -2.0350   -2.1400 ho        1 5MD      0.409000
     19 H5'1        1.6530    0.1830   -3.8850 h1        1 5MD      0.060200
     20 H5'2        1.7400    0.3200   -2.0500 h1        1 5MD      0.060200
     21 H4'        -0.5690   -1.0240   -3.6760 h1        1 5MD      0.093700
     22 H1'        -2.2470   -0.8660   -0.5640 h1        1 5MD      0.058700
     23 H6         -1.7240   -1.5590    1.5850 h4        1 5MD      0.168000
     24 HN3         1.8500    1.7210    2.0160 hn        1 5MD      0.355500
     25 H51        -0.0920   -1.2000    4.8710 h1        1 5MD      0.064367
     26 H52        -1.7860   -1.3250    4.1850 h1        1 5MD      0.064367
     27 H53        -0.5140   -2.5550    3.7130 h1        1 5MD      0.064367
     28 H3'        -0.0710    1.8120   -2.8010 h1        1 5MD      0.068700
     29 H3'A       -2.0090    1.9890   -3.9740 ho        1 5MD      0.404000
     30 H2'1       -2.7630    1.0400   -1.7580 hc        1 5MD      0.068700
     31 H2'2       -1.4260    1.9330   -0.9130 hc        1 5MD      0.068700
@<TRIPOS>BOND
     1    1    2 1   
     2    1   18 1   
     3    2    3 1   
     4    2   19 1   
     5    2   20 1   
     6    3    4 1   
     7    3   15 1   
     8    3   21 1   
     9    4    5 1   
    10    5    6 1   
    11    5   17 1   
    12    5   22 1   
    13    6    7 2   
    14    6    8 1   
    15    7   13 1   
    16    7   23 1   
    17    8    9 2   
    18    8   10 1   
    19   10   11 1   
    20   10   24 1   
    21   11   12 2   
    22   11   13 1   
    23   13   14 1   
    24   14   25 1   
    25   14   26 1   
    26   14   27 1   
    27   15   16 1   
    28   15   17 1   
    29   15   28 1   
    30   16   29 1   
    31   17   30 1   
    32   17   31 1   
@<TRIPOS>SUBSTRUCTURE
     1 5MD         1 TEMP              0 ****  ****    0 ROOT
