@<TRIPOS>MOLECULE
5ME
   42    36     1     0     0
SMALL
bcc


@<TRIPOS>ATOM
      1 CAJ         3.6920   -0.6450   -4.1030 c1        1 5ME     -0.107500
      2 CAF         4.9750   -0.2030   -4.2630 c1        1 5ME     -0.059500
      3 CAE         5.9080   -0.4420   -3.2900 c1        1 5ME     -0.059500
      4 CAI         5.5520   -1.1320   -2.1390 c1        1 5ME      0.315300
      5 NAO         4.2620   -1.5760   -1.9760 n1        1 5ME     -0.472800
      6 CAU         3.3320   -1.3390   -2.9450 c1        1 5ME     -0.020100
      7 CAY         1.9070   -1.7610   -2.7390 c3        1 5ME      0.121800
      8 CAA         1.8260   -3.2730   -2.7140 c3        1 5ME     -0.101100
      9 NAQ         1.4260   -1.2340   -1.4910 n         1 5ME     -0.552900
     10 CAS         0.1740   -0.4600   -1.4520 c         1 5ME      0.654100
     11 OAC        -0.4640   -0.2870   -2.4710 o         1 5ME     -0.622100
     12 CAM        -0.3810    0.0020   -0.1290 c3        1 5ME     -0.141400
     13 CAN        -1.7510    0.6190   -0.3380 c3        1 5ME     -0.064300
     14 CAT        -2.2860    1.1440    1.0060 c1        1 5ME      0.478700
     15 NAP        -2.8850    0.2360    1.9450 n1        1 5ME     -0.532800
     16 CAW        -3.4410    0.7420    3.2050 c1        1 5ME      0.046000
     17 CAK        -4.0120   -0.1530    4.1330 c1        1 5ME     -0.059500
     18 CAG        -4.5210    0.3240    5.3370 c1        1 5ME     -0.059500
     19 CAH        -4.4670    1.6880    5.6270 c1        1 5ME     -0.059500
     20 CAL        -3.9050    2.5700    4.7130 c1        1 5ME     -0.059500
     21 CAX        -3.3880    2.0870    3.4900 cg        1 5ME     -0.139200
     22 CAV        -2.7540    3.0390    2.5080 ce        1 5ME      0.580500
     23 OAD        -2.7440    4.2530    2.7420 o         1 5ME     -0.612300
     24 NAR        -2.2290    2.5530    1.3010 n2        1 5ME     -0.582400
     25 H1          3.0070   -0.4700   -4.8180 ha        1 5ME      0.092500
     26 H2          5.2270    0.2820   -5.0720 ha        1 5ME      0.088000
     27 H3          6.8370   -0.1220   -3.4080 ha        1 5ME      0.088000
     28 H4          6.2190   -1.3010   -1.4460 ha        1 5ME      0.101500
     29 H5          1.3500   -1.4130   -3.4810 h1        1 5ME      0.093700
     30 H6          1.2790   -3.5770   -3.4500 hc        1 5ME      0.048033
     31 H7          2.7280   -3.6520   -2.7970 hc        1 5ME      0.048033
     32 H8          1.4260   -3.5650   -1.8660 hc        1 5ME      0.048033
     33 H9          1.8830   -1.4160   -0.7050 hn        1 5ME      0.320500
     34 H10        -0.4570   -0.7610    0.4760 hc        1 5ME      0.084200
     35 H11         0.2130    0.6610    0.2560 hc        1 5ME      0.084200
     36 H12        -2.3630   -0.0580   -0.6930 hc        1 5ME      0.082700
     37 H13        -1.6810    1.3610   -0.9740 hc        1 5ME      0.082700
     38 H15        -4.0490   -1.1080    3.9310 ha        1 5ME      0.088000
     39 H16        -4.9160   -0.2950    5.9790 ha        1 5ME      0.088000
     40 H17        -4.8300    2.0270    6.4850 ha        1 5ME      0.088000
     41 H18        -3.8680    3.5250    4.9150 ha        1 5ME      0.088000
     42 H14        -1.8290    3.1300    0.7090 hn        1 5ME      0.496400
@<TRIPOS>BOND
     1    1    6 3   
     2    1   25 1   
     3    2    3 3   
     4    2   26 1   
     5    3   27 1   
     6    4    5 3   
     7    4   28 1   
     8    6    7 1   
     9    7    8 1   
    10    7    9 1   
    11    7   29 1   
    12    8   30 1   
    13    8   31 1   
    14    8   32 1   
    15    9   10 1   
    16    9   33 1   
    17   10   11 2   
    18   10   12 1   
    19   12   13 1   
    20   12   34 1   
    21   12   35 1   
    22   13   14 1   
    23   13   36 1   
    24   13   37 1   
    25   14   15 3   
    26   16   21 3   
    27   17   18 3   
    28   17   38 1   
    29   18   39 1   
    30   19   20 3   
    31   19   40 1   
    32   20   41 1   
    33   21   22 1   
    34   22   23 1   
    35   22   24 2   
    36   24   42 1   
@<TRIPOS>SUBSTRUCTURE
     1 5ME         1 TEMP              0 ****  ****    0 ROOT
