@<TRIPOS>MOLECULE
5ME
   43    45     1     0     0
SMALL
bcc


@<TRIPOS>ATOM
      1 CAJ        -0.3790   -0.9010    0.0970 ca        1 5ME     -0.200300
      2 CAF         0.9380   -1.2750   -0.2040 ca        1 5ME     -0.076000
      3 CAE         1.9730   -0.8300    0.6150 ca        1 5ME     -0.200300
      4 CAI         1.6530   -0.0090    1.7190 ca        1 5ME      0.420200
      5 NAO         0.4010    0.3570    2.0280 nb        1 5ME     -0.701000
      6 CAU        -0.6000   -0.0920    1.2240 ca        1 5ME      0.316600
      7 CAY        -2.0300    0.2580    1.5890 c3        1 5ME      0.103200
      8 CAA        -2.5660   -0.7480    2.5990 c3        1 5ME     -0.129100
      9 NAQ        -2.1170    1.6750    2.1180 n4        1 5ME     -0.679800
     10 CAS        -3.5430    2.1780    2.1620 c         1 5ME      0.543100
     11 OAC        -4.0810    2.3500    1.0790 o         1 5ME     -0.414100
     12 CAM        -4.1000    2.4050    3.5360 c3        1 5ME     -0.142400
     13 CAN        -5.5230    2.9260    3.4500 c3        1 5ME     -0.118700
     14 CAT        -6.1330    3.1620    4.8230 cc        1 5ME      0.478900
     15 NAP        -5.4360    2.8880    5.9100 nd        1 5ME     -0.645100
     16 CAW        -6.0330    3.1180    7.1590 ca        1 5ME      0.167400
     17 CAK        -5.3190    2.8400    8.3480 ca        1 5ME     -0.120000
     18 CAG        -5.9150    3.0700    9.5810 ca        1 5ME     -0.087000
     19 CAH        -7.2170    3.5740    9.6710 ca        1 5ME     -0.133000
     20 CAL        -7.9370    3.8540    8.5170 ca        1 5ME     -0.055000
     21 CAX        -7.3540    3.6300    7.2640 ca        1 5ME     -0.177600
     22 CAV        -8.1090    3.9240    6.0330 c         1 5ME      0.711100
     23 OAD        -9.2640    4.3710    5.9800 o         1 5ME     -0.588500
     24 NAR        -7.4350    3.6660    4.8200 n         1 5ME     -0.498400
     25 H1         -1.2140   -1.2390   -0.5340 ha        1 5ME      0.159000
     26 H2          1.1450   -1.9130   -1.0780 ha        1 5ME      0.169000
     27 H3          3.0200   -1.1030    0.4150 ha        1 5ME      0.174000
     28 H4          2.4450    0.3720    2.3930 h4        1 5ME      0.048100
     29 H5         -2.6640    0.2380    0.6490 hx        1 5ME      0.117700
     30 H6         -2.4980   -1.7680    2.1420 hc        1 5ME      0.080033
     31 H7         -1.9620   -0.7490    3.5390 hc        1 5ME      0.080033
     32 H8         -3.6370   -0.5430    2.8450 hc        1 5ME      0.080033
     33 H9         -1.7010    1.7050    3.0560 hn        1 5ME      0.468800
     34 H10        -3.4520    3.1440    4.0870 hc        1 5ME      0.121700
     35 H11        -4.0740    1.4350    4.1090 hc        1 5ME      0.121700
     36 H12        -5.5350    3.8940    2.8760 hc        1 5ME      0.087700
     37 H13        -6.1620    2.1890    2.8920 hc        1 5ME      0.087700
     38 H15        -4.2940    2.4440    8.2950 ha        1 5ME      0.147000
     39 H16        -5.3530    2.8520   10.5040 ha        1 5ME      0.148000
     40 H17        -7.6710    3.7490   10.6590 ha        1 5ME      0.154000
     41 H18        -8.9650    4.2530    8.5670 ha        1 5ME      0.169000
     42 H14        -7.9020    3.8510    3.9600 hn        1 5ME      0.340500
     43 HAQ2       -1.5620    2.2790    1.4970 hn        1 5ME      0.468800
@<TRIPOS>BOND
     1    1    2 ar  
     2    1    6 ar  
     3    1   25 1   
     4    2    3 ar  
     5    2   26 1   
     6    3    4 ar  
     7    3   27 1   
     8    4    5 ar  
     9    4   28 1   
    10    5    6 ar  
    11    6    7 1   
    12    7    8 1   
    13    7    9 1   
    14    7   29 1   
    15    8   30 1   
    16    8   31 1   
    17    8   32 1   
    18    9   10 1   
    19    9   33 1   
    20    9   43 1   
    21   10   11 2   
    22   10   12 1   
    23   12   13 1   
    24   12   34 1   
    25   12   35 1   
    26   13   14 1   
    27   13   36 1   
    28   13   37 1   
    29   14   15 2   
    30   14   24 1   
    31   15   16 1   
    32   16   17 ar  
    33   16   21 ar  
    34   17   18 ar  
    35   17   38 1   
    36   18   19 ar  
    37   18   39 1   
    38   19   20 ar  
    39   19   40 1   
    40   20   21 ar  
    41   20   41 1   
    42   21   22 1   
    43   22   23 2   
    44   22   24 1   
    45   24   42 1   
@<TRIPOS>SUBSTRUCTURE
     1 5ME         1 TEMP              0 ****  ****    0 ROOT
