@<TRIPOS>MOLECULE
5ME
   43    45     1     0     0
SMALL
bcc


@<TRIPOS>ATOM
      1 CAJ        -0.3890   -0.9170    0.0980 ca        1 5ME     -0.200300
      2 CAF         0.9310   -1.2660   -0.2200 ca        1 5ME     -0.076000
      3 CAE         1.9690   -0.7740    0.5660 ca        1 5ME     -0.200300
      4 CAI         1.6510    0.0680    1.6550 ca        1 5ME      0.420200
      5 NAO         0.3960    0.4110    1.9790 nb        1 5ME     -0.701000
      6 CAU        -0.6080   -0.0840    1.2070 ca        1 5ME      0.316600
      7 CAY        -2.0400    0.2410    1.5910 c3        1 5ME      0.103200
      8 CAA        -2.5310   -0.7510    2.6380 c3        1 5ME     -0.129100
      9 NAQ        -2.1510    1.6690    2.0840 n4        1 5ME     -0.679800
     10 CAS        -3.5890    2.1370    2.1450 c         1 5ME      0.543100
     11 OAC        -4.1510    2.2690    1.0680 o         1 5ME     -0.414100
     12 CAM        -4.1260    2.3850    3.5230 c3        1 5ME     -0.142400
     13 CAN        -5.5620    2.8670    3.4520 c3        1 5ME     -0.118700
     14 CAT        -6.1520    3.1200    4.8320 cc        1 5ME      0.478900
     15 NAP        -5.4280    2.8920    5.9110 nd        1 5ME     -0.645100
     16 CAW        -6.0070    3.1370    7.1660 ca        1 5ME      0.167400
     17 CAK        -5.2640    2.9060    8.3470 ca        1 5ME     -0.120000
     18 CAG        -5.8420    3.1510    9.5850 ca        1 5ME     -0.087000
     19 CAH        -7.1550    3.6240    9.6890 ca        1 5ME     -0.133000
     20 CAL        -7.9040    3.8570    8.5420 ca        1 5ME     -0.055000
     21 CAX        -7.3390    3.6170    7.2840 ca        1 5ME     -0.177600
     22 CAV        -8.1240    3.8620    6.0610 c         1 5ME      0.711100
     23 OAD        -9.2910    4.2780    6.0200 o         1 5ME     -0.588500
     24 NAR        -7.4670    3.5910    4.8410 n         1 5ME     -0.498400
     25 H1         -1.2270   -1.2920   -0.5070 ha        1 5ME      0.159000
     26 H2          1.1360   -1.9220   -1.0810 ha        1 5ME      0.169000
     27 H3          3.0190   -1.0270    0.3520 ha        1 5ME      0.174000
     28 H4          2.4460    0.4860    2.3020 h4        1 5ME      0.048100
     29 H5         -2.6910    0.1800    0.6650 hx        1 5ME      0.117700
     30 H6         -2.4460   -1.7810    2.2060 hc        1 5ME      0.080033
     31 H7         -3.6010   -0.5670    2.8990 hc        1 5ME      0.080033
     32 H8         -1.9090   -0.7120    3.5660 hc        1 5ME      0.080033
     33 H9         -1.7180    1.7340    3.0130 hn        1 5ME      0.468800
     34 H10        -3.4860    3.1530    4.0430 hc        1 5ME      0.121700
     35 H11        -4.0630    1.4300    4.1190 hc        1 5ME      0.121700
     36 H12        -6.1930    2.1000    2.9250 hc        1 5ME      0.087700
     37 H13        -5.6100    3.8200    2.8570 hc        1 5ME      0.087700
     38 H15        -4.2300    2.5350    8.2830 ha        1 5ME      0.147000
     39 H16        -5.2570    2.9690   10.5020 ha        1 5ME      0.148000
     40 H17        -7.5940    3.8110   10.6810 ha        1 5ME      0.154000
     41 H18        -8.9400    4.2300    8.6030 ha        1 5ME      0.169000
     42 H14        -7.9550    3.7440    3.9870 hn        1 5ME      0.340500
     43 HAQ2       -1.6250    2.2690    1.4370 hn        1 5ME      0.468800
@<TRIPOS>BOND
     1    1    2 ar  
     2    1    6 ar  
     3    1   25 1   
     4    2    3 ar  
     5    2   26 1   
     6    3    4 ar  
     7    3   27 1   
     8    4    5 ar  
     9    4   28 1   
    10    5    6 ar  
    11    6    7 1   
    12    7    8 1   
    13    7    9 1   
    14    7   29 1   
    15    8   30 1   
    16    8   31 1   
    17    8   32 1   
    18    9   10 1   
    19    9   33 1   
    20    9   43 1   
    21   10   11 2   
    22   10   12 1   
    23   12   13 1   
    24   12   34 1   
    25   12   35 1   
    26   13   14 1   
    27   13   36 1   
    28   13   37 1   
    29   14   15 2   
    30   14   24 1   
    31   15   16 1   
    32   16   17 ar  
    33   16   21 ar  
    34   17   18 ar  
    35   17   38 1   
    36   18   19 ar  
    37   18   39 1   
    38   19   20 ar  
    39   19   40 1   
    40   20   21 ar  
    41   20   41 1   
    42   21   22 1   
    43   22   23 2   
    44   22   24 1   
    45   24   42 1   
@<TRIPOS>SUBSTRUCTURE
     1 5ME         1 TEMP              0 ****  ****    0 ROOT
