@<TRIPOS>MOLECULE
5ME
   43    45     1     0     0
SMALL
bcc


@<TRIPOS>ATOM
      1 CAJ        -0.3830   -0.8560    0.0650 ca        1 5ME     -0.200300
      2 CAF         0.9300   -1.2470   -0.2330 ca        1 5ME     -0.076000
      3 CAE         1.9640   -0.8430    0.6070 ca        1 5ME     -0.200300
      4 CAI         1.6480   -0.0450    1.7300 ca        1 5ME      0.420200
      5 NAO         0.4000    0.3360    2.0350 nb        1 5ME     -0.701000
      6 CAU        -0.6010   -0.0720    1.2100 ca        1 5ME      0.316600
      7 CAY        -2.0280    0.2950    1.5700 c3        1 5ME      0.103200
      8 CAA        -2.5930   -0.7260    2.5480 c3        1 5ME     -0.129100
      9 NAQ        -2.0930    1.7000    2.1350 ny        1 5ME     -0.679800
     10 CAS        -3.5110    2.2270    2.1790 c         1 5ME      0.543100
     11 OAC        -4.0330    2.4390    1.0950 o         1 5ME     -0.414100
     12 CAM        -4.0780    2.4280    3.5530 c3        1 5ME     -0.142400
     13 CAN        -5.4900    2.9760    3.4660 c3        1 5ME     -0.118700
     14 CAT        -6.1110    3.1830    4.8400 cc        1 5ME      0.478900
     15 NAP        -5.4300    2.8690    5.9260 nd        1 5ME     -0.645100
     16 CAW        -6.0360    3.0740    7.1750 ca        1 5ME      0.167400
     17 CAK        -5.3390    2.7530    8.3630 ca        1 5ME     -0.120000
     18 CAG        -5.9440    2.9580    9.5950 ca        1 5ME     -0.087000
     19 CAH        -7.2390    3.4800    9.6870 ca        1 5ME     -0.133000
     20 CAL        -7.9430    3.8030    8.5330 ca        1 5ME     -0.055000
     21 CAX        -7.3510    3.6030    7.2800 ca        1 5ME     -0.177600
     22 CAV        -8.0880    3.9430    6.0500 c         1 5ME      0.711100
     23 OAD        -9.2360    4.4090    5.9970 o         1 5ME     -0.588500
     24 NAR        -7.4050    3.7070    4.8370 ns        1 5ME     -0.498400
     25 H1         -1.2180   -1.1610   -0.5830 ha        1 5ME      0.159000
     26 H2          1.1330   -1.8650   -1.1220 ha        1 5ME      0.169000
     27 H3          3.0070   -1.1310    0.4110 ha        1 5ME      0.174000
     28 H4          2.4400    0.3030    2.4210 h4        1 5ME      0.048100
     29 H5         -2.6530    0.3120    0.6240 hx        1 5ME      0.117700
     30 H6         -3.6620   -0.5080    2.7890 hc        1 5ME      0.080033
     31 H7         -1.9990   -0.7630    3.4940 hc        1 5ME      0.080033
     32 H8         -2.5390   -1.7350    2.0660 hc        1 5ME      0.080033
     33 H9         -1.5220    2.3080    1.5350 hn        1 5ME      0.468800
     34 H10        -3.4220    3.1400    4.1300 hc        1 5ME      0.121700
     35 H11        -4.0740    1.4410    4.0990 hc        1 5ME      0.121700
     36 H12        -5.4800    3.9590    2.9210 hc        1 5ME      0.087700
     37 H13        -6.1360    2.2650    2.8810 hc        1 5ME      0.087700
     38 H15        -4.3200    2.3420    8.3090 ha        1 5ME      0.147000
     39 H16        -5.3950    2.7060   10.5170 ha        1 5ME      0.148000
     40 H17        -7.7010    3.6350   10.6740 ha        1 5ME      0.154000
     41 H18        -8.9650    4.2150    8.5840 ha        1 5ME      0.169000
     42 H14        -7.8600    3.9240    3.9780 hn        1 5ME      0.340500
     43 HAQ2       -1.6870    1.6970    3.0780 hn        1 5ME      0.468800
@<TRIPOS>BOND
     1    1    2 ar  
     2    1    6 ar  
     3    1   25 1   
     4    2    3 ar  
     5    2   26 1   
     6    3    4 ar  
     7    3   27 1   
     8    4    5 ar  
     9    4   28 1   
    10    5    6 ar  
    11    6    7 1   
    12    7    8 1   
    13    7    9 1   
    14    7   29 1   
    15    8   30 1   
    16    8   31 1   
    17    8   32 1   
    18    9   10 1   
    19    9   33 1   
    20    9   43 1   
    21   10   11 2   
    22   10   12 1   
    23   12   13 1   
    24   12   34 1   
    25   12   35 1   
    26   13   14 1   
    27   13   36 1   
    28   13   37 1   
    29   14   15 2   
    30   14   24 1   
    31   15   16 1   
    32   16   17 ar  
    33   16   21 ar  
    34   17   18 ar  
    35   17   38 1   
    36   18   19 ar  
    37   18   39 1   
    38   19   20 ar  
    39   19   40 1   
    40   20   21 ar  
    41   20   41 1   
    42   21   22 1   
    43   22   23 2   
    44   22   24 1   
    45   24   42 1   
@<TRIPOS>SUBSTRUCTURE
     1 5ME         1 TEMP              0 ****  ****    0 ROOT
