@<TRIPOS>MOLECULE
5ME
   42    44     1     0     0
SMALL
bcc


@<TRIPOS>ATOM
      1 CAJ         5.6280   -0.6790   -0.8250 ca        1 5ME     -0.230300
      2 CAF         6.4340    0.1210   -1.6350 ca        1 5ME     -0.092000
      3 CAE         6.4090    1.5050   -1.4600 ca        1 5ME     -0.244300
      4 CAI         5.5630    2.0340   -0.4670 ca        1 5ME      0.397200
      5 NAO         4.7810    1.2810    0.3270 nb        1 5ME     -0.673000
      6 CAU         4.8170   -0.0620    0.1500 ca        1 5ME      0.375600
      7 CAY         3.9590   -0.9510    1.0510 c3        1 5ME      0.054400
      8 CAA         4.6290   -1.0210    2.4260 c3        1 5ME     -0.101100
      9 NAQ         2.5860   -0.5110    1.1350 n         1 5ME     -0.552900
     10 CAS         1.5780   -1.1090    0.4030 c         1 5ME      0.654100
     11 OAC         1.7690   -2.1670   -0.2320 o         1 5ME     -0.622100
     12 CAM         0.2130   -0.4420    0.4560 c3        1 5ME     -0.141400
     13 CAN        -0.7880   -1.2600   -0.3320 c3        1 5ME     -0.112700
     14 CAT        -2.1850   -0.6660   -0.3430 cc        1 5ME      0.495900
     15 NAP        -2.4510    0.4590    0.2970 nd        1 5ME     -0.634100
     16 CAW        -3.7590    0.9590    0.2520 ca        1 5ME      0.185400
     17 CAK        -4.0800    2.1630    0.9260 ca        1 5ME     -0.125000
     18 CAG        -5.3750    2.6560    0.8810 ca        1 5ME     -0.094000
     19 CAH        -6.3820    1.9840    0.1760 ca        1 5ME     -0.154000
     20 CAL        -6.0910    0.8030   -0.4920 ca        1 5ME     -0.058000
     21 CAX        -4.7900    0.2880   -0.4590 ca        1 5ME     -0.190600
     22 CAV        -4.4680   -0.9660   -1.1640 c         1 5ME      0.709100
     23 OAD        -5.2750   -1.6480   -1.8200 o         1 5ME     -0.622500
     24 NAR        -3.1350   -1.3990   -1.0700 n         1 5ME     -0.498400
     25 H1          5.6180   -1.7720   -0.9450 ha        1 5ME      0.150000
     26 H2          7.0770   -0.3340   -2.4030 ha        1 5ME      0.141000
     27 H3          7.0260    2.1700   -2.0770 ha        1 5ME      0.145000
     28 H4          5.5070    3.1230   -0.2940 h4        1 5ME      0.022100
     29 H5          3.9550   -1.9920    0.6000 h1        1 5ME      0.093700
     30 H6          4.0940   -1.7480    3.0820 hc        1 5ME      0.048033
     31 H7          5.6840   -1.3630    2.2960 hc        1 5ME      0.048033
     32 H8          4.6360   -0.0220    2.9250 hc        1 5ME      0.048033
     33 H9          2.4310    0.3930    1.5140 hn        1 5ME      0.320500
     34 H10        -0.1170   -0.3480    1.5240 hc        1 5ME      0.084200
     35 H11         0.2930    0.5930    0.0290 hc        1 5ME      0.084200
     36 H12        -0.4290   -1.3590   -1.3930 hc        1 5ME      0.082700
     37 H13        -0.8390   -2.2960    0.1020 hc        1 5ME      0.082700
     38 H15        -3.2980    2.7010    1.4830 ha        1 5ME      0.151000
     39 H16        -5.6170    3.5930    1.4070 ha        1 5ME      0.137000
     40 H17        -7.4020    2.3950    0.1540 ha        1 5ME      0.140000
     41 H18        -6.8680    0.2570   -1.0530 ha        1 5ME      0.159000
     42 H14        -2.8660   -2.2400   -1.5290 hn        1 5ME      0.338500
@<TRIPOS>BOND
     1    1    2 ar  
     2    1    6 ar  
     3    1   25 1   
     4    2    3 ar  
     5    2   26 1   
     6    3    4 ar  
     7    3   27 1   
     8    4    5 ar  
     9    4   28 1   
    10    5    6 ar  
    11    6    7 1   
    12    7    8 1   
    13    7    9 1   
    14    7   29 1   
    15    8   30 1   
    16    8   31 1   
    17    8   32 1   
    18    9   10 1   
    19    9   33 1   
    20   10   11 2   
    21   10   12 1   
    22   12   13 1   
    23   12   34 1   
    24   12   35 1   
    25   13   14 1   
    26   13   36 1   
    27   13   37 1   
    28   14   15 2   
    29   14   24 1   
    30   15   16 1   
    31   16   17 ar  
    32   16   21 ar  
    33   17   18 ar  
    34   17   38 1   
    35   18   19 ar  
    36   18   39 1   
    37   19   20 ar  
    38   19   40 1   
    39   20   21 ar  
    40   20   41 1   
    41   21   22 1   
    42   22   23 2   
    43   22   24 1   
    44   24   42 1   
@<TRIPOS>SUBSTRUCTURE
     1 5ME         1 TEMP              0 ****  ****    0 ROOT
