@<TRIPOS>MOLECULE
5MH
   16    16     1     0     0
SMALL
bcc


@<TRIPOS>ATOM
      1 S1          0.0720   -0.3110   -0.1400 s         1 5MH     -0.531400
      2 C1          1.6660   -0.1990   -0.0830 c         1 5MH      0.366600
      3 C2          2.4160   -0.2050    1.1510 cc        1 5MH     -0.198200
      4 C3          3.7780   -0.1090    1.1810 cd        1 5MH     -0.055000
      5 C4          4.5150    0.0030   -0.0340 cd        1 5MH     -0.156200
      6 C6          5.9880    0.1070   -0.0040 c3        1 5MH     -0.044900
      7 C5          3.8230    0.0110   -1.2290 cc        1 5MH      0.008600
      8 N1          2.4430   -0.0870   -1.2490 n         1 5MH     -0.118500
      9 O1          1.8970   -0.0670   -2.4610 oh        1 5MH     -0.399100
     10 H1          1.8180   -0.2930    2.0730 ha        1 5MH      0.176000
     11 H2          4.3280   -0.1160    2.1350 ha        1 5MH      0.149000
     12 H3          6.4280   -0.7960    0.4880 hc        1 5MH      0.049700
     13 H4          6.2990    1.0100    0.5790 hc        1 5MH      0.049700
     14 H5          6.4140    0.1900   -1.0350 hc        1 5MH      0.049700
     15 H6          4.3150    0.0950   -2.2160 h4        1 5MH      0.181000
     16 H7          0.9130   -0.1440   -2.3400 ho        1 5MH      0.472000
@<TRIPOS>BOND
     1    1    2 2   
     2    2    3 1   
     3    2    8 1   
     4    3    4 2   
     5    3   10 1   
     6    4    5 1   
     7    4   11 1   
     8    5    6 1   
     9    5    7 2   
    10    6   12 1   
    11    6   13 1   
    12    6   14 1   
    13    7    8 1   
    14    7   15 1   
    15    8    9 1   
    16    9   16 1   
@<TRIPOS>SUBSTRUCTURE
     1 5MH         1 TEMP              0 ****  ****    0 ROOT
