@<TRIPOS>MOLECULE
5MH
   16    16     1     0     0
SMALL
bcc


@<TRIPOS>ATOM
      1 S1          0.0750   -0.2950   -0.1240 s         1 5MH     -0.531400
      2 C1          1.6700   -0.1930   -0.0750 c         1 5MH      0.366600
      3 C2          2.4290   -0.2390    1.1520 cc        1 5MH     -0.198200
      4 C3          3.7920   -0.1500    1.1750 cd        1 5MH     -0.055000
      5 C4          4.5210   -0.0060   -0.0420 cd        1 5MH     -0.156200
      6 C6          5.9950    0.0910   -0.0210 c3        1 5MH     -0.044900
      7 C5          3.8200    0.0410   -1.2310 cc        1 5MH      0.008600
      8 N1          2.4390   -0.0500   -1.2440 n         1 5MH     -0.118500
      9 O1          1.8850    0.0090   -2.4510 oh        1 5MH     -0.399100
     10 H1          1.8380   -0.3520    2.0750 ha        1 5MH      0.176000
     11 H2          4.3490   -0.1880    2.1240 ha        1 5MH      0.149000
     12 H3          6.4340   -0.8290    0.4420 hc        1 5MH      0.049700
     13 H4          6.3140    0.9740    0.5880 hc        1 5MH      0.049700
     14 H5          6.4130    0.2020   -1.0510 hc        1 5MH      0.049700
     15 H6          4.3050    0.1520   -2.2180 h4        1 5MH      0.181000
     16 H7          0.9010   -0.0670   -2.3240 ho        1 5MH      0.472000
@<TRIPOS>BOND
     1    1    2 2   
     2    2    3 1   
     3    2    8 1   
     4    3    4 2   
     5    3   10 1   
     6    4    5 1   
     7    4   11 1   
     8    5    6 1   
     9    5    7 2   
    10    6   12 1   
    11    6   13 1   
    12    6   14 1   
    13    7    8 1   
    14    7   15 1   
    15    8    9 1   
    16    9   16 1   
@<TRIPOS>SUBSTRUCTURE
     1 5MH         1 TEMP              0 ****  ****    0 ROOT
