@<TRIPOS>MOLECULE
5MI
   19    20     1     0     0
SMALL
bcc


@<TRIPOS>ATOM
      1 C5         -0.0260    0.0070   -0.0000 ca        1 5MI     -0.107300
      2 C6          1.3870    0.0390    0.0090 ca        1 5MI     -0.112000
      3 C7          2.1130    0.0430    1.1870 ca        1 5MI     -0.143000
      4 C8          1.4000    0.0140    2.3960 ca        1 5MI     -0.051200
      5 N1          1.8380    0.0100    3.7220 na        1 5MI     -0.196400
      6 C4         -0.7400   -0.0220    1.1920 ca        1 5MI     -0.081000
      7 C9         -0.0460   -0.0190    2.4030 ca        1 5MI     -0.092800
      8 C3         -0.4480   -0.0430    3.7910 cc        1 5MI     -0.188200
      9 C2          0.7150   -0.0250    4.5550 cd        1 5MI     -0.109100
     10 CAJ        -0.7310    0.0050   -1.3040 c3        1 5MI     -0.046800
     11 H6          1.9190    0.0620   -0.9550 ha        1 5MI      0.128000
     12 H4         -1.8400   -0.0480    1.1900 ha        1 5MI      0.133000
     13 HAJ1       -1.8390   -0.0340   -1.1680 hc        1 5MI      0.040033
     14 HAJ2       -0.4200   -0.8810   -1.9120 hc        1 5MI      0.040033
     15 HAJ3       -0.4790    0.9300   -1.8820 hc        1 5MI      0.040033
     16 H7          3.2110    0.0690    1.1770 ha        1 5MI      0.130000
     17 H1          2.7760    0.0290    4.0140 hn        1 5MI      0.296700
     18 H2          0.8330   -0.0330    5.6400 h4        1 5MI      0.163000
     19 H3         -1.4690   -0.0700    4.1580 ha        1 5MI      0.156000
@<TRIPOS>BOND
     1    1    2 ar  
     2    1    6 ar  
     3    1   10 1   
     4    2    3 ar  
     5    2   11 1   
     6    3    4 ar  
     7    3   16 1   
     8    4    5 1   
     9    4    7 ar  
    10    5    9 1   
    11    5   17 1   
    12    6    7 ar  
    13    6   12 1   
    14    7    8 1   
    15    8    9 2   
    16    8   19 1   
    17    9   18 1   
    18   10   13 1   
    19   10   14 1   
    20   10   15 1   
@<TRIPOS>SUBSTRUCTURE
     1 5MI         1 TEMP              0 ****  ****    0 ROOT
