@<TRIPOS>MOLECULE
5MI
   19    12     1     0     0
SMALL
bcc


@<TRIPOS>ATOM
      1 C5         -0.4350   -0.0010   -1.4820 c1        1 5MI     -0.100000
      2 C6          0.9530   -0.0010   -1.4820 c1        1 5MI     -0.127500
      3 C7          1.6470   -0.0010   -0.2810 c1        1 5MI     -0.127500
      4 C8          0.9450   -0.0010    0.9370 c1        1 5MI     -0.043500
      5 N1          1.3720   -0.0010    2.2530 n1        1 5MI     -0.219000
      6 C4         -1.1290   -0.0010   -0.2810 c1        1 5MI     -0.081000
      7 C9         -0.4260   -0.0010    0.9370 c1        1 5MI     -0.043500
      8 C3         -0.8510   -0.0010    2.2480 c1        1 5MI     -0.200000
      9 C2          0.2670   -0.0010    3.0570 c1        1 5MI     -0.082000
     10 CAJ        -1.1440    0.0030   -2.8180 c3        1 5MI     -0.172000
     11 H6          1.4410   -0.0010   -2.3270 ha        1 5MI      0.129000
     12 H4         -2.1050   -0.0010   -0.2810 ha        1 5MI      0.133000
     13 HAJ1       -0.8930    0.8030   -3.3180 hc        1 5MI      0.079333
     14 HAJ2       -0.8870   -0.7910   -3.3250 hc        1 5MI      0.079333
     15 HAJ3       -2.1100   -0.0020   -2.6740 hc        1 5MI      0.079333
     16 H7          2.6230   -0.0010   -0.2810 ha        1 5MI      0.129000
     17 H1          2.2400   -0.0010    2.5340 DU        1 5MI      0.188667
     18 H2          0.2690   -0.0010    4.0330 DU        1 5MI      0.188667
     19 H3         -1.7790   -0.0010    2.5500 DU        1 5MI      0.188667
@<TRIPOS>BOND
     1    1    6 1   
     2    1   10 1   
     3    2    3 1   
     4    2   11 1   
     5    3   16 1   
     6    4    7 1   
     7    5    9 1   
     8    6   12 1   
     9    8    9 1   
    10   10   13 1   
    11   10   14 1   
    12   10   15 1   
@<TRIPOS>SUBSTRUCTURE
     1 5MI         1 TEMP              0 ****  ****    0 ROOT
