@<TRIPOS>MOLECULE
5MI
   19    20     1     0     0
SMALL
bcc


@<TRIPOS>ATOM
      1 C5         -1.8560    0.2010    0.0020 ca        1 5MI     -0.107300
      2 C6         -1.5520   -1.1780    0.0620 ca        1 5MI     -0.112000
      3 C7         -0.2490   -1.6440    0.0760 ca        1 5MI     -0.143000
      4 C8          0.7840   -0.6950    0.0280 ca        1 5MI     -0.051200
      5 N1          2.1730   -0.8470    0.0270 na        1 5MI     -0.196400
      6 C4         -0.8380    1.1470   -0.0460 ca        1 5MI     -0.081000
      7 C9          0.4900    0.7200   -0.0340 ca        1 5MI     -0.092800
      8 C3          1.7640    1.4020   -0.0720 cc        1 5MI     -0.188200
      9 C2          2.7540    0.4240   -0.0330 cd        1 5MI     -0.109100
     10 CAJ        -3.2780    0.6180   -0.0100 c3        1 5MI     -0.046800
     11 H6         -2.3840   -1.8990    0.0990 ha        1 5MI      0.128000
     12 H4         -1.0690    2.2210   -0.0930 ha        1 5MI      0.133000
     13 HAJ1       -3.7950    0.2600    0.9160 hc        1 5MI      0.040033
     14 HAJ2       -3.3750    1.7300   -0.0590 hc        1 5MI      0.040033
     15 HAJ3       -3.8040    0.1790   -0.8940 hc        1 5MI      0.040033
     16 H7         -0.0300   -2.7180    0.1230 ha        1 5MI      0.130000
     17 H1          2.6540   -1.7040    0.0630 hn        1 5MI      0.296700
     18 H2          3.8400    0.5340   -0.0440 h4        1 5MI      0.163000
     19 H3          1.9110    2.4760   -0.1210 ha        1 5MI      0.156000
@<TRIPOS>BOND
     1    1    2 ar  
     2    1    6 ar  
     3    1   10 1   
     4    2    3 ar  
     5    2   11 1   
     6    3    4 ar  
     7    3   16 1   
     8    4    5 1   
     9    4    7 ar  
    10    5    9 1   
    11    5   17 1   
    12    6    7 ar  
    13    6   12 1   
    14    7    8 1   
    15    8    9 2   
    16    8   19 1   
    17    9   18 1   
    18   10   13 1   
    19   10   14 1   
    20   10   15 1   
@<TRIPOS>SUBSTRUCTURE
     1 5MI         1 TEMP              0 ****  ****    0 ROOT
