@<TRIPOS>MOLECULE
5ML
   61    65     1     0     0
SMALL
bcc


@<TRIPOS>ATOM
      1 C4          0.0230    0.0890    0.1930 c3        1 5ML      0.166800
      2 C5          3.5460   -0.0430    1.5740 ca        1 5ML      0.036600
      3 C6          4.2650   -1.1950    2.0340 ca        1 5ML      0.093600
      4 N1          2.1090   -0.0720    1.5500 nh        1 5ML     -0.632000
      5 C7          4.0340   -3.3240    3.3060 c         1 5ML      0.676700
      6 C8          3.0690   -4.4130    3.6420 ca        1 5ML     -0.142600
      7 N2          3.5680   -2.3460    2.4340 ns        1 5ML     -0.460100
      8 C9          2.2190   -4.9710    2.6820 ca        1 5ML     -0.108000
      9 C10         1.3510   -6.0000    3.0460 ca        1 5ML     -0.134000
     10 C11         1.3280   -6.4700    4.3580 ca        1 5ML     -0.110000
     11 C12         2.1830   -5.9220    5.3220 ca        1 5ML     -0.082300
     12 N3          9.8510   -0.6710    2.8360 nb        1 5ML     -0.656000
     13 C13         2.1790   -6.4380    6.7100 c3        1 5ML     -0.055800
     14 C14         3.0570   -4.8930    4.9550 ca        1 5ML     -0.080000
     15 C15         5.6750   -1.1530    2.0370 ca        1 5ML     -0.144000
     16 O           5.1810   -3.3100    3.7910 o         1 5ML     -0.589100
     17 C16         6.3710   -0.0170    1.6190 cp        1 5ML     -0.012000
     18 C19         7.8290   -0.0020    1.6430 cp        1 5ML     -0.155300
     19 C27         8.5750    0.6120    0.6600 ca        1 5ML     -0.073000
     20 C26         9.9960    0.5990    0.7400 ca        1 5ML     -0.148300
     21 C25        10.8090    1.2120   -0.2470 ca        1 5ML     -0.111000
     22 C24        12.1780    1.1810   -0.1380 ca        1 5ML     -0.129000
     23 C23        12.7900    0.5340    0.9610 ca        1 5ML     -0.124000
     24 C22        12.0350   -0.0720    1.9350 ca        1 5ML     -0.164300
     25 C21        10.6060   -0.0580    1.8520 ca        1 5ML      0.395600
     26 C20         8.5380   -0.6380    2.7230 ca        1 5ML      0.427200
     27 C17         5.6600    1.1050    1.1750 ca        1 5ML     -0.141000
     28 C18         4.2720    1.0840    1.1540 ca        1 5ML     -0.129000
     29 C2          1.5190    0.8420    2.5230 c3        1 5ML      0.170300
     30 C1         -0.0210    0.8150    2.4980 c3        1 5ML      0.166800
     31 C3          1.5640    0.1160    0.2100 c3        1 5ML      0.170300
     32 N          -0.5710    0.9970    1.1630 n3        1 5ML     -0.733600
     33 C          -2.0150    0.9540    1.1480 c3        1 5ML      0.157100
     34 H1         -0.3220   -0.9750    0.3500 h1        1 5ML      0.037450
     35 H2         -0.3130    0.4120   -0.8320 h1        1 5ML      0.037450
     36 H3          2.5950   -2.3690    2.2140 hn        1 5ML      0.337500
     37 H4          2.2380   -4.6210    1.6390 ha        1 5ML      0.139000
     38 H5          0.6830   -6.4440    2.2930 ha        1 5ML      0.136000
     39 H6          0.6370   -7.2800    4.6390 ha        1 5ML      0.136000
     40 H7          2.9200   -7.2710    6.8080 hc        1 5ML      0.048033
     41 H8          1.1710   -6.8310    6.9880 hc        1 5ML      0.048033
     42 H9          2.4590   -5.6350    7.4360 hc        1 5ML      0.048033
     43 H10         3.7500   -4.4610    5.6950 ha        1 5ML      0.155000
     44 H11         6.2480   -2.0350    2.3740 ha        1 5ML      0.174000
     45 H12         8.0930    1.1110   -0.1960 ha        1 5ML      0.140000
     46 H13        10.3210    1.7120   -1.0980 ha        1 5ML      0.133000
     47 H14        12.8120    1.6550   -0.9000 ha        1 5ML      0.134000
     48 H15        13.8890    0.5220    1.0260 ha        1 5ML      0.135000
     49 H16        12.5150   -0.5760    2.7890 ha        1 5ML      0.151000
     50 H17         7.9630   -1.1380    3.5270 h4        1 5ML      0.038100
     51 H18         6.2000    2.0080    0.8540 ha        1 5ML      0.137000
     52 H19         3.7300    1.9790    0.8060 ha        1 5ML      0.137000
     53 H20         1.8660    1.9030    2.3600 h1        1 5ML      0.044200
     54 H21         1.8570    0.5180    3.5460 h1        1 5ML      0.044200
     55 H22        -0.3750   -0.1490    2.9670 h1        1 5ML      0.037450
     56 H23        -0.3880    1.6650    3.1390 h1        1 5ML      0.037450
     57 H24         1.9360   -0.7290   -0.4330 h1        1 5ML      0.044200
     58 H25         1.9120    1.0850   -0.2530 h1        1 5ML      0.044200
     59 H27        -2.4360   -0.0440    1.4540 h1        1 5ML      0.033367
     60 H28        -2.4060    1.7350    1.8510 h1        1 5ML      0.033367
     61 H29        -2.3730    1.1880    0.1110 h1        1 5ML      0.033367
@<TRIPOS>BOND
     1    1   31 1   
     2    1   32 1   
     3    1   34 1   
     4    1   35 1   
     5    2    3 ar  
     6    2    4 1   
     7    2   28 ar  
     8    3    7 1   
     9    3   15 ar  
    10    4   29 1   
    11    4   31 1   
    12    5    6 1   
    13    5    7 1   
    14    5   16 2   
    15    6    8 ar  
    16    6   14 ar  
    17    7   36 1   
    18    8    9 ar  
    19    8   37 1   
    20    9   10 ar  
    21    9   38 1   
    22   10   11 ar  
    23   10   39 1   
    24   11   13 1   
    25   11   14 ar  
    26   12   25 ar  
    27   12   26 ar  
    28   13   40 1   
    29   13   41 1   
    30   13   42 1   
    31   14   43 1   
    32   15   17 ar  
    33   15   44 1   
    34   17   18 1   
    35   17   27 ar  
    36   18   19 ar  
    37   18   26 ar  
    38   19   20 ar  
    39   19   45 1   
    40   20   21 ar  
    41   20   25 ar  
    42   21   22 ar  
    43   21   46 1   
    44   22   23 ar  
    45   22   47 1   
    46   23   24 ar  
    47   23   48 1   
    48   24   25 ar  
    49   24   49 1   
    50   26   50 1   
    51   27   28 ar  
    52   27   51 1   
    53   28   52 1   
    54   29   30 1   
    55   29   53 1   
    56   29   54 1   
    57   30   32 1   
    58   30   55 1   
    59   30   56 1   
    60   31   57 1   
    61   31   58 1   
    62   32   33 1   
    63   33   59 1   
    64   33   60 1   
    65   33   61 1   
@<TRIPOS>SUBSTRUCTURE
     1 5ML         1 TEMP              0 ****  ****    0 ROOT
