@<TRIPOS>MOLECULE
5ML
   61    65     1     0     0
SMALL
bcc


@<TRIPOS>ATOM
      1 C4          0.0220    0.0970    0.2010 c3        1 5ML      0.166800
      2 C5          3.5470   -0.0420    1.5770 ca        1 5ML      0.036600
      3 C6          4.2650   -1.1950    2.0330 ca        1 5ML      0.093600
      4 N1          2.1100   -0.0690    1.5550 nh        1 5ML     -0.632000
      5 C7          4.0340   -3.3260    3.3020 c         1 5ML      0.676700
      6 C8          3.0670   -4.4150    3.6370 ca        1 5ML     -0.142600
      7 N2          3.5670   -2.3460    2.4330 n         1 5ML     -0.460100
      8 C9          2.2150   -4.9700    2.6780 ca        1 5ML     -0.108000
      9 C10         1.3470   -5.9980    3.0420 ca        1 5ML     -0.134000
     10 C11         1.3250   -6.4710    4.3530 ca        1 5ML     -0.110000
     11 C12         2.1830   -5.9260    5.3160 ca        1 5ML     -0.082300
     12 N3          9.8530   -0.6810    2.8260 nb        1 5ML     -0.656000
     13 C13         2.1810   -6.4440    6.7030 c3        1 5ML     -0.055800
     14 C14         3.0580   -4.8970    4.9500 ca        1 5ML     -0.080000
     15 C15         5.6750   -1.1560    2.0340 ca        1 5ML     -0.144000
     16 O           5.1820   -3.3150    3.7850 o         1 5ML     -0.589100
     17 C16         6.3720   -0.0190    1.6160 cp        1 5ML     -0.012000
     18 C19         7.8300   -0.0060    1.6370 cp        1 5ML     -0.155300
     19 C27         8.5750    0.6090    0.6540 ca        1 5ML     -0.073000
     20 C26         9.9960    0.5930    0.7320 ca        1 5ML     -0.148300
     21 C25        10.8090    1.2080   -0.2550 ca        1 5ML     -0.111000
     22 C24        12.1770    1.1740   -0.1480 ca        1 5ML     -0.129000
     23 C23        12.7910    0.5240    0.9480 ca        1 5ML     -0.124000
     24 C22        12.0370   -0.0830    1.9220 ca        1 5ML     -0.164300
     25 C21        10.6080   -0.0670    1.8420 ca        1 5ML      0.395600
     26 C20         8.5400   -0.6460    2.7150 ca        1 5ML      0.427200
     27 C17         5.6620    1.1050    1.1760 ca        1 5ML     -0.141000
     28 C18         4.2740    1.0850    1.1580 ca        1 5ML     -0.129000
     29 C2          1.5230    0.8440    2.5310 c3        1 5ML      0.170300
     30 C1         -0.0170    0.8190    2.5090 c3        1 5ML      0.166800
     31 C3          1.5630    0.1230    0.2160 c3        1 5ML      0.170300
     32 N          -0.5690    1.0040    1.1740 n3        1 5ML     -0.733600
     33 C          -2.0140    0.9630    1.1620 c3        1 5ML      0.157100
     34 H1         -0.3150    0.4230   -0.8220 h1        1 5ML      0.037450
     35 H2         -0.3250   -0.9660    0.3570 h1        1 5ML      0.037450
     36 H3          2.5940   -2.3680    2.2140 hn        1 5ML      0.337500
     37 H4          2.2330   -4.6180    1.6350 ha        1 5ML      0.139000
     38 H5          0.6770   -6.4400    2.2890 ha        1 5ML      0.136000
     39 H6          0.6340   -7.2800    4.6330 ha        1 5ML      0.136000
     40 H7          2.4560   -5.6410    7.4310 hc        1 5ML      0.048033
     41 H8          2.9270   -7.2740    6.8000 hc        1 5ML      0.048033
     42 H9          1.1750   -6.8450    6.9800 hc        1 5ML      0.048033
     43 H10         3.7530   -4.4680    5.6890 ha        1 5ML      0.155000
     44 H11         6.2480   -2.0390    2.3690 ha        1 5ML      0.174000
     45 H12         8.0930    1.1090   -0.1990 ha        1 5ML      0.140000
     46 H13        10.3200    1.7100   -1.1040 ha        1 5ML      0.133000
     47 H14        12.8110    1.6490   -0.9110 ha        1 5ML      0.134000
     48 H15        13.8900    0.5100    1.0110 ha        1 5ML      0.135000
     49 H16        12.5170   -0.5890    2.7740 ha        1 5ML      0.151000
     50 H17         7.9660   -1.1470    3.5190 h4        1 5ML      0.038100
     51 H18         6.2030    2.0070    0.8550 ha        1 5ML      0.137000
     52 H19         3.7320    1.9810    0.8110 ha        1 5ML      0.137000
     53 H20         1.8710    1.9050    2.3690 h1        1 5ML      0.044200
     54 H21         1.8630    0.5180    3.5530 h1        1 5ML      0.044200
     55 H22        -0.3720   -0.1460    2.9770 h1        1 5ML      0.037450
     56 H23        -0.3820    1.6680    3.1520 h1        1 5ML      0.037450
     57 H24         1.9330   -0.7210   -0.4290 h1        1 5ML      0.044200
     58 H25         1.9120    1.0920   -0.2450 h1        1 5ML      0.044200
     59 H27        -2.4350   -0.0350    1.4670 h1        1 5ML      0.033367
     60 H28        -2.4020    1.7440    1.8670 h1        1 5ML      0.033367
     61 H29        -2.3720    1.2000    0.1270 h1        1 5ML      0.033367
@<TRIPOS>BOND
     1    1   31 1   
     2    1   32 1   
     3    1   34 1   
     4    1   35 1   
     5    2    3 ar  
     6    2    4 1   
     7    2   28 ar  
     8    3    7 1   
     9    3   15 ar  
    10    4   29 1   
    11    4   31 1   
    12    5    6 1   
    13    5    7 1   
    14    5   16 2   
    15    6    8 ar  
    16    6   14 ar  
    17    7   36 1   
    18    8    9 ar  
    19    8   37 1   
    20    9   10 ar  
    21    9   38 1   
    22   10   11 ar  
    23   10   39 1   
    24   11   13 1   
    25   11   14 ar  
    26   12   25 ar  
    27   12   26 ar  
    28   13   40 1   
    29   13   41 1   
    30   13   42 1   
    31   14   43 1   
    32   15   17 ar  
    33   15   44 1   
    34   17   18 1   
    35   17   27 ar  
    36   18   19 ar  
    37   18   26 ar  
    38   19   20 ar  
    39   19   45 1   
    40   20   21 ar  
    41   20   25 ar  
    42   21   22 ar  
    43   21   46 1   
    44   22   23 ar  
    45   22   47 1   
    46   23   24 ar  
    47   23   48 1   
    48   24   25 ar  
    49   24   49 1   
    50   26   50 1   
    51   27   28 ar  
    52   27   51 1   
    53   28   52 1   
    54   29   30 1   
    55   29   53 1   
    56   29   54 1   
    57   30   32 1   
    58   30   55 1   
    59   30   56 1   
    60   31   57 1   
    61   31   58 1   
    62   32   33 1   
    63   33   59 1   
    64   33   60 1   
    65   33   61 1   
@<TRIPOS>SUBSTRUCTURE
     1 5ML         1 TEMP              0 ****  ****    0 ROOT
