@<TRIPOS>MOLECULE
5MM
   35    34     1     0     0
SMALL
bcc


@<TRIPOS>ATOM
      1 C01        -3.1220    1.2130   -1.0240 c3        1 5MM      0.092700
      2 O02        -1.7180    1.2440   -1.0190 os        1 5MM     -0.443600
      3 C03        -1.1460    1.2190    0.2750 c3        1 5MM      0.073100
      4 C04        -1.0860    2.6460    0.8400 c3        1 5MM      0.195400
      5 O05        -1.6530    2.6630    2.1520 os        1 5MM     -0.579200
      6 P06        -1.8930    4.0570    2.8530 p5        1 5MM      1.324900
      7 O07        -2.8340    4.8720    2.0300 o         1 5MM     -0.940500
      8 O08        -2.4790    3.8370    4.2110 o         1 5MM     -0.940500
      9 O09        -0.5970    4.7770    2.9820 o         1 5MM     -0.940500
     10 C10         0.2470    0.6610    0.1950 c3        1 5MM      0.124100
     11 O11         0.8980    0.8340    1.4480 oh        1 5MM     -0.648800
     12 C12         0.1920   -0.8250   -0.1450 c3        1 5MM      0.131100
     13 O13        -0.1820   -1.5600    1.0060 oh        1 5MM     -0.614800
     14 C14         1.5490   -1.2810   -0.6150 c3        1 5MM      0.093100
     15 O15         1.9440   -0.5160   -1.6910 oh        1 5MM     -0.651800
     16 C16         1.4750   -2.7590   -1.0340 c3        1 5MM      0.191400
     17 O17         2.7560   -3.2000   -1.4570 os        1 5MM     -0.586200
     18 P18         2.9330   -4.7170   -1.8560 p5        1 5MM      1.325900
     19 O19         2.0020   -5.0490   -2.9960 o         1 5MM     -0.940833
     20 O20         4.3230   -4.9570   -2.2730 o         1 5MM     -0.940833
     21 O21         2.6080   -5.5840   -0.6760 o         1 5MM     -0.940833
     22 H01        -3.4380    0.7240   -1.8240 h1        1 5MM      0.035700
     23 H01A       -3.4790    2.1550   -1.0430 h1        1 5MM      0.035700
     24 H01B       -3.4430    0.7560   -0.2130 h1        1 5MM      0.035700
     25 H03        -1.7110    0.6350    0.8860 h1        1 5MM      0.058700
     26 H04        -1.5940    3.2510    0.2560 h1        1 5MM      0.001700
     27 H04A       -0.1250    2.9490    0.8850 h1        1 5MM      0.001700
     28 H10         0.7550    1.1420   -0.5110 h1        1 5MM      0.058700
     29 HO11        1.6870    1.2230    1.3220 ho        1 5MM      0.434000
     30 H12        -0.4810   -0.9790   -0.8730 h1        1 5MM      0.078700
     31 HO13        0.5450   -1.7010    1.5220 ho        1 5MM      0.399000
     32 H14         2.2010   -1.1790    0.1160 h1        1 5MM      0.025700
     33 HO15        2.8530   -0.4030   -1.6680 ho        1 5MM      0.437000
     34 H16         0.8320   -2.8570   -1.7760 h1        1 5MM      0.007700
     35 H16A        1.1820   -3.2920   -0.2830 h1        1 5MM      0.007700
@<TRIPOS>BOND
     1    1    2 1   
     2    1   22 1   
     3    1   23 1   
     4    1   24 1   
     5    2    3 1   
     6    3    4 1   
     7    3   10 1   
     8    3   25 1   
     9    4    5 1   
    10    4   26 1   
    11    4   27 1   
    12    5    6 1   
    13    6    7 1   
    14    6    8 1   
    15    6    9 1   
    16   10   11 1   
    17   10   12 1   
    18   10   28 1   
    19   11   29 1   
    20   12   13 1   
    21   12   14 1   
    22   12   30 1   
    23   13   31 1   
    24   14   15 1   
    25   14   16 1   
    26   14   32 1   
    27   15   33 1   
    28   16   17 1   
    29   16   34 1   
    30   16   35 1   
    31   17   18 1   
    32   18   19 1   
    33   18   20 1   
    34   18   21 1   
@<TRIPOS>SUBSTRUCTURE
     1 5MM         1 TEMP              0 ****  ****    0 ROOT
