@<TRIPOS>MOLECULE
5MM
   35    34     1     0     0
SMALL
bcc


@<TRIPOS>ATOM
      1 C01         2.7900   -2.1610    1.1620 c3        1 5MM      0.083700
      2 O02         1.7650   -1.1780    1.1650 os        1 5MM     -0.450600
      3 C03         1.8050   -0.3420    0.0010 c3        1 5MM      0.078100
      4 C04         3.0820    0.5400   -0.0010 c3        1 5MM      0.197400
      5 O05         3.9940    0.0680   -0.9160 os        1 5MM     -0.584200
      6 P06         5.6330   -0.0560   -0.3830 p5        1 5MM      1.324900
      7 O07         5.6610   -1.4060    0.2950 o         1 5MM     -0.938500
      8 O08         6.4070    0.0280   -1.6730 o         1 5MM     -0.938500
      9 O09         5.7840    1.1190    0.5480 o         1 5MM     -0.938500
     10 C10         0.4970    0.4790    0.0310 c3        1 5MM      0.120100
     11 O11         0.5090    1.4730   -0.9890 oh        1 5MM     -0.623800
     12 C12        -0.7580   -0.4030   -0.1630 c3        1 5MM      0.112100
     13 O13        -0.8670   -0.7540   -1.5380 oh        1 5MM     -0.620800
     14 C14        -2.0460    0.3030    0.3150 c3        1 5MM      0.089100
     15 O15        -1.9850    0.3880    1.7310 oh        1 5MM     -0.646800
     16 C16        -3.3300   -0.4290   -0.1610 c3        1 5MM      0.188400
     17 O17        -4.3680   -0.1610    0.6980 os        1 5MM     -0.583200
     18 P18        -5.9320    0.1010   -0.0170 p5        1 5MM      1.324900
     19 O19        -6.6230    0.9030    1.0550 o         1 5MM     -0.939500
     20 O20        -5.6110    0.8420   -1.2900 o         1 5MM     -0.939500
     21 O21        -6.4570   -1.2970   -0.2120 o         1 5MM     -0.939500
     22 H01         2.8880   -2.4690    2.2340 h1        1 5MM      0.041033
     23 H01A        2.4490   -3.0380    0.5530 h1        1 5MM      0.041033
     24 H01B        3.7760   -1.7630    0.7650 h1        1 5MM      0.041033
     25 H03         1.8030   -0.9910   -0.9180 h1        1 5MM      0.043700
     26 H04         2.7640    1.5900   -0.2760 h1        1 5MM      0.008200
     27 H04A        3.5260    0.5640    1.0340 h1        1 5MM      0.008200
     28 H10         0.4040    1.0410    0.9990 h1        1 5MM      0.080700
     29 HO11        0.9690    1.0870   -1.7450 ho        1 5MM      0.402000
     30 H12        -0.6140   -1.3740    0.3820 h1        1 5MM      0.082700
     31 HO13       -1.2500    0.0110   -1.9840 ho        1 5MM      0.397000
     32 H14        -2.0450    1.3560   -0.0860 h1        1 5MM      0.027700
     33 HO15       -2.8970    0.2810    2.0500 ho        1 5MM      0.436000
     34 H16        -3.5770   -0.0990   -1.2070 h1        1 5MM      0.007700
     35 H16A       -3.0920   -1.5350   -0.1650 h1        1 5MM      0.007700
@<TRIPOS>BOND
     1    1    2 1   
     2    1   22 1   
     3    1   23 1   
     4    1   24 1   
     5    2    3 1   
     6    3    4 1   
     7    3   10 1   
     8    3   25 1   
     9    4    5 1   
    10    4   26 1   
    11    4   27 1   
    12    5    6 1   
    13    6    7 1   
    14    6    8 1   
    15    6    9 1   
    16   10   11 1   
    17   10   12 1   
    18   10   28 1   
    19   11   29 1   
    20   12   13 1   
    21   12   14 1   
    22   12   30 1   
    23   13   31 1   
    24   14   15 1   
    25   14   16 1   
    26   14   32 1   
    27   15   33 1   
    28   16   17 1   
    29   16   34 1   
    30   16   35 1   
    31   17   18 1   
    32   18   19 1   
    33   18   20 1   
    34   18   21 1   
@<TRIPOS>SUBSTRUCTURE
     1 5MM         1 TEMP              0 ****  ****    0 ROOT
