@<TRIPOS>MOLECULE
5MN
   60    64     1     0     0
SMALL
bcc


@<TRIPOS>ATOM
      1 C4          0.0700    0.0510    0.1730 c3        1 5MN      0.166800
      2 C5          3.5670   -0.0900    1.6150 ca        1 5MN      0.029600
      3 C6          4.2740   -1.2430    2.0890 ca        1 5MN      0.090600
      4 N1          2.1310   -0.1130    1.5670 nh        1 5MN     -0.630000
      5 C7          4.0060   -3.3600    3.3730 c         1 5MN      0.675700
      6 C8          3.0300   -4.4470    3.6900 ca        1 5MN     -0.141600
      7 N2          3.5650   -2.3910    2.4790 n         1 5MN     -0.459100
      8 C9          2.2160   -5.0200    2.7080 ca        1 5MN     -0.108000
      9 C10         1.3380   -6.0460    3.0550 ca        1 5MN     -0.135000
     10 C11         1.2680   -6.4980    4.3710 ca        1 5MN     -0.111000
     11 C12         2.0840   -5.9320    5.3580 ca        1 5MN     -0.083300
     12 N3         12.0170    0.0470    1.7390 na        1 5MN     -0.195400
     13 C13         2.0080   -6.4060    6.7590 c3        1 5MN     -0.055800
     14 C14         2.9700   -4.9080    5.0090 ca        1 5MN     -0.081000
     15 C15         5.6840   -1.2080    2.1150 ca        1 5MN     -0.147000
     16 O           5.1380   -3.3450    3.8920 o         1 5MN     -0.592100
     17 C16         6.3930   -0.0760    1.7060 cp        1 5MN     -0.001000
     18 C17         5.6930    1.0480    1.2490 ca        1 5MN     -0.144000
     19 C18         4.3060    1.0330    1.2050 ca        1 5MN     -0.130000
     20 C2          1.5290    0.8100    2.5240 c3        1 5MN      0.170300
     21 C1         -0.0110    0.7900    2.4740 c3        1 5MN      0.166800
     22 C3          1.6100    0.0730    0.2170 c3        1 5MN      0.170300
     23 N          -0.5390    0.9640    1.1290 n3        1 5MN     -0.733600
     24 C          -1.9830    0.9220    1.0920 c3        1 5MN      0.157100
     25 C19         7.8550   -0.0690    1.7540 cp        1 5MN     -0.073000
     26 C26         8.5180   -0.6700    2.8510 ca        1 5MN     -0.094000
     27 C25         9.8980   -0.6890    2.9510 ca        1 5MN     -0.148000
     28 C22        10.6400   -0.0910    1.9200 ca        1 5MN     -0.041200
     29 C23        12.2380    0.7230    0.5340 cc        1 5MN     -0.110100
     30 C24        11.0230    1.0320   -0.0700 cd        1 5MN     -0.185200
     31 C21         9.9770    0.5250    0.7910 ca        1 5MN     -0.100800
     32 C20         8.5850    0.5270    0.7270 ca        1 5MN     -0.067000
     33 H1         -0.2830   -1.0110    0.3280 h1        1 5MN      0.036450
     34 H2         -0.2480    0.3720   -0.8580 h1        1 5MN      0.036450
     35 H3          2.5990   -2.4160    2.2330 hn        1 5MN      0.336500
     36 H4          2.2740   -4.6840    1.6620 ha        1 5MN      0.139000
     37 H5          0.7010   -6.5030    2.2830 ha        1 5MN      0.136000
     38 H6          0.5710   -7.3070    4.6370 ha        1 5MN      0.135000
     39 H7         12.7110   -0.2920    2.3490 hn        1 5MN      0.297700
     40 H8          1.2580   -5.7990    7.3270 hc        1 5MN      0.047700
     41 H9          1.6940   -7.4780    6.8020 hc        1 5MN      0.047700
     42 H10         2.9970   -6.3060    7.2690 hc        1 5MN      0.047700
     43 H11         3.6370   -4.4650    5.7670 ha        1 5MN      0.154000
     44 H12         6.2470   -2.0910    2.4660 ha        1 5MN      0.172000
     45 H13         6.2430    1.9470    0.9340 ha        1 5MN      0.138000
     46 H14         3.7740    1.9290    0.8450 ha        1 5MN      0.135000
     47 H15         1.8490    0.4930    3.5550 h1        1 5MN      0.043950
     48 H16         1.8830    1.8690    2.3600 h1        1 5MN      0.043950
     49 H17        -0.3760   -0.1700    2.9440 h1        1 5MN      0.036450
     50 H18        -0.3850    1.6450    3.1030 h1        1 5MN      0.036450
     51 H19         1.9700    1.0380   -0.2440 h1        1 5MN      0.043950
     52 H20         1.9900   -0.7760   -0.4160 h1        1 5MN      0.043950
     53 H22        -2.4090   -0.0740    1.3960 h1        1 5MN      0.032367
     54 H23        -2.3240    1.1510    0.0490 h1        1 5MN      0.032367
     55 H24        -2.3840    1.7070    1.7840 h1        1 5MN      0.032367
     56 H25         7.9120   -1.1310    3.6480 ha        1 5MN      0.145000
     57 H26        10.3960   -1.1570    3.8100 ha        1 5MN      0.134000
     58 H27        13.2540    0.9350    0.1990 h4        1 5MN      0.163000
     59 H28        10.8760    1.5540   -1.0100 ha        1 5MN      0.156000
     60 H29         8.0750    0.9880   -0.1320 ha        1 5MN      0.136000
@<TRIPOS>BOND
     1    1   22 1   
     2    1   23 1   
     3    1   33 1   
     4    1   34 1   
     5    2    3 ar  
     6    2    4 1   
     7    2   19 ar  
     8    3    7 1   
     9    3   15 ar  
    10    4   20 1   
    11    4   22 1   
    12    5    6 1   
    13    5    7 1   
    14    5   16 2   
    15    6    8 ar  
    16    6   14 ar  
    17    7   35 1   
    18    8    9 ar  
    19    8   36 1   
    20    9   10 ar  
    21    9   37 1   
    22   10   11 ar  
    23   10   38 1   
    24   11   13 1   
    25   11   14 ar  
    26   12   28 1   
    27   12   29 1   
    28   12   39 1   
    29   13   40 1   
    30   13   41 1   
    31   13   42 1   
    32   14   43 1   
    33   15   17 ar  
    34   15   44 1   
    35   17   18 ar  
    36   17   25 1   
    37   18   19 ar  
    38   18   45 1   
    39   19   46 1   
    40   20   21 1   
    41   20   47 1   
    42   20   48 1   
    43   21   23 1   
    44   21   49 1   
    45   21   50 1   
    46   22   51 1   
    47   22   52 1   
    48   23   24 1   
    49   24   53 1   
    50   24   54 1   
    51   24   55 1   
    52   25   26 ar  
    53   25   32 ar  
    54   26   27 ar  
    55   26   56 1   
    56   27   28 ar  
    57   27   57 1   
    58   28   31 ar  
    59   29   30 2   
    60   29   58 1   
    61   30   31 1   
    62   30   59 1   
    63   31   32 ar  
    64   32   60 1   
@<TRIPOS>SUBSTRUCTURE
     1 5MN         1 TEMP              0 ****  ****    0 ROOT
