@<TRIPOS>MOLECULE
5MN
   60    64     1     0     0
SMALL
bcc


@<TRIPOS>ATOM
      1 C4          0.0670    0.0530    0.1770 c3        1 5MN      0.166800
      2 C5          3.5650   -0.0860    1.6190 ca        1 5MN      0.029600
      3 C6          4.2720   -1.2380    2.0920 ca        1 5MN      0.090600
      4 N1          2.1280   -0.1100    1.5710 nh        1 5MN     -0.630000
      5 C7          4.0050   -3.3550    3.3780 c         1 5MN      0.675700
      6 C8          3.0290   -4.4420    3.6960 ca        1 5MN     -0.141600
      7 N2          3.5640   -2.3870    2.4840 ns        1 5MN     -0.459100
      8 C9          2.2170   -5.0170    2.7140 ca        1 5MN     -0.108000
      9 C10         1.3370   -6.0420    3.0620 ca        1 5MN     -0.135000
     10 C11         1.2650   -6.4910    4.3790 ca        1 5MN     -0.111000
     11 C12         2.0830   -5.9250    5.3650 ca        1 5MN     -0.083300
     12 N3         12.0150    0.0530    1.7410 na        1 5MN     -0.195400
     13 C13         2.0260   -6.4180    6.7610 c3        1 5MN     -0.055800
     14 C14         2.9680   -4.9000    5.0160 ca        1 5MN     -0.081000
     15 C15         5.6820   -1.2030    2.1190 ca        1 5MN     -0.147000
     16 O           5.1370   -3.3390    3.8970 o         1 5MN     -0.592100
     17 C16         6.3910   -0.0710    1.7090 cp        1 5MN     -0.001000
     18 C17         5.6900    1.0520    1.2510 ca        1 5MN     -0.144000
     19 C18         4.3030    1.0370    1.2080 ca        1 5MN     -0.130000
     20 C2          1.5260    0.8130    2.5280 c3        1 5MN      0.170300
     21 C1         -0.0130    0.7920    2.4790 c3        1 5MN      0.166800
     22 C3          1.6070    0.0760    0.2210 c3        1 5MN      0.170300
     23 N          -0.5420    0.9670    1.1330 n3        1 5MN     -0.733600
     24 C          -1.9860    0.9240    1.0970 c3        1 5MN      0.157100
     25 C19         7.8530   -0.0640    1.7560 cp        1 5MN     -0.073000
     26 C26         8.5160   -0.6630    2.8530 ca        1 5MN     -0.094000
     27 C25         9.8960   -0.6820    2.9530 ca        1 5MN     -0.148000
     28 C22        10.6380   -0.0850    1.9220 ca        1 5MN     -0.041200
     29 C23        12.2350    0.7300    0.5360 cc        1 5MN     -0.110100
     30 C24        11.0200    1.0380   -0.0690 cd        1 5MN     -0.185200
     31 C21         9.9750    0.5310    0.7930 ca        1 5MN     -0.100800
     32 C20         8.5830    0.5330    0.7290 ca        1 5MN     -0.067000
     33 H1         -0.2510    0.3740   -0.8540 h1        1 5MN      0.036450
     34 H2         -0.2850   -1.0090    0.3320 h1        1 5MN      0.036450
     35 H3          2.5970   -2.4120    2.2380 hn        1 5MN      0.336500
     36 H4          2.2750   -4.6820    1.6670 ha        1 5MN      0.139000
     37 H5          0.6990   -6.4980    2.2910 ha        1 5MN      0.136000
     38 H6          0.5660   -7.2970    4.6470 ha        1 5MN      0.135000
     39 H7         12.7090   -0.2850    2.3500 hn        1 5MN      0.297700
     40 H8          1.0070   -6.8040    7.0080 hc        1 5MN      0.047700
     41 H9          2.2830   -5.6050    7.4830 hc        1 5MN      0.047700
     42 H10         2.7600   -7.2530    6.8990 hc        1 5MN      0.047700
     43 H11         3.6320   -4.4540    5.7740 ha        1 5MN      0.154000
     44 H12         6.2450   -2.0860    2.4700 ha        1 5MN      0.172000
     45 H13         6.2400    1.9510    0.9350 ha        1 5MN      0.138000
     46 H14         3.7710    1.9320    0.8470 ha        1 5MN      0.135000
     47 H15         1.8470    0.4960    3.5580 h1        1 5MN      0.043950
     48 H16         1.8800    1.8730    2.3640 h1        1 5MN      0.043950
     49 H17        -0.3880    1.6470    3.1080 h1        1 5MN      0.036450
     50 H18        -0.3780   -0.1680    2.9490 h1        1 5MN      0.036450
     51 H19         1.9660    1.0410   -0.2400 h1        1 5MN      0.043950
     52 H20         1.9870   -0.7730   -0.4130 h1        1 5MN      0.043950
     53 H22        -2.4110   -0.0720    1.4020 h1        1 5MN      0.032367
     54 H23        -2.3270    1.1530    0.0540 h1        1 5MN      0.032367
     55 H24        -2.3870    1.7090    1.7890 h1        1 5MN      0.032367
     56 H25         7.9110   -1.1240    3.6510 ha        1 5MN      0.145000
     57 H26        10.3940   -1.1500    3.8120 ha        1 5MN      0.134000
     58 H27        13.2510    0.9420    0.2000 h4        1 5MN      0.163000
     59 H28        10.8730    1.5600   -1.0090 ha        1 5MN      0.156000
     60 H29         8.0720    0.9930   -0.1300 ha        1 5MN      0.136000
@<TRIPOS>BOND
     1    1   22 1   
     2    1   23 1   
     3    1   33 1   
     4    1   34 1   
     5    2    3 ar  
     6    2    4 1   
     7    2   19 ar  
     8    3    7 1   
     9    3   15 ar  
    10    4   20 1   
    11    4   22 1   
    12    5    6 1   
    13    5    7 1   
    14    5   16 2   
    15    6    8 ar  
    16    6   14 ar  
    17    7   35 1   
    18    8    9 ar  
    19    8   36 1   
    20    9   10 ar  
    21    9   37 1   
    22   10   11 ar  
    23   10   38 1   
    24   11   13 1   
    25   11   14 ar  
    26   12   28 1   
    27   12   29 1   
    28   12   39 1   
    29   13   40 1   
    30   13   41 1   
    31   13   42 1   
    32   14   43 1   
    33   15   17 ar  
    34   15   44 1   
    35   17   18 ar  
    36   17   25 1   
    37   18   19 ar  
    38   18   45 1   
    39   19   46 1   
    40   20   21 1   
    41   20   47 1   
    42   20   48 1   
    43   21   23 1   
    44   21   49 1   
    45   21   50 1   
    46   22   51 1   
    47   22   52 1   
    48   23   24 1   
    49   24   53 1   
    50   24   54 1   
    51   24   55 1   
    52   25   26 ar  
    53   25   32 ar  
    54   26   27 ar  
    55   26   56 1   
    56   27   28 ar  
    57   27   57 1   
    58   28   31 ar  
    59   29   30 2   
    60   29   58 1   
    61   30   31 1   
    62   30   59 1   
    63   31   32 ar  
    64   32   60 1   
@<TRIPOS>SUBSTRUCTURE
     1 5MN         1 TEMP              0 ****  ****    0 ROOT
