@<TRIPOS>MOLECULE
5MO
   59    63     1     0     0
SMALL
bcc


@<TRIPOS>ATOM
      1 C4          0.0120    0.4860    0.0160 c3        1 5MO      0.166800
      2 C5          3.5580    0.1740    1.2990 ca        1 5MO      0.033600
      3 C6          4.2780    1.1980    1.9960 ca        1 5MO      0.091600
      4 N1          2.1200    0.1880    1.3160 nh        1 5MO     -0.631000
      5 C7          4.0560    3.4620    3.0090 c         1 5MO      0.676700
      6 C8          3.0920    4.3680    3.7050 ca        1 5MO     -0.141600
      7 N2          3.5830    2.1910    2.7050 ns        1 5MO     -0.459100
      8 C9          2.2390    3.9070    4.7110 ca        1 5MO     -0.108000
      9 C10         1.3720    4.8000    5.3410 ca        1 5MO     -0.134000
     10 C11         1.3540    6.1430    4.9700 ca        1 5MO     -0.110000
     11 C12         2.2130    6.6130    3.9690 ca        1 5MO     -0.082300
     12 C13         2.2140    8.0450    3.5920 c3        1 5MO     -0.055800
     13 C14         3.0860    5.7180    3.3410 ca        1 5MO     -0.081000
     14 C15         5.6890    1.1610    1.9810 ca        1 5MO     -0.145000
     15 O           5.2070    3.8450    2.7280 o         1 5MO     -0.592100
     16 C16         6.3830    0.1620    1.2940 cp        1 5MO     -0.010000
     17 C17         5.6710   -0.8310    0.6120 ca        1 5MO     -0.142000
     18 C18         4.2830   -0.8200    0.6210 ca        1 5MO     -0.130000
     19 C2          1.5530   -1.0160    1.9150 c3        1 5MO      0.170300
     20 C1          0.0120   -0.9970    1.9260 c3        1 5MO      0.166800
     21 C3          1.5520    0.4740    0.0020 c3        1 5MO      0.170300
     22 N          -0.5610   -0.7080    0.6190 n3        1 5MO     -0.733600
     23 C          -2.0050   -0.6770    0.6430 c3        1 5MO      0.157100
     24 C19         7.8470    0.1590    1.2900 cp        1 5MO     -0.059000
     25 C26         8.5440    1.3790    1.1650 ca        1 5MO     -0.095000
     26 C25         9.9350    1.4330    1.1510 ca        1 5MO     -0.123000
     27 C22        10.6060    0.2210    1.2680 ca        1 5MO      0.062100
     28 O1         11.9880    0.0240    1.2800 os        1 5MO     -0.203200
     29 C23        12.1720   -1.3640    1.4200 cc        1 5MO     -0.015900
     30 C24        10.9770   -2.0340    1.4950 cd        1 5MO     -0.176200
     31 C21         9.9290   -1.0320    1.3980 ca        1 5MO     -0.110800
     32 C20         8.5390   -1.0540    1.4070 ca        1 5MO     -0.071000
     33 H1         -0.3390    0.5330   -1.0530 h1        1 5MO      0.036950
     34 H2         -0.3380    1.4250    0.5360 h1        1 5MO      0.036950
     35 H3          2.6080    2.0310    2.8430 hn        1 5MO      0.337500
     36 H4          2.2540    2.8520    5.0250 ha        1 5MO      0.139000
     37 H5          0.7020    4.4410    6.1360 ha        1 5MO      0.136000
     38 H6          0.6650    6.8410    5.4690 ha        1 5MO      0.135000
     39 H7          1.2060    8.5010    3.7470 hc        1 5MO      0.047700
     40 H8          2.5020    8.1760    2.5190 hc        1 5MO      0.047700
     41 H9          2.9520    8.6040    4.2220 hc        1 5MO      0.047700
     42 H10         3.7810    6.0720    2.5630 ha        1 5MO      0.154000
     43 H11         6.2630    1.9340    2.5210 ha        1 5MO      0.173000
     44 H12         6.2100   -1.6150    0.0600 ha        1 5MO      0.138000
     45 H13         3.7390   -1.6090    0.0750 ha        1 5MO      0.136000
     46 H14         1.9090   -1.0690    2.9810 h1        1 5MO      0.044200
     47 H15         1.8980   -1.9510    1.3860 h1        1 5MO      0.044200
     48 H16        -0.3360   -0.2590    2.7070 h1        1 5MO      0.036950
     49 H17        -0.3400   -2.0200    2.2370 h1        1 5MO      0.036950
     50 H18         1.9080    1.4950   -0.3100 h1        1 5MO      0.044200
     51 H19         1.9020   -0.2690   -0.7720 h1        1 5MO      0.044200
     52 H21        -2.4240    0.1470    1.2840 h1        1 5MO      0.032700
     53 H22        -2.3810   -1.6590    1.0360 h1        1 5MO      0.032700
     54 H23        -2.3810   -0.5390   -0.4040 h1        1 5MO      0.032700
     55 H24         7.9700    2.3150    1.0740 ha        1 5MO      0.151000
     56 H25        10.4770    2.3820    1.0520 ha        1 5MO      0.153000
     57 H26        13.2180   -1.6580    1.4450 h4        1 5MO      0.189000
     58 H27        10.8180   -3.1030    1.6050 ha        1 5MO      0.164000
     59 H28         7.9930   -2.0030    1.5130 ha        1 5MO      0.141000
@<TRIPOS>BOND
     1    1   21 1   
     2    1   22 1   
     3    1   33 1   
     4    1   34 1   
     5    2    3 ar  
     6    2    4 1   
     7    2   18 ar  
     8    3    7 1   
     9    3   14 ar  
    10    4   19 1   
    11    4   21 1   
    12    5    6 1   
    13    5    7 1   
    14    5   15 2   
    15    6    8 ar  
    16    6   13 ar  
    17    7   35 1   
    18    8    9 ar  
    19    8   36 1   
    20    9   10 ar  
    21    9   37 1   
    22   10   11 ar  
    23   10   38 1   
    24   11   12 1   
    25   11   13 ar  
    26   12   39 1   
    27   12   40 1   
    28   12   41 1   
    29   13   42 1   
    30   14   16 ar  
    31   14   43 1   
    32   16   17 ar  
    33   16   24 1   
    34   17   18 ar  
    35   17   44 1   
    36   18   45 1   
    37   19   20 1   
    38   19   46 1   
    39   19   47 1   
    40   20   22 1   
    41   20   48 1   
    42   20   49 1   
    43   21   50 1   
    44   21   51 1   
    45   22   23 1   
    46   23   52 1   
    47   23   53 1   
    48   23   54 1   
    49   24   25 ar  
    50   24   32 ar  
    51   25   26 ar  
    52   25   55 1   
    53   26   27 ar  
    54   26   56 1   
    55   27   28 1   
    56   27   31 ar  
    57   28   29 1   
    58   29   30 2   
    59   29   57 1   
    60   30   31 1   
    61   30   58 1   
    62   31   32 ar  
    63   32   59 1   
@<TRIPOS>SUBSTRUCTURE
     1 5MO         1 TEMP              0 ****  ****    0 ROOT
