@<TRIPOS>MOLECULE
5MO
   59    63     1     0     0
SMALL
bcc


@<TRIPOS>ATOM
      1 C4          0.0090    0.4790    0.0270 c3        1 5MO      0.166800
      2 C5          3.5570    0.1720    1.3060 ca        1 5MO      0.033600
      3 C6          4.2790    1.1980    1.9960 ca        1 5MO      0.091600
      4 N1          2.1190    0.1850    1.3250 nh        1 5MO     -0.631000
      5 C7          4.0580    3.4660    3.0010 c         1 5MO      0.676700
      6 C8          3.0950    4.3750    3.6940 ca        1 5MO     -0.141600
      7 N2          3.5850    2.1940    2.7030 n         1 5MO     -0.459100
      8 C9          2.2430    3.9180    4.7040 ca        1 5MO     -0.108000
      9 C10         1.3770    4.8140    5.3310 ca        1 5MO     -0.134000
     10 C11         1.3590    6.1560    4.9550 ca        1 5MO     -0.110000
     11 C12         2.2170    6.6210    3.9500 ca        1 5MO     -0.082300
     12 C13         2.2180    8.0520    3.5670 c3        1 5MO     -0.055800
     13 C14         3.0880    5.7240    3.3240 ca        1 5MO     -0.081000
     14 C15         5.6890    1.1600    1.9800 ca        1 5MO     -0.145000
     15 O           5.2090    3.8480    2.7170 o         1 5MO     -0.592100
     16 C16         6.3820    0.1590    1.2960 cp        1 5MO     -0.010000
     17 C17         5.6680   -0.8370    0.6190 ca        1 5MO     -0.142000
     18 C18         4.2810   -0.8260    0.6300 ca        1 5MO     -0.130000
     19 C2          1.5520   -1.0160    1.9290 c3        1 5MO      0.170300
     20 C1          0.0120   -0.9960    1.9430 c3        1 5MO      0.166800
     21 C3          1.5490    0.4650    0.0110 c3        1 5MO      0.170300
     22 N          -0.5630   -0.7130    0.6360 n3        1 5MO     -0.733600
     23 C          -2.0080   -0.6820    0.6630 c3        1 5MO      0.157100
     24 C19         7.8460    0.1550    1.2890 cp        1 5MO     -0.059000
     25 C26         8.5430    1.3750    1.1580 ca        1 5MO     -0.095000
     26 C25         9.9340    1.4290    1.1410 ca        1 5MO     -0.123000
     27 C22        10.6040    0.2170    1.2620 ca        1 5MO      0.062100
     28 O1         11.9870    0.0210    1.2730 os        1 5MO     -0.203200
     29 C23        12.1710   -1.3670    1.4190 cc        1 5MO     -0.015900
     30 C24        10.9760   -2.0370    1.4980 cd        1 5MO     -0.176200
     31 C21         9.9280   -1.0350    1.3990 ca        1 5MO     -0.110800
     32 C20         8.5380   -1.0570    1.4110 ca        1 5MO     -0.071000
     33 H1         -0.3440    0.5210   -1.0410 h1        1 5MO      0.036950
     34 H2         -0.3400    1.4200    0.5440 h1        1 5MO      0.036950
     35 H3          2.6090    2.0350    2.8430 hn        1 5MO      0.337500
     36 H4          2.2580    2.8650    5.0210 ha        1 5MO      0.139000
     37 H5          0.7080    4.4590    6.1280 ha        1 5MO      0.136000
     38 H6          0.6700    6.8560    5.4510 ha        1 5MO      0.135000
     39 H7          2.5040    8.1780    2.4940 hc        1 5MO      0.047700
     40 H8          2.9560    8.6130    4.1940 hc        1 5MO      0.047700
     41 H9          1.2090    8.5080    3.7210 hc        1 5MO      0.047700
     42 H10         3.7830    6.0740    2.5440 ha        1 5MO      0.154000
     43 H11         6.2640    1.9360    2.5160 ha        1 5MO      0.173000
     44 H12         6.2070   -1.6230    0.0690 ha        1 5MO      0.138000
     45 H13         3.7360   -1.6170    0.0880 ha        1 5MO      0.136000
     46 H14         1.8970   -1.9530    1.4040 h1        1 5MO      0.044200
     47 H15         1.9110   -1.0640    2.9950 h1        1 5MO      0.044200
     48 H16        -0.3400   -2.0180    2.2590 h1        1 5MO      0.036950
     49 H17        -0.3350   -0.2550    2.7210 h1        1 5MO      0.036950
     50 H18         1.9040    1.4850   -0.3070 h1        1 5MO      0.044200
     51 H19         1.8980   -0.2810   -0.7620 h1        1 5MO      0.044200
     52 H21        -2.4250    0.1460    1.3010 h1        1 5MO      0.032700
     53 H22        -2.3820   -1.6610    1.0600 h1        1 5MO      0.032700
     54 H23        -2.3850   -0.5480   -0.3850 h1        1 5MO      0.032700
     55 H24         7.9680    2.3110    1.0640 ha        1 5MO      0.151000
     56 H25        10.4760    2.3780    1.0380 ha        1 5MO      0.153000
     57 H26        13.2170   -1.6610    1.4430 h4        1 5MO      0.189000
     58 H27        10.8170   -3.1050    1.6140 ha        1 5MO      0.164000
     59 H28         7.9920   -2.0050    1.5210 ha        1 5MO      0.141000
@<TRIPOS>BOND
     1    1   21 1   
     2    1   22 1   
     3    1   33 1   
     4    1   34 1   
     5    2    3 ar  
     6    2    4 1   
     7    2   18 ar  
     8    3    7 1   
     9    3   14 ar  
    10    4   19 1   
    11    4   21 1   
    12    5    6 1   
    13    5    7 1   
    14    5   15 2   
    15    6    8 ar  
    16    6   13 ar  
    17    7   35 1   
    18    8    9 ar  
    19    8   36 1   
    20    9   10 ar  
    21    9   37 1   
    22   10   11 ar  
    23   10   38 1   
    24   11   12 1   
    25   11   13 ar  
    26   12   39 1   
    27   12   40 1   
    28   12   41 1   
    29   13   42 1   
    30   14   16 ar  
    31   14   43 1   
    32   16   17 ar  
    33   16   24 1   
    34   17   18 ar  
    35   17   44 1   
    36   18   45 1   
    37   19   20 1   
    38   19   46 1   
    39   19   47 1   
    40   20   22 1   
    41   20   48 1   
    42   20   49 1   
    43   21   50 1   
    44   21   51 1   
    45   22   23 1   
    46   23   52 1   
    47   23   53 1   
    48   23   54 1   
    49   24   25 ar  
    50   24   32 ar  
    51   25   26 ar  
    52   25   55 1   
    53   26   27 ar  
    54   26   56 1   
    55   27   28 1   
    56   27   31 ar  
    57   28   29 1   
    58   29   30 2   
    59   29   57 1   
    60   30   31 1   
    61   30   58 1   
    62   31   32 ar  
    63   32   59 1   
@<TRIPOS>SUBSTRUCTURE
     1 5MO         1 TEMP              0 ****  ****    0 ROOT
