@<TRIPOS>MOLECULE
5MP
   13    13     1     0     0
SMALL
bcc


@<TRIPOS>ATOM
      1 C1         -0.0190    0.0010   -0.0410 cc        1 5MP     -0.148300
      2 C2          1.4150   -0.1120   -0.0460 cc        1 5MP     -0.193000
      3 C3         -0.4180    0.1010    1.3020 cd        1 5MP     -0.167300
      4 C4         -0.8910    0.0090   -1.2150 c3        1 5MP     -0.017800
      5 C5          1.8380   -0.0770    1.2890 cd        1 5MP     -0.167300
      6 N6          0.7180    0.0530    2.1040 na        1 5MP     -0.181100
      7 HC2         2.0460   -0.2060   -0.9230 ha        1 5MP      0.150000
      8 HC3        -1.4150    0.2010    1.7280 h4        1 5MP      0.163000
      9 HC41       -0.7780   -0.9420   -1.7940 hc        1 5MP      0.036700
     10 HC42       -1.9640    0.1160   -0.9190 hc        1 5MP      0.036700
     11 HC43       -0.6260    0.8600   -1.8940 hc        1 5MP      0.036700
     12 HC5         2.8430   -0.1340    1.7070 h4        1 5MP      0.162000
     13 HN6         0.7260    0.1020    3.0870 hn        1 5MP      0.290700
@<TRIPOS>BOND
     1    1    2 1   
     2    1    3 2   
     3    1    4 1   
     4    2    5 2   
     5    2    7 1   
     6    3    6 1   
     7    3    8 1   
     8    4    9 1   
     9    4   10 1   
    10    4   11 1   
    11    5    6 1   
    12    5   12 1   
    13    6   13 1   
@<TRIPOS>SUBSTRUCTURE
     1 5MP         1 TEMP              0 ****  ****    0 ROOT
