@<TRIPOS>MOLECULE
5MP
   13    13     1     0     0
SMALL
bcc


@<TRIPOS>ATOM
      1 C1         -0.0120   -0.0010    0.7550 cc        1 5MP     -0.148300
      2 C2         -1.1710    0.0960   -0.0920 cc        1 5MP     -0.193000
      3 C3          1.1060   -0.0940   -0.0910 cd        1 5MP     -0.167300
      4 C4         -0.0060   -0.0010    2.2170 c3        1 5MP     -0.017800
      5 C5         -0.7210    0.0590   -1.4180 cd        1 5MP     -0.167300
      6 N6          0.6660   -0.0580   -1.4100 na        1 5MP     -0.181100
      7 HC2        -2.2000    0.1830    0.2400 ha        1 5MP      0.150000
      8 HC3         2.1630   -0.1830    0.1580 h4        1 5MP      0.163000
      9 HC41       -0.4480    0.9490    2.6110 hc        1 5MP      0.036700
     10 HC42       -0.6130   -0.8550    2.6110 hc        1 5MP      0.036700
     11 HC43        1.0350   -0.0960    2.6150 hc        1 5MP      0.036700
     12 HC5        -1.2830    0.1060   -2.3500 h4        1 5MP      0.162000
     13 HN6         1.2420   -0.1060   -2.2060 hn        1 5MP      0.290700
@<TRIPOS>BOND
     1    1    2 1   
     2    1    3 2   
     3    1    4 1   
     4    2    5 2   
     5    2    7 1   
     6    3    6 1   
     7    3    8 1   
     8    4    9 1   
     9    4   10 1   
    10    4   11 1   
    11    5    6 1   
    12    5   12 1   
    13    6   13 1   
@<TRIPOS>SUBSTRUCTURE
     1 5MP         1 TEMP              0 ****  ****    0 ROOT
