@<TRIPOS>MOLECULE
5MP
   13     8     1     0     0
SMALL
bcc


@<TRIPOS>ATOM
      1 C1         -0.2490   -0.0170   -0.3470 c1        1 5MP     -0.167000
      2 C2          1.1090   -0.0170   -0.3470 c1        1 5MP     -0.167000
      3 C3         -0.6730   -0.0170    0.9630 c1        1 5MP     -0.143000
      4 C4         -1.1380    0.0300   -1.5700 c2        1 5MP     -0.143000
      5 C5          1.5340   -0.0170    0.9630 c1        1 5MP     -0.143000
      6 N6          0.4300   -0.0170    1.7650 n2        1 5MP     -0.180000
      7 HC2         1.6830   -0.0170   -1.1360 DU        1 5MP      0.179000
      8 HC3        -1.6020   -0.0170    1.2660 DU        1 5MP      0.179000
      9 HC41       -1.0540    0.9030   -2.0000 ha        1 5MP      0.076000
     10 HC42       -2.0660   -0.1140   -1.3030 ha        1 5MP      0.076000
     11 HC43       -0.8670   -0.6680   -2.1960 ha        1 5MP      0.076000
     12 HC5         2.4620   -0.0170    1.2660 DU        1 5MP      0.179000
     13 HN6         0.4300   -0.0170    2.6770 DU        1 5MP      0.179000
@<TRIPOS>BOND
     1    1    2 1   
     2    1    3 1   
     3    2    5 1   
     4    3    6 1   
     5    4    9 1   
     6    4   10 1   
     7    4   11 1   
     8    5    6 1   
@<TRIPOS>SUBSTRUCTURE
     1 5MP         1 TEMP              0 ****  ****    0 ROOT
