@<TRIPOS>MOLECULE
5MP
   13    13     1     0     0
SMALL
bcc


@<TRIPOS>ATOM
      1 C1         -0.0180   -0.0010   -0.0420 cc        1 5MP     -0.148300
      2 C2          1.4150   -0.1290   -0.0390 cc        1 5MP     -0.193000
      3 C3         -0.4210    0.1210    1.2980 cd        1 5MP     -0.167300
      4 C4         -0.8840    0.0030   -1.2200 c3        1 5MP     -0.017800
      5 C5          1.8330   -0.0820    1.2960 cd        1 5MP     -0.167300
      6 N6          0.7110    0.0700    2.1050 na        1 5MP     -0.181100
      7 HC2         2.0490   -0.2420   -0.9120 ha        1 5MP      0.150000
      8 HC3        -1.4190    0.2370    1.7180 h4        1 5MP      0.163000
      9 HC41       -0.7750   -0.9550   -1.7900 hc        1 5MP      0.036700
     10 HC42       -1.9580    0.1190   -0.9300 hc        1 5MP      0.036700
     11 HC43       -0.6110    0.8450   -1.9050 hc        1 5MP      0.036700
     12 HC5         2.8350   -0.1460    1.7200 h4        1 5MP      0.162000
     13 HN6         0.7160    0.1320    3.0870 hn        1 5MP      0.290700
@<TRIPOS>BOND
     1    1    2 1   
     2    1    3 2   
     3    1    4 1   
     4    2    5 2   
     5    2    7 1   
     6    3    6 1   
     7    3    8 1   
     8    4    9 1   
     9    4   10 1   
    10    4   11 1   
    11    5    6 1   
    12    5   12 1   
    13    6   13 1   
@<TRIPOS>SUBSTRUCTURE
     1 5MP         1 TEMP              0 ****  ****    0 ROOT
