@<TRIPOS>MOLECULE
5MQ
   59    63     1     0     0
SMALL
bcc


@<TRIPOS>ATOM
      1 C4         -0.0280    0.0910   -0.1370 c3        1 5MQ      0.167300
      2 C5          3.4960   -0.2020    1.2140 ca        1 5MQ      0.036600
      3 C6          4.1550   -1.3970    1.6500 ca        1 5MQ      0.087600
      4 N1          2.0590   -0.1490    1.2090 nh        1 5MQ     -0.631000
      5 C7          3.8060   -3.5250    2.8990 c         1 5MQ      0.676700
      6 C8          2.7710   -4.5470    3.2430 ca        1 5MQ     -0.139600
      7 N2          3.3980   -2.5160    2.0370 n         1 5MQ     -0.458100
      8 C9          1.4570   -4.1890    3.5600 ca        1 5MQ     -0.110000
      9 C10         0.5350   -5.1810    3.8940 ca        1 5MQ     -0.134000
     10 C11         0.9180   -6.5210    3.9110 ca        1 5MQ     -0.111000
     11 C12         2.2340   -6.8850    3.6030 ca        1 5MQ     -0.082300
     12 C13         2.6500   -8.3060    3.6440 c3        1 5MQ     -0.055800
     13 C14         3.1600   -5.8900    3.2720 ca        1 5MQ     -0.080000
     14 C15         5.5640   -1.4320    1.6450 ca        1 5MQ     -0.142000
     15 O           4.9670   -3.6160    3.3420 o         1 5MQ     -0.595100
     16 C16         6.3200   -0.3270    1.2420 cp        1 5MQ     -0.008000
     17 C19         7.7770   -0.3900    1.2810 cp        1 5MQ     -0.027000
     18 C26         8.4500   -1.1170    2.2750 ca        1 5MQ     -0.099000
     19 C25         9.8470   -1.1880    2.3270 ca        1 5MQ     -0.149000
     20 C24        10.6500   -0.5410    1.3910 ca        1 5MQ     -0.081000
     21 C23        10.0240    0.1940    0.3890 ca        1 5MQ     -0.108800
     22 C22        10.4860    0.9850   -0.7400 cc        1 5MQ     -0.176200
     23 C21         9.3660    1.4670   -1.3680 cd        1 5MQ     -0.018900
     24 O1          8.1860    1.0480   -0.7280 os        1 5MQ     -0.204200
     25 C20         8.5960    0.2620    0.3530 ca        1 5MQ      0.071100
     26 C17         5.6670    0.8330    0.8090 ca        1 5MQ     -0.127000
     27 C18         4.2800    0.8870    0.7960 ca        1 5MQ     -0.132000
     28 C2          1.5360    0.8340    2.1520 c3        1 5MQ      0.169800
     29 C1         -0.0030    0.8990    2.1430 c3        1 5MQ      0.167300
     30 C3          1.5110    0.0250   -0.1330 c3        1 5MQ      0.169800
     31 N          -0.5570    1.0650    0.8070 n3        1 5MQ     -0.733600
     32 C          -2.0010    1.1060    0.8080 c3        1 5MQ      0.158100
     33 H1         -0.3540    0.4010   -1.1690 h1        1 5MQ      0.036200
     34 H2         -0.4360   -0.9440    0.0590 h1        1 5MQ      0.036200
     35 H3          2.4310   -2.4970    1.7920 hn        1 5MQ      0.336500
     36 H4          1.1450   -3.1340    3.5660 ha        1 5MQ      0.139000
     37 H5         -0.4980   -4.9020    4.1480 ha        1 5MQ      0.136000
     38 H6          0.1840   -7.2980    4.1720 ha        1 5MQ      0.135000
     39 H7          1.7910   -8.9820    3.4110 hc        1 5MQ      0.047700
     40 H8          3.0290   -8.5610    4.6660 hc        1 5MQ      0.047700
     41 H9          3.4680   -8.5050    2.9090 hc        1 5MQ      0.047700
     42 H10         4.2050   -6.1550    3.0420 ha        1 5MQ      0.154000
     43 H11         6.0880   -2.3500    1.9650 ha        1 5MQ      0.172000
     44 H12         7.8590   -1.6430    3.0430 ha        1 5MQ      0.152000
     45 H13        10.3190   -1.7740    3.1310 ha        1 5MQ      0.136000
     46 H14        11.7450   -0.6070    1.4400 ha        1 5MQ      0.139000
     47 H15        11.5260    1.1460   -1.0110 ha        1 5MQ      0.165000
     48 H16         9.1840    2.0910   -2.2390 h4        1 5MQ      0.189000
     49 H17         6.2560    1.7010    0.4730 ha        1 5MQ      0.148000
     50 H18         3.7860    1.8100    0.4530 ha        1 5MQ      0.136000
     51 H19         1.8670    0.5300    3.1830 h1        1 5MQ      0.044450
     52 H20         1.9430    1.8670    1.9460 h1        1 5MQ      0.044450
     53 H21        -0.3120    1.7910    2.7560 h1        1 5MQ      0.036200
     54 H22        -0.4080   -0.0250    2.6510 h1        1 5MQ      0.036200
     55 H23         1.9140    0.9540   -0.6320 h1        1 5MQ      0.044450
     56 H24         1.8250   -0.8630   -0.7480 h1        1 5MQ      0.044450
     57 H26        -2.3380    1.9330    1.4860 h1        1 5MQ      0.032367
     58 H27        -2.3570    1.3240   -0.2330 h1        1 5MQ      0.032367
     59 H28        -2.4760    0.1460    1.1530 h1        1 5MQ      0.032367
@<TRIPOS>BOND
     1    1   30 1   
     2    1   31 1   
     3    1   33 1   
     4    1   34 1   
     5    2    3 ar  
     6    2    4 1   
     7    2   27 ar  
     8    3    7 1   
     9    3   14 ar  
    10    4   28 1   
    11    4   30 1   
    12    5    6 1   
    13    5    7 1   
    14    5   15 2   
    15    6    8 ar  
    16    6   13 ar  
    17    7   35 1   
    18    8    9 ar  
    19    8   36 1   
    20    9   10 ar  
    21    9   37 1   
    22   10   11 ar  
    23   10   38 1   
    24   11   12 1   
    25   11   13 ar  
    26   12   39 1   
    27   12   40 1   
    28   12   41 1   
    29   13   42 1   
    30   14   16 ar  
    31   14   43 1   
    32   16   17 1   
    33   16   26 ar  
    34   17   18 ar  
    35   17   25 ar  
    36   18   19 ar  
    37   18   44 1   
    38   19   20 ar  
    39   19   45 1   
    40   20   21 ar  
    41   20   46 1   
    42   21   22 1   
    43   21   25 ar  
    44   22   23 2   
    45   22   47 1   
    46   23   24 1   
    47   23   48 1   
    48   24   25 1   
    49   26   27 ar  
    50   26   49 1   
    51   27   50 1   
    52   28   29 1   
    53   28   51 1   
    54   28   52 1   
    55   29   31 1   
    56   29   53 1   
    57   29   54 1   
    58   30   55 1   
    59   30   56 1   
    60   31   32 1   
    61   32   57 1   
    62   32   58 1   
    63   32   59 1   
@<TRIPOS>SUBSTRUCTURE
     1 5MQ         1 TEMP              0 ****  ****    0 ROOT
