@<TRIPOS>MOLECULE
5MQ
   59    63     1     0     0
SMALL
bcc


@<TRIPOS>ATOM
      1 C4         -0.0290    0.0870   -0.1370 c3        1 5MQ      0.167300
      2 C5          3.4960   -0.2030    1.2110 ca        1 5MQ      0.036600
      3 C6          4.1550   -1.3970    1.6500 ca        1 5MQ      0.087600
      4 N1          2.0590   -0.1500    1.2070 nh        1 5MQ     -0.631000
      5 C7          3.8070   -3.5220    2.9040 c         1 5MQ      0.676700
      6 C8          2.7720   -4.5430    3.2510 ca        1 5MQ     -0.139600
      7 N2          3.3980   -2.5150    2.0400 ns        1 5MQ     -0.458100
      8 C9          1.4580   -4.1840    3.5700 ca        1 5MQ     -0.110000
      9 C10         0.5370   -5.1740    3.9070 ca        1 5MQ     -0.134000
     10 C11         0.9190   -6.5140    3.9260 ca        1 5MQ     -0.111000
     11 C12         2.2340   -6.8800    3.6170 ca        1 5MQ     -0.082300
     12 C13         2.6490   -8.3010    3.6600 c3        1 5MQ     -0.055800
     13 C14         3.1600   -5.8860    3.2830 ca        1 5MQ     -0.080000
     14 C15         5.5640   -1.4320    1.6440 ca        1 5MQ     -0.142000
     15 O           4.9680   -3.6120    3.3460 o         1 5MQ     -0.594100
     16 C16         6.3200   -0.3290    1.2370 cp        1 5MQ     -0.008000
     17 C19         7.7770   -0.3920    1.2750 cp        1 5MQ     -0.027000
     18 C26         8.4510   -1.1160    2.2710 ca        1 5MQ     -0.099000
     19 C25         9.8480   -1.1880    2.3210 ca        1 5MQ     -0.149000
     20 C24        10.6500   -0.5430    1.3820 ca        1 5MQ     -0.081000
     21 C23        10.0240    0.1900    0.3790 ca        1 5MQ     -0.108800
     22 C22        10.4850    0.9780   -0.7510 cc        1 5MQ     -0.176200
     23 C21         9.3640    1.4590   -1.3800 cd        1 5MQ     -0.018900
     24 O1          8.1850    1.0420   -0.7380 os        1 5MQ     -0.204200
     25 C20         8.5950    0.2580    0.3450 ca        1 5MQ      0.071100
     26 C17         5.6670    0.8310    0.8020 ca        1 5MQ     -0.127000
     27 C18         4.2800    0.8840    0.7900 ca        1 5MQ     -0.132000
     28 C2          1.5370    0.8360    2.1480 c3        1 5MQ      0.169800
     29 C1         -0.0020    0.9000    2.1400 c3        1 5MQ      0.167300
     30 C3          1.5100    0.0210   -0.1350 c3        1 5MQ      0.169800
     31 N          -0.5570    1.0630    0.8040 n3        1 5MQ     -0.733600
     32 C          -2.0020    1.1040    0.8070 c3        1 5MQ      0.158100
     33 H1         -0.4370   -0.9470    0.0610 h1        1 5MQ      0.036200
     34 H2         -0.3560    0.3940   -1.1700 h1        1 5MQ      0.036200
     35 H3          2.4310   -2.4960    1.7960 hn        1 5MQ      0.336500
     36 H4          1.1470   -3.1280    3.5730 ha        1 5MQ      0.139000
     37 H5         -0.4960   -4.8950    4.1610 ha        1 5MQ      0.136000
     38 H6          0.1840   -7.2910    4.1890 ha        1 5MQ      0.135000
     39 H7          3.0380   -8.5520    4.6790 hc        1 5MQ      0.047700
     40 H8          3.4600   -8.5040    2.9180 hc        1 5MQ      0.047700
     41 H9          1.7880   -8.9770    3.4370 hc        1 5MQ      0.047700
     42 H10         4.2050   -6.1520    3.0520 ha        1 5MQ      0.154000
     43 H11         6.0890   -2.3490    1.9660 ha        1 5MQ      0.172000
     44 H12         7.8600   -1.6410    3.0390 ha        1 5MQ      0.152000
     45 H13        10.3200   -1.7720    3.1260 ha        1 5MQ      0.136000
     46 H14        11.7450   -0.6090    1.4300 ha        1 5MQ      0.139000
     47 H15        11.5240    1.1390   -1.0240 ha        1 5MQ      0.165000
     48 H16         9.1810    2.0820   -2.2520 h4        1 5MQ      0.189000
     49 H17         6.2560    1.6980    0.4640 ha        1 5MQ      0.148000
     50 H18         3.7850    1.8070    0.4450 ha        1 5MQ      0.136000
     51 H19         1.9440    1.8680    1.9400 h1        1 5MQ      0.044450
     52 H20         1.8690    0.5340    3.1800 h1        1 5MQ      0.044450
     53 H21        -0.3100    1.7940    2.7510 h1        1 5MQ      0.036200
     54 H22        -0.4070   -0.0220    2.6500 h1        1 5MQ      0.036200
     55 H23         1.9130    0.9490   -0.6370 h1        1 5MQ      0.044450
     56 H24         1.8230   -0.8690   -0.7480 h1        1 5MQ      0.044450
     57 H26        -2.3580    1.3200   -0.2350 h1        1 5MQ      0.032367
     58 H27        -2.4760    0.1450    1.1550 h1        1 5MQ      0.032367
     59 H28        -2.3380    1.9330    1.4830 h1        1 5MQ      0.032367
@<TRIPOS>BOND
     1    1   30 1   
     2    1   31 1   
     3    1   33 1   
     4    1   34 1   
     5    2    3 ar  
     6    2    4 1   
     7    2   27 ar  
     8    3    7 1   
     9    3   14 ar  
    10    4   28 1   
    11    4   30 1   
    12    5    6 1   
    13    5    7 1   
    14    5   15 2   
    15    6    8 ar  
    16    6   13 ar  
    17    7   35 1   
    18    8    9 ar  
    19    8   36 1   
    20    9   10 ar  
    21    9   37 1   
    22   10   11 ar  
    23   10   38 1   
    24   11   12 1   
    25   11   13 ar  
    26   12   39 1   
    27   12   40 1   
    28   12   41 1   
    29   13   42 1   
    30   14   16 ar  
    31   14   43 1   
    32   16   17 1   
    33   16   26 ar  
    34   17   18 ar  
    35   17   25 ar  
    36   18   19 ar  
    37   18   44 1   
    38   19   20 ar  
    39   19   45 1   
    40   20   21 ar  
    41   20   46 1   
    42   21   22 1   
    43   21   25 ar  
    44   22   23 2   
    45   22   47 1   
    46   23   24 1   
    47   23   48 1   
    48   24   25 1   
    49   26   27 ar  
    50   26   49 1   
    51   27   50 1   
    52   28   29 1   
    53   28   51 1   
    54   28   52 1   
    55   29   31 1   
    56   29   53 1   
    57   29   54 1   
    58   30   55 1   
    59   30   56 1   
    60   31   32 1   
    61   32   57 1   
    62   32   58 1   
    63   32   59 1   
@<TRIPOS>SUBSTRUCTURE
     1 5MQ         1 TEMP              0 ****  ****    0 ROOT
