@<TRIPOS>MOLECULE
5MR
   69    73     1     0     0
SMALL
bcc


@<TRIPOS>ATOM
      1 CD2         5.3730    1.5330    1.4620 ca        1 5MR     -0.094800
      2 CE3         6.0630    0.5260    0.7840 ca        1 5MR     -0.099000
      3 CZ3         7.2840    0.0960    1.2820 ca        1 5MR     -0.151000
      4 CH2         7.8370    0.6570    2.4480 ca        1 5MR     -0.114000
      5 CZ2         7.1890    1.6630    3.1480 ca        1 5MR     -0.145000
      6 CE2         5.9510    2.1080    2.6580 ca        1 5MR     -0.052200
      7 NE1         5.0700    3.0800    3.1400 na        1 5MR     -0.192400
      8 CD1         3.9800    3.1550    2.2710 cc        1 5MR     -0.088100
      9 CG          4.1150    2.2200    1.2440 cd        1 5MR     -0.152400
     10 CB          3.1860    1.9890    0.1340 c3        1 5MR     -0.014200
     11 CA          2.0840    0.9670    0.4760 c3        1 5MR      0.039700
     12 C           1.2140    0.7740   -0.7930 c         1 5MR      0.641100
     13 O           1.5540    1.2580   -1.8920 o         1 5MR     -0.623100
     14 NAA         0.0440    0.0830   -0.6560 n         1 5MR     -0.663000
     15 N           2.6140   -0.2850    0.9600 n         1 5MR     -0.543900
     16 CBD         1.9100   -1.1070    1.8060 c         1 5MR      0.660100
     17 OAC         0.7120   -0.8720    2.0840 o         1 5MR     -0.645100
     18 CBL         2.6410   -2.3370    2.3680 c3        1 5MR     -0.077700
     19 CAX         3.2580   -2.0790    3.7290 c3        1 5MR     -0.391600
     20 PBN         2.3560   -1.8230    5.1170 py        1 5MR      1.559400
     21 OAE         1.6190   -0.4160    4.8490 oh        1 5MR     -0.808400
     22 OAD         1.3510   -2.8510    5.3780 o         1 5MR     -0.884300
     23 CBG         3.4450   -1.5460    6.2710 ca        1 5MR     -0.475500
     24 CAP         4.2050   -0.3780    6.2930 ca        1 5MR     -0.028500
     25 CAJ         5.1270   -0.1560    7.3130 ca        1 5MR     -0.153500
     26 CAG         5.2850   -1.1090    8.3220 ca        1 5MR     -0.067000
     27 CAK         4.5180   -2.2760    8.3140 ca        1 5MR     -0.153500
     28 CAQ         3.5970   -2.4880    7.2910 ca        1 5MR     -0.028500
     29 CAV         1.7300   -3.5640    2.2670 c3        1 5MR     -0.117700
     30 CBF         1.6550   -4.0900    0.8970 cc        1 5MR      0.255000
     31 CAU         0.6300   -4.4130    0.0350 cd        1 5MR     -0.339600
     32 OBB         2.8770   -4.4150    0.2500 os        1 5MR     -0.130100
     33 NAY         2.6400   -4.9060   -0.9470 nc        1 5MR     -0.355300
     34 CBH         1.3040   -4.9420   -1.1570 cd        1 5MR      0.375800
     35 CBE         0.6360   -5.4190   -2.3560 ca        1 5MR     -0.134500
     36 CAN        -0.6850   -5.8840   -2.2760 ca        1 5MR     -0.101000
     37 CAH        -1.3370   -6.3370   -3.4210 ca        1 5MR     -0.135000
     38 CAF        -0.6800   -6.3300   -4.6510 ca        1 5MR     -0.116000
     39 CAI         0.6330   -5.8700   -4.7350 ca        1 5MR     -0.135000
     40 CAO         1.2940   -5.4170   -3.5940 ca        1 5MR     -0.101000
     41 HE3         5.6470    0.0960   -0.1390 ha        1 5MR      0.137000
     42 HZ3         7.8400   -0.6940    0.7570 ha        1 5MR      0.135000
     43 HH2         8.8100    0.2900    2.8070 ha        1 5MR      0.132000
     44 HZ2         7.6310    2.1020    4.0520 ha        1 5MR      0.132000
     45 HNE1        5.2570    3.6990    3.8820 hn        1 5MR      0.299700
     46 HD1         3.1720    3.8680    2.4530 h4        1 5MR      0.171000
     47 HB1         2.6680    2.9430   -0.1550 hc        1 5MR      0.078200
     48 HB2         3.7500    1.6350   -0.7730 hc        1 5MR      0.078200
     49 HA          1.4170    1.4070    1.2810 h1        1 5MR      0.083700
     50 HAA1       -0.5270   -0.0740   -1.4480 hn        1 5MR      0.323000
     51 HAA2       -0.2150   -0.3170    0.2140 hn        1 5MR      0.323000
     52 HN          3.5850   -0.4470    0.8080 hn        1 5MR      0.329500
     53 HBL         3.5200   -2.5590    1.6830 hc        1 5MR      0.073700
     54 HAX1        3.9540   -1.2040    3.5870 hc        1 5MR      0.098700
     55 HAX2        3.9320   -2.9620    3.9210 hc        1 5MR      0.098700
     56 HOAE        0.7560   -0.4620    4.4380 ho        1 5MR      0.488000
     57 HAP         4.0470    0.3680    5.4980 ha        1 5MR      0.157500
     58 HAJ         5.7250    0.7670    7.3280 ha        1 5MR      0.141500
     59 HAG         6.0140   -0.9370    9.1290 ha        1 5MR      0.137000
     60 HAK         4.6370   -3.0210    9.1140 ha        1 5MR      0.141500
     61 HAQ         2.9580   -3.3890    7.2680 ha        1 5MR      0.157500
     62 HAV1        0.6880   -3.3140    2.6110 hc        1 5MR      0.099200
     63 HAV2        2.1260   -4.3800    2.9350 hc        1 5MR      0.099200
     64 HAU        -0.4410   -4.3040    0.1710 ha        1 5MR      0.180000
     65 HAN        -1.2050   -5.8970   -1.3060 ha        1 5MR      0.142000
     66 HAH        -2.3730   -6.7020   -3.3510 ha        1 5MR      0.135500
     67 HAF        -1.1980   -6.6870   -5.5540 ha        1 5MR      0.134000
     68 HAI         1.1540   -5.8640   -5.7040 ha        1 5MR      0.135500
     69 HAO         2.3310   -5.0560   -3.6690 ha        1 5MR      0.142000
@<TRIPOS>BOND
     1    1    2 ar  
     2    1    6 ar  
     3    1    9 1   
     4    2    3 ar  
     5    2   41 1   
     6    3    4 ar  
     7    3   42 1   
     8    4    5 ar  
     9    4   43 1   
    10    5    6 ar  
    11    5   44 1   
    12    6    7 1   
    13    7    8 1   
    14    7   45 1   
    15    8    9 2   
    16    8   46 1   
    17    9   10 1   
    18   10   11 1   
    19   10   47 1   
    20   10   48 1   
    21   11   12 1   
    22   11   15 1   
    23   11   49 1   
    24   12   13 2   
    25   12   14 1   
    26   14   50 1   
    27   14   51 1   
    28   15   16 1   
    29   15   52 1   
    30   16   17 2   
    31   16   18 1   
    32   18   19 1   
    33   18   29 1   
    34   18   53 1   
    35   19   20 1   
    36   19   54 1   
    37   19   55 1   
    38   20   21 1   
    39   20   22 2   
    40   20   23 1   
    41   21   56 1   
    42   23   24 ar  
    43   23   28 ar  
    44   24   25 ar  
    45   24   57 1   
    46   25   26 ar  
    47   25   58 1   
    48   26   27 ar  
    49   26   59 1   
    50   27   28 ar  
    51   27   60 1   
    52   28   61 1   
    53   29   30 1   
    54   29   62 1   
    55   29   63 1   
    56   30   31 2   
    57   30   32 1   
    58   31   34 1   
    59   31   64 1   
    60   32   33 1   
    61   33   34 2   
    62   34   35 1   
    63   35   36 ar  
    64   35   40 ar  
    65   36   37 ar  
    66   36   65 1   
    67   37   38 ar  
    68   37   66 1   
    69   38   39 ar  
    70   38   67 1   
    71   39   40 ar  
    72   39   68 1   
    73   40   69 1   
@<TRIPOS>SUBSTRUCTURE
     1 5MR         1 TEMP              0 ****  ****    0 ROOT
