@<TRIPOS>MOLECULE
5MR
   71    75     1     0     0
SMALL
bcc


@<TRIPOS>ATOM
      1 CD2         0.1030    0.3270    0.0490 ca        1 5MR     -0.107800
      2 CE3         1.4830    0.1050    0.0660 ca        1 5MR     -0.161000
      3 CZ3         2.1520    0.1450    1.2800 ca        1 5MR     -0.109000
      4 CH2         1.4700    0.4050    2.4850 ca        1 5MR     -0.107000
      5 CZ2         0.1050    0.6480    2.5100 ca        1 5MR     -0.101000
      6 CE2        -0.5830    0.6170    1.2860 ca        1 5MR     -0.049200
      7 NE1        -1.9350    0.8490    0.9890 na        1 5MR     -0.151400
      8 CD1        -2.1150    0.7410   -0.3760 cc        1 5MR     -0.014100
      9 CG         -0.9010    0.3960   -0.9960 cd        1 5MR     -0.295400
     10 CB         -0.6410    0.2730   -2.4250 c3        1 5MR      0.007800
     11 CA         -0.6080   -1.2160   -2.8720 c3        1 5MR      0.060500
     12 C           0.1580   -1.2900   -4.2000 c         1 5MR      0.510100
     13 O           1.2620   -0.8110   -4.4000 o         1 5MR     -0.348100
     14 NAA        -0.5020   -1.9950   -5.3390 n4        1 5MR     -0.738400
     15 N           0.0430   -2.0930   -1.8480 n4        1 5MR     -0.684800
     16 CBD         0.0780   -3.5500   -2.2670 c         1 5MR      0.581100
     17 OAC        -0.7890   -3.8730   -3.0650 o         1 5MR     -0.445100
     18 CBL         1.2110   -4.3940   -1.6980 c3        1 5MR     -0.046700
     19 CAX         1.1660   -4.6270   -0.2070 c3        1 5MR     -0.386600
     20 PBN        -0.2760   -5.1110    0.5240 py        1 5MR      1.579400
     21 OAE        -1.0300   -3.6600    0.3540 oh        1 5MR     -0.851400
     22 OAD        -1.0430   -6.0180   -0.3150 o         1 5MR     -0.865300
     23 CBG        -0.0020   -5.4240    2.0490 ca        1 5MR     -0.575500
     24 CAP         0.5400   -4.4790    2.9260 ca        1 5MR     -0.025000
     25 CAJ         0.7560   -4.7890    4.2630 ca        1 5MR     -0.138000
     26 CAG         0.4230   -6.0630    4.7410 ca        1 5MR     -0.026000
     27 CAK        -0.1280   -7.0140    3.8790 ca        1 5MR     -0.138000
     28 CAQ        -0.3400   -6.6920    2.5420 ca        1 5MR     -0.025000
     29 CAV         1.3080   -5.6730   -2.5450 c3        1 5MR     -0.130700
     30 CBF         1.7180   -5.3750   -3.9260 cc        1 5MR      0.261000
     31 CAU         2.4510   -6.0050   -4.8990 cd        1 5MR     -0.296600
     32 OBB         1.2420   -4.1440   -4.4760 os        1 5MR     -0.266100
     33 NAY         1.6590   -4.0160   -5.7350 nc        1 5MR     -0.478300
     34 CBH         2.3950   -5.0970   -6.0660 cd        1 5MR      0.493800
     35 CBE         3.0350   -5.3540   -7.3410 ca        1 5MR     -0.201500
     36 CAN         3.2620   -6.6800   -7.7460 ca        1 5MR     -0.086000
     37 CAH         3.8810   -6.9390   -8.9660 ca        1 5MR     -0.126500
     38 CAF         4.2830   -5.8830   -9.7870 ca        1 5MR     -0.074000
     39 CAI         4.0610   -4.5640   -9.3870 ca        1 5MR     -0.126500
     40 CAO         3.4370   -4.2960   -8.1710 ca        1 5MR     -0.086000
     41 HE3         2.0430   -0.0240   -0.8720 ha        1 5MR      0.118000
     42 HZ3         3.2440   -0.0020    1.3100 ha        1 5MR      0.154000
     43 HH2         2.0440    0.4400    3.4260 ha        1 5MR      0.164000
     44 HZ2        -0.4160    0.8770    3.4510 ha        1 5MR      0.164000
     45 HNE1       -2.6160    1.1480    1.6440 hn        1 5MR      0.331700
     46 HD1        -3.0950    0.9220   -0.8320 h4        1 5MR      0.189000
     47 HB1        -1.4420    0.7800   -3.0300 hc        1 5MR      0.097200
     48 HB2         0.3470    0.7530   -2.6740 hc        1 5MR      0.097200
     49 HA         -1.6710   -1.5900   -2.9910 hx        1 5MR      0.136700
     50 HAA1       -1.3830   -1.5380   -5.5940 hn        1 5MR      0.495467
     51 HAA2       -0.6910   -2.9790   -5.0740 hn        1 5MR      0.495467
     52 HN         -0.5170   -2.0160   -0.9620 hn        1 5MR      0.504300
     53 HBL         2.1610   -3.8060   -1.9120 hc        1 5MR      0.091700
     54 HAX1        1.5320   -3.6910    0.2980 hc        1 5MR      0.118700
     55 HAX2        1.9610   -5.3970    0.0120 hc        1 5MR      0.118700
     56 HOAE       -1.9660   -3.6500    0.5310 ho        1 5MR      0.479000
     57 HAP         0.7840   -3.4780    2.5380 ha        1 5MR      0.149000
     58 HAJ         1.1840   -4.0410    4.9480 ha        1 5MR      0.166000
     59 HAG         0.5940   -6.3130    5.8030 ha        1 5MR      0.167000
     60 HAK        -0.3960   -8.0140    4.2570 ha        1 5MR      0.166000
     61 HAQ        -0.7870   -7.4260    1.8450 ha        1 5MR      0.149000
     62 HAV1        0.3160   -6.2170   -2.5590 hc        1 5MR      0.129700
     63 HAV2        2.0660   -6.3600   -2.0790 hc        1 5MR      0.129700
     64 HAU         2.9820   -6.9550   -4.8660 ha        1 5MR      0.208000
     65 HAN         2.9440   -7.5170   -7.1050 ha        1 5MR      0.136500
     66 HAH         4.0550   -7.9800   -9.2820 ha        1 5MR      0.157500
     67 HAF         4.7770   -6.0920  -10.7500 ha        1 5MR      0.161000
     68 HAI         4.3830   -3.7330  -10.0330 ha        1 5MR      0.157500
     69 HAO         3.2770   -3.2530   -7.8610 ha        1 5MR      0.136500
     70 HAA3        0.1310   -2.0020   -6.1600 hn        1 5MR      0.495467
     71 H2          0.9860   -1.7430   -1.6310 hn        1 5MR      0.504300
@<TRIPOS>BOND
     1    1    2 ar  
     2    1    6 ar  
     3    1    9 1   
     4    2    3 ar  
     5    2   41 1   
     6    3    4 ar  
     7    3   42 1   
     8    4    5 ar  
     9    4   43 1   
    10    5    6 ar  
    11    5   44 1   
    12    6    7 1   
    13    7    8 1   
    14    7   45 1   
    15    8    9 2   
    16    8   46 1   
    17    9   10 1   
    18   10   11 1   
    19   10   47 1   
    20   10   48 1   
    21   11   12 1   
    22   11   15 1   
    23   11   49 1   
    24   12   13 2   
    25   12   14 1   
    26   14   50 1   
    27   14   51 1   
    28   14   70 1   
    29   15   16 1   
    30   15   52 1   
    31   15   71 1   
    32   16   17 2   
    33   16   18 1   
    34   18   19 1   
    35   18   29 1   
    36   18   53 1   
    37   19   20 1   
    38   19   54 1   
    39   19   55 1   
    40   20   21 1   
    41   20   22 2   
    42   20   23 1   
    43   21   56 1   
    44   23   24 ar  
    45   23   28 ar  
    46   24   25 ar  
    47   24   57 1   
    48   25   26 ar  
    49   25   58 1   
    50   26   27 ar  
    51   26   59 1   
    52   27   28 ar  
    53   27   60 1   
    54   28   61 1   
    55   29   30 1   
    56   29   62 1   
    57   29   63 1   
    58   30   31 2   
    59   30   32 1   
    60   31   34 1   
    61   31   64 1   
    62   32   33 1   
    63   33   34 2   
    64   34   35 1   
    65   35   36 ar  
    66   35   40 ar  
    67   36   37 ar  
    68   36   65 1   
    69   37   38 ar  
    70   37   66 1   
    71   38   39 ar  
    72   38   67 1   
    73   39   40 ar  
    74   39   68 1   
    75   40   69 1   
@<TRIPOS>SUBSTRUCTURE
     1 5MR         1 TEMP              0 ****  ****    0 ROOT
