@<TRIPOS>MOLECULE
5MR
   70    74     1     0     0
SMALL
bcc


@<TRIPOS>ATOM
      1 CD2        -0.8340    0.8870    0.4530 ca        1 5MR     -0.084800
      2 CE3        -0.1490    2.1000    0.3560 ca        1 5MR     -0.107000
      3 CZ3         0.0250    2.8660    1.4980 ca        1 5MR     -0.138000
      4 CH2        -0.4760    2.4460    2.7440 ca        1 5MR     -0.112000
      5 CZ2        -1.1630    1.2500    2.8850 ca        1 5MR     -0.132000
      6 CE2        -1.3450    0.4640    1.7380 ca        1 5MR     -0.057200
      7 NE1        -1.9740   -0.7750    1.5640 na        1 5MR     -0.179400
      8 CD1        -1.8990   -1.1300    0.2230 cc        1 5MR     -0.047100
      9 CG         -1.2050   -0.1460   -0.4920 cd        1 5MR     -0.224400
     10 CB         -0.9380   -0.1240   -1.9310 c3        1 5MR      0.001800
     11 CA          0.2320   -1.0680   -2.2860 c3        1 5MR      0.138500
     12 C           0.4390   -0.9740   -3.8090 c         1 5MR      0.536100
     13 O          -0.3730   -0.6420   -4.6580 o         1 5MR     -0.434100
     14 NAA         1.7860   -1.4000   -4.3320 nz        1 5MR     -0.747400
     15 N           1.4630   -0.8260   -1.5830 n8        1 5MR     -0.952800
     16 CBD         1.4600   -4.3790   -1.7100 c         1 5MR      0.758600
     17 OAC         2.1970   -3.6720   -2.3960 o         1 5MR     -0.621500
     18 CBL         0.9570   -5.7880   -1.9600 c3        1 5MR     -0.123700
     19 CAX         0.1300   -6.1800   -0.7460 c3        1 5MR     -0.447600
     20 PBN        -0.0600   -4.8600    0.2530 py        1 5MR      1.584400
     21 OAE        -1.3470   -4.1890    0.1570 o         1 5MR     -0.860300
     22 OAD         1.0220   -3.8540   -0.5480 os        1 5MR     -0.557500
     23 CBG         0.5470   -5.1880    1.6840 ca        1 5MR     -0.537500
     24 CAP         1.8810   -5.5630    1.8640 ca        1 5MR     -0.023500
     25 CAJ         2.3810   -5.8320    3.1330 ca        1 5MR     -0.142000
     26 CAG         1.5390   -5.7270    4.2440 ca        1 5MR     -0.040000
     27 CAK         0.2040   -5.3490    4.0810 ca        1 5MR     -0.142000
     28 CAQ        -0.2840   -5.0780    2.8060 ca        1 5MR     -0.023500
     29 CAV         0.1500   -5.8900   -3.2520 c3        1 5MR     -0.109700
     30 CBF         0.9380   -5.5890   -4.4540 cc        1 5MR      0.263000
     31 CAU         1.5400   -6.3260   -5.4490 cd        1 5MR     -0.320600
     32 OBB         1.1370   -4.2140   -4.7600 os        1 5MR     -0.178100
     33 NAY         1.8380   -4.0940   -5.8750 nc        1 5MR     -0.427300
     34 CBH         2.1180   -5.3240   -6.3590 cd        1 5MR      0.440800
     35 CBE         2.8600   -5.6290   -7.5690 ca        1 5MR     -0.168500
     36 CAN         2.6190   -6.8380   -8.2410 ca        1 5MR     -0.093000
     37 CAH         3.3260   -7.1440   -9.4010 ca        1 5MR     -0.129000
     38 CAF         4.2760   -6.2520   -9.9000 ca        1 5MR     -0.094000
     39 CAI         4.5180   -5.0500   -9.2360 ca        1 5MR     -0.129000
     40 CAO         3.8130   -4.7340   -8.0760 ca        1 5MR     -0.093000
     41 HE3         0.2360    2.4410   -0.6160 ha        1 5MR      0.127000
     42 HZ3         0.5590    3.8260    1.4360 ha        1 5MR      0.137000
     43 HH2        -0.3200    3.0880    3.6250 ha        1 5MR      0.140000
     44 HZ2        -1.5570    0.9320    3.8600 ha        1 5MR      0.139000
     45 HNE1       -2.4730   -1.2640    2.2600 hn        1 5MR      0.306700
     46 HD1        -2.3120   -2.0870   -0.1230 h4        1 5MR      0.208000
     47 HB1        -0.6910    0.9210   -2.2590 hc        1 5MR      0.072200
     48 HB2        -1.8410   -0.4600   -2.5110 hc        1 5MR      0.072200
     49 HA         -0.1170   -2.1390   -2.1310 h1        1 5MR      0.090700
     50 HAA1        2.0330   -2.3140   -3.9230 hn        1 5MR      0.474467
     51 HAA2        2.4920   -0.7180   -4.0400 hn        1 5MR      0.474467
     52 HN          1.7800   -1.6520   -1.1090 hn        1 5MR      0.404800
     53 HBL         1.8620   -6.4550   -2.0650 hc        1 5MR      0.111700
     54 HAX1       -0.8720   -6.5700   -1.0780 hc        1 5MR      0.131200
     55 HAX2        0.6170   -7.0540   -0.2400 hc        1 5MR      0.131200
     56 HAP         2.5340   -5.6300    0.9790 ha        1 5MR      0.148000
     57 HAJ         3.4340   -6.1240    3.2650 ha        1 5MR      0.158000
     58 HAG         1.9310   -5.9410    5.2520 ha        1 5MR      0.157000
     59 HAK        -0.4580   -5.2630    4.9570 ha        1 5MR      0.158000
     60 HAQ        -1.3330   -4.7650    2.6510 ha        1 5MR      0.148000
     61 HAV1       -0.2410   -6.9420   -3.3390 hc        1 5MR      0.091200
     62 HAV2       -0.7380   -5.1990   -3.2100 hc        1 5MR      0.091200
     63 HAU         1.6030   -7.4030   -5.5700 ha        1 5MR      0.191000
     64 HAN         1.8650   -7.5420   -7.8560 ha        1 5MR      0.135500
     65 HAH         3.1310   -8.0920   -9.9270 ha        1 5MR      0.147000
     66 HAF         4.8330   -6.4970  -10.8180 ha        1 5MR      0.148000
     67 HAI         5.2670   -4.3450   -9.6290 ha        1 5MR      0.147000
     68 HAO         4.0120   -3.7840   -7.5600 ha        1 5MR      0.135500
     69 HAA3        1.7760   -1.4790   -5.3540 hn        1 5MR      0.474467
     70 H2          1.3750   -0.0600   -0.9410 hn        1 5MR      0.404800
@<TRIPOS>BOND
     1    1    2 ar  
     2    1    6 ar  
     3    1    9 1   
     4    2    3 ar  
     5    2   41 1   
     6    3    4 ar  
     7    3   42 1   
     8    4    5 ar  
     9    4   43 1   
    10    5    6 ar  
    11    5   44 1   
    12    6    7 1   
    13    7    8 1   
    14    7   45 1   
    15    8    9 2   
    16    8   46 1   
    17    9   10 1   
    18   10   11 1   
    19   10   47 1   
    20   10   48 1   
    21   11   12 1   
    22   11   15 1   
    23   11   49 1   
    24   12   13 2   
    25   12   14 1   
    26   14   50 1   
    27   14   51 1   
    28   14   69 1   
    29   15   52 1   
    30   15   70 1   
    31   16   17 2   
    32   16   18 1   
    33   16   22 1   
    34   18   19 1   
    35   18   29 1   
    36   18   53 1   
    37   19   20 1   
    38   19   54 1   
    39   19   55 1   
    40   20   21 2   
    41   20   22 1   
    42   20   23 1   
    43   23   24 ar  
    44   23   28 ar  
    45   24   25 ar  
    46   24   56 1   
    47   25   26 ar  
    48   25   57 1   
    49   26   27 ar  
    50   26   58 1   
    51   27   28 ar  
    52   27   59 1   
    53   28   60 1   
    54   29   30 1   
    55   29   61 1   
    56   29   62 1   
    57   30   31 2   
    58   30   32 1   
    59   31   34 1   
    60   31   63 1   
    61   32   33 1   
    62   33   34 2   
    63   34   35 1   
    64   35   36 ar  
    65   35   40 ar  
    66   36   37 ar  
    67   36   64 1   
    68   37   38 ar  
    69   37   65 1   
    70   38   39 ar  
    71   38   66 1   
    72   39   40 ar  
    73   39   67 1   
    74   40   68 1   
@<TRIPOS>SUBSTRUCTURE
     1 5MR         1 TEMP              0 ****  ****    0 ROOT
