@<TRIPOS>MOLECULE
5MR
   69    59     1     0     0
SMALL
bcc


@<TRIPOS>ATOM
      1 CD2         0.2160    3.3880   -3.9020 c1        1 5MR     -0.041000
      2 CE3        -0.6590    2.8270   -4.8560 c1        1 5MR     -0.120800
      3 CZ3        -0.1700    2.4180   -6.0940 c1        1 5MR     -0.120800
      4 CH2         1.1800    2.5620   -6.3900 c1        1 5MR     -0.120800
      5 CZ2         2.0450    3.1150   -5.4490 c1        1 5MR     -0.120800
      6 CE2         1.5500    3.5300   -4.1940 c1        1 5MR     -0.041000
      7 NE1         2.1850    4.0320   -3.0640 n1        1 5MR     -0.212000
      8 CD1         1.2420    4.1960   -2.0830 c1        1 5MR     -0.076000
      9 CG          0.0190    3.7990   -2.5940 c1        1 5MR     -0.181000
     10 CB         -1.0700    4.1100   -1.5420 c2        1 5MR     -0.084000
     11 CA         -1.3230    2.8850   -0.7060 c3        1 5MR     -0.003000
     12 C          -0.1980    1.9290   -0.8760 c2        1 5MR      0.292000
     13 O           0.9130    2.2330   -0.5050 o         1 5MR     -0.464000
     14 NAA        -0.3920    0.7510   -1.6020 n         1 5MR     -0.402000
     15 N          -1.4290    3.2610    0.6850 n         1 5MR     -0.325000
     16 CBD        -1.4680    2.2390    1.7110 c2        1 5MR      0.282000
     17 OAC        -2.5010    2.0390    2.3360 o         1 5MR     -0.305000
     18 CBL        -0.2010    1.4670    2.0620 c3        1 5MR     -0.081000
     19 CAX         0.0050    0.3530    1.0570 c3        1 5MR     -0.892000
     20 PBN         1.8050    0.1530    0.7200 p5        1 5MR      2.887000
     21 OAE         2.3770    1.4940    0.0780 oh        1 5MR     -0.839000
     22 OAD         2.5170   -0.1300    1.9880 o         1 5MR     -1.181000
     23 CBG         2.0570   -1.2400   -0.4460 c2        1 5MR     -0.835000
     24 CAP         2.0290   -1.0090   -1.8180 c2        1 5MR     -0.011000
     25 CAJ         2.1100   -2.0770   -2.7030 c1        1 5MR     -0.159000
     26 CAG         2.2180   -3.3760   -2.2190 c1        1 5MR     -0.120800
     27 CAK         2.2450   -3.6070   -0.8510 c1        1 5MR     -0.120800
     28 CAQ         2.1650   -2.5380    0.0370 c1        1 5MR     -0.037000
     29 CAV        -0.3360    0.8770    3.4440 c3        1 5MR     -0.094000
     30 CBF        -1.1940   -0.3710    3.3780 c2        1 5MR     -0.017000
     31 CAU        -0.8960   -1.5900    3.9460 c1        1 5MR     -0.232000
     32 OBB        -2.3790   -0.4890    2.7330 os        1 5MR     -0.032000
     33 NAY        -2.8300   -1.7980    2.8970 n2        1 5MR     -0.015000
     34 CBH        -1.9190   -2.4650    3.6390 c2        1 5MR     -0.071000
     35 CBE        -1.9950   -3.8210    4.0230 c1        1 5MR     -0.021000
     36 CAN        -3.2240   -4.4680    4.0420 c1        1 5MR     -0.120800
     37 CAH        -3.2950   -5.8180    4.3740 c1        1 5MR     -0.120800
     38 CAF        -2.1380   -6.5180    4.6850 c1        1 5MR     -0.120800
     39 CAI        -0.9050   -5.8690    4.6660 c1        1 5MR     -0.120800
     40 CAO        -0.8350   -4.5210    4.3350 c1        1 5MR     -0.111000
     41 HE3        -1.6100    2.7250   -4.6470 ha        1 5MR      0.135400
     42 HZ3        -0.7780    2.0280   -6.7570 ha        1 5MR      0.135400
     43 HH2         1.5250    2.2730   -7.2630 ha        1 5MR      0.135400
     44 HZ2         2.9960    3.2170   -5.6580 ha        1 5MR      0.135400
     45 HNE1        3.0780    4.2200   -2.9880 DU        1 5MR      0.208667
     46 HD1         1.4080    4.5230   -1.1720 DU        1 5MR      0.208667
     47 HB1        -1.8970    4.3700   -1.9960 ha        1 5MR      0.103000
     48 HB2        -0.7710    4.8370   -0.9710 ha        1 5MR      0.103000
     49 HA         -2.1600    2.4590   -0.9950 h1        1 5MR      0.147000
     50 HAA1        0.1750    0.0480   -1.4880 hn        1 5MR      0.230500
     51 HAA2       -1.0760    0.6940   -2.2050 hn        1 5MR      0.230500
     52 HN         -1.4820    4.1440    0.9170 hn        1 5MR      0.218000
     53 HBL         0.5590    2.0670    2.0400 hc        1 5MR      0.116000
     54 HAX1       -0.4570    0.5740    0.2290 hc        1 5MR      0.158000
     55 HAX2       -0.3570   -0.4890    1.4210 hc        1 5MR      0.158000
     56 HOAE        3.2650    1.4890    0.1230 ho        1 5MR      0.263000
     57 HAP         1.9540   -0.1070   -2.1540 ha        1 5MR      0.152000
     58 HAJ         2.0900   -1.9170   -3.6590 ha        1 5MR      0.136000
     59 HAG         2.2740   -4.1260   -2.8420 ha        1 5MR      0.135400
     60 HAK         2.3220   -4.5220   -0.5100 ha        1 5MR      0.135400
     61 HAQ         2.1840   -2.7010    0.9980 ha        1 5MR      0.135000
     62 HAV1       -0.7580    1.5330    4.0400 hc        1 5MR      0.123000
     63 HAV2        0.5450    0.6470    3.7850 hc        1 5MR      0.123000
     64 HAU        -0.1010   -1.7980    4.4720 DU        1 5MR      0.208667
     65 HAN        -4.0410   -3.9750    3.8230 ha        1 5MR      0.135400
     66 HAH        -4.1620   -6.2750    4.3870 ha        1 5MR      0.135400
     67 HAF        -2.1870   -7.4680    4.9190 ha        1 5MR      0.135400
     68 HAI        -0.0890   -6.3620    4.8860 ha        1 5MR      0.135400
     69 HAO         0.0330   -4.0640    4.3210 ha        1 5MR      0.134000
@<TRIPOS>BOND
     1    1    6 1   
     2    2    3 1   
     3    2   41 1   
     4    3   42 1   
     5    4    5 1   
     6    4   43 1   
     7    5   44 1   
     8    7    8 1   
     9    8    9 1   
    10   10   11 1   
    11   10   47 1   
    12   10   48 1   
    13   11   12 1   
    14   11   15 1   
    15   11   49 1   
    16   12   13 1   
    17   12   14 1   
    18   14   50 1   
    19   14   51 1   
    20   15   16 1   
    21   15   52 1   
    22   16   17 1   
    23   16   18 1   
    24   18   19 1   
    25   18   29 1   
    26   18   53 1   
    27   19   20 1   
    28   19   54 1   
    29   19   55 1   
    30   20   21 1   
    31   20   22 1   
    32   20   23 1   
    33   21   56 1   
    34   23   24 1   
    35   23   28 1   
    36   24   25 1   
    37   24   57 1   
    38   25   58 1   
    39   26   27 1   
    40   26   59 1   
    41   27   60 1   
    42   28   61 1   
    43   29   30 1   
    44   29   62 1   
    45   29   63 1   
    46   30   31 1   
    47   30   32 1   
    48   31   34 1   
    49   32   33 1   
    50   33   34 1   
    51   34   35 1   
    52   35   40 1   
    53   36   37 1   
    54   36   65 1   
    55   37   66 1   
    56   38   39 1   
    57   38   67 1   
    58   39   68 1   
    59   40   69 1   
@<TRIPOS>SUBSTRUCTURE
     1 5MR         1 TEMP              0 ****  ****    0 ROOT
