@<TRIPOS>MOLECULE
5MS
   43    35     1     0     0
SMALL
bcc


@<TRIPOS>ATOM
      1 C          -1.4660    0.4740   -3.8050 c1        1 5MS     -0.115000
      2 C1         -0.0810    0.4550   -3.7640 c1        1 5MS     -0.115500
      3 C2          0.5770    0.5190   -2.5460 c1        1 5MS     -0.115500
      4 C3         -0.1490    0.6020   -1.3690 c1        1 5MS      0.082000
      5 C4         -1.5340    0.6210   -1.4100 c1        1 5MS     -0.223000
      6 C5         -2.1930    0.5570   -2.6280 c1        1 5MS      0.091000
      7 N           0.5240    0.7910   -0.1360 n3        1 5MS     -0.246000
      8 C6          1.3030   -0.2570    0.4150 c2        1 5MS      0.153000
      9 C7          1.8460   -0.1220    1.6600 c2        1 5MS     -0.281000
     10 C8          2.6430   -1.1070    2.1660 c1        1 5MS      0.089000
     11 N9          2.8920   -2.2070    1.4400 n1        1 5MS     -0.193000
     12 C10         2.3500   -2.3410    0.1970 c1        1 5MS      0.001000
     13 N11         1.5540   -1.3580   -0.3090 n1        1 5MS     -0.221000
     14 C12         3.1920   -0.9730    3.4330 c1        1 5MS     -0.053000
     15 C13         4.4870   -0.5010    3.5800 c1        1 5MS     -0.115500
     16 C14         5.0550   -0.4150    4.8410 c1        1 5MS     -0.115500
     17 C15         4.3270   -0.8020    5.9560 c1        1 5MS     -0.115500
     18 C16         3.0320   -1.2730    5.8090 c1        1 5MS     -0.115500
     19 C17         2.4650   -1.3590    4.5480 c1        1 5MS     -0.109000
     20 C18        -2.1810    0.5030   -5.1370 c3        1 5MS     -0.176000
     21 N19        -3.6090    0.5050   -2.6650 n3        1 5MS     -0.834000
     22 S          -4.4920    1.5680   -1.7800 s4        1 5MS      2.042800
     23 C20        -6.1510    0.9740   -1.5860 c2        1 5MS     -0.950000
     24 O          -3.8780    1.8240   -0.5070 o         1 5MS     -0.540400
     25 O21        -4.4730    2.8780   -2.3680 o         1 5MS     -0.540400
     26 H1          0.4310    0.3970   -4.5930 ha        1 5MS      0.142167
     27 H2          1.5530    0.5060   -2.5180 ha        1 5MS      0.142167
     28 H4         -2.0460    0.6790   -0.5810 ha        1 5MS      0.166000
     29 HN          0.4670    1.5920    0.2970 hn        1 5MS      0.230000
     30 H7          1.6640    0.6780    2.1880 ha        1 5MS      0.156000
     31 H10         2.5320   -3.1420   -0.3300 ha        1 5MS      0.191000
     32 H13         5.0000   -0.2290    2.7950 ha        1 5MS      0.142167
     33 H14         5.9670   -0.0830    4.9450 ha        1 5MS      0.142167
     34 H15         4.7270   -0.7410    6.8450 ha        1 5MS      0.142167
     35 H16         2.5200   -1.5450    6.5950 ha        1 5MS      0.142167
     36 H17         1.5530   -1.6910    4.4440 ha        1 5MS      0.135000
     37 H18        -1.5850    0.1620   -5.8350 hc        1 5MS      0.084000
     38 H18A       -2.9830   -0.0580   -5.0890 hc        1 5MS      0.084000
     39 H18B       -2.4400    1.4250   -5.3490 hc        1 5MS      0.084000
     40 HN19       -4.0280   -0.1030   -3.1990 hn        1 5MS      0.256000
     41 H20        -6.2850    0.6750   -0.6630 ha        1 5MS      0.158667
     42 H20A       -6.3040    0.2240   -2.1980 ha        1 5MS      0.158667
     43 H20B       -6.7830    1.6960   -1.7900 ha        1 5MS      0.158667
@<TRIPOS>BOND
     1    1    6 1   
     2    1   20 1   
     3    2    3 1   
     4    2   26 1   
     5    3   27 1   
     6    4    5 1   
     7    4    7 1   
     8    5   28 1   
     9    6   21 1   
    10    7    8 1   
    11    7   29 1   
    12    8    9 1   
    13    8   13 1   
    14    9   10 1   
    15    9   30 1   
    16   11   12 1   
    17   12   31 1   
    18   14   19 1   
    19   15   16 1   
    20   15   32 1   
    21   16   33 1   
    22   17   18 1   
    23   17   34 1   
    24   18   35 1   
    25   19   36 1   
    26   20   37 1   
    27   20   38 1   
    28   20   39 1   
    29   21   22 1   
    30   21   40 1   
    31   22   24 1   
    32   22   25 1   
    33   23   41 1   
    34   23   42 1   
    35   23   43 1   
@<TRIPOS>SUBSTRUCTURE
     1 5MS         1 TEMP              0 ****  ****    0 ROOT
