@<TRIPOS>MOLECULE
5MS
   43    45     1     0     0
SMALL
bcc


@<TRIPOS>ATOM
      1 C          -0.1400   -0.0330   -0.0810 ca        1 5MS     -0.120300
      2 C1          1.2380   -0.1240   -0.2850 ca        1 5MS     -0.096000
      3 C2          2.1440   -0.0710    0.7660 ca        1 5MS     -0.125000
      4 C3          1.6720    0.0470    2.0880 ca        1 5MS      0.159600
      5 C4          0.2820    0.1270    2.3170 ca        1 5MS     -0.216000
      6 C5         -0.6270    0.1100    1.2420 ca        1 5MS      0.168600
      7 N           2.5520    0.1720    3.1860 nu        1 5MS     -0.721300
      8 C6          3.5980   -0.7270    3.4440 ca        1 5MS      0.673200
      9 C7          4.2780   -0.6240    4.7010 ca        1 5MS     -0.411600
     10 C8          5.3730   -1.4770    4.9360 cp        1 5MS      0.524800
     11 N9          5.7860   -2.3820    4.0030 nb        1 5MS     -0.718000
     12 C10         5.0720   -2.4060    2.8530 ca        1 5MS      0.663900
     13 N11         4.0030   -1.6470    2.5090 nb        1 5MS     -0.744000
     14 C12         6.0880   -1.3860    6.2210 cp        1 5MS     -0.160500
     15 C13         7.4830   -1.4980    6.2710 ca        1 5MS     -0.096500
     16 C14         8.1470   -1.3940    7.4930 ca        1 5MS     -0.137000
     17 C15         7.4260   -1.1870    8.6680 ca        1 5MS     -0.114000
     18 C16         6.0350   -1.0850    8.6230 ca        1 5MS     -0.137000
     19 C17         5.3660   -1.1840    7.4050 ca        1 5MS     -0.096500
     20 C18        -1.0610   -0.1010   -1.2390 c3        1 5MS     -0.050800
     21 N19        -2.0100    0.2130    1.4820 nu        1 5MS     -0.786500
     22 S          -2.7590    1.0900    2.6290 s6        1 5MS      1.470900
     23 C20        -2.5210    2.6940    2.1200 c3        1 5MS     -0.370300
     24 O          -4.1360    0.7990    2.5500 o         1 5MS     -0.652300
     25 O21        -2.1500    0.9450    3.8890 o         1 5MS     -0.652300
     26 H1          1.6210   -0.2340   -1.3130 ha        1 5MS      0.139000
     27 H2          3.2230   -0.1270    0.5530 ha        1 5MS      0.160000
     28 H4         -0.0960    0.2010    3.3530 ha        1 5MS      0.168000
     29 HN          2.1260    0.5340    4.0160 hn        1 5MS      0.432800
     30 H7          3.9710    0.1070    5.4590 ha        1 5MS      0.156000
     31 H10         5.3950   -3.1470    2.0900 h5        1 5MS      0.054100
     32 H13         8.0570   -1.6700    5.3470 ha        1 5MS      0.142500
     33 H14         9.2430   -1.4790    7.5270 ha        1 5MS      0.135500
     34 H15         7.9520   -1.1070    9.6310 ha        1 5MS      0.134000
     35 H16         5.4640   -0.9300    9.5500 ha        1 5MS      0.135500
     36 H17         4.2680   -1.1150    7.3760 ha        1 5MS      0.142500
     37 H18        -1.7200    0.8030   -1.2780 hc        1 5MS      0.044700
     38 H18A       -1.7120   -1.0100   -1.1720 hc        1 5MS      0.044700
     39 H18B       -0.4930   -0.1560   -2.2010 hc        1 5MS      0.044700
     40 HN19       -2.5560   -0.2990    0.8220 hn        1 5MS      0.461800
     41 H20        -3.0860    2.9480    1.1900 h1        1 5MS      0.118033
     42 H20A       -2.8760    3.4080    2.9060 h1        1 5MS      0.118033
     43 H20B       -1.4520    2.9570    1.9260 h1        1 5MS      0.118033
@<TRIPOS>BOND
     1    1    2 ar  
     2    1    6 ar  
     3    1   20 1   
     4    2    3 ar  
     5    2   26 1   
     6    3    4 ar  
     7    3   27 1   
     8    4    5 ar  
     9    4    7 1   
    10    5    6 ar  
    11    5   28 1   
    12    6   21 1   
    13    7    8 1   
    14    7   29 1   
    15    8    9 ar  
    16    8   13 ar  
    17    9   10 ar  
    18    9   30 1   
    19   10   11 ar  
    20   10   14 1   
    21   11   12 ar  
    22   12   13 ar  
    23   12   31 1   
    24   14   15 ar  
    25   14   19 ar  
    26   15   16 ar  
    27   15   32 1   
    28   16   17 ar  
    29   16   33 1   
    30   17   18 ar  
    31   17   34 1   
    32   18   19 ar  
    33   18   35 1   
    34   19   36 1   
    35   20   37 1   
    36   20   38 1   
    37   20   39 1   
    38   21   22 1   
    39   21   40 1   
    40   22   23 1   
    41   22   24 2   
    42   22   25 2   
    43   23   41 1   
    44   23   42 1   
    45   23   43 1   
@<TRIPOS>SUBSTRUCTURE
     1 5MS         1 TEMP              0 ****  ****    0 ROOT
