@<TRIPOS>MOLECULE
5MS
   45    46     1     0     0
SMALL
bcc


@<TRIPOS>ATOM
      1 C           0.7520    1.2510    0.4680 ca        1 5MS     -0.000300
      2 C1          1.8850    1.9020    0.9750 ca        1 5MS     -0.091000
      3 C2          2.2830    1.7540    2.2980 ca        1 5MS     -0.071000
      4 C3          1.5240    0.9330    3.1520 ca        1 5MS     -0.025400
      5 C4          0.3880    0.2620    2.6790 ca        1 5MS     -0.071000
      6 C5         -0.0090    0.4320    1.3380 ca        1 5MS     -0.001400
      7 N           1.9330    0.7750    4.5540 n4        1 5MS     -0.620100
      8 C6          2.6540   -0.5040    4.8090 ca        1 5MS      0.494200
      9 C7          3.9720   -0.4670    5.2850 ca        1 5MS     -0.337600
     10 C8          4.6000   -1.7330    5.5370 cp        1 5MS      0.586800
     11 N9          3.9350   -2.8920    5.3000 nb        1 5MS     -0.643000
     12 C10         2.6630   -2.7960    4.8350 ca        1 5MS      0.693900
     13 N11         1.9660   -1.6600    4.5730 nb        1 5MS     -0.730000
     14 C12         5.9710   -1.7560    6.0460 cp        1 5MS     -0.225500
     15 C13         6.8380   -2.8070    5.7080 ca        1 5MS     -0.076500
     16 C14         8.1440   -2.8180    6.1980 ca        1 5MS     -0.129000
     17 C15         8.5890   -1.7960    7.0360 ca        1 5MS     -0.065000
     18 C16         7.7240   -0.7550    7.3880 ca        1 5MS     -0.129000
     19 C17         6.4230   -0.7320    6.8980 ca        1 5MS     -0.076500
     20 C18         0.3820    1.4350   -0.9540 c3        1 5MS     -0.102800
     21 N19        -1.1990   -0.2290    0.8670 nh        1 5MS     -0.885200
     22 S          -3.0830    1.1070    1.1370 s4        1 5MS      1.636500
     23 C20        -4.1030   -0.0470    0.6980 c3        1 5MS     -0.567800
     24 O          -2.9010    1.2860    2.4660 o         1 5MS     -0.409900
     25 O21        -2.7150    1.9920    0.1840 o         1 5MS     -0.409900
     26 H1          2.4840    2.5450    0.3020 ha        1 5MS      0.193000
     27 H2          3.1870    2.2810    2.6510 ha        1 5MS      0.177000
     28 H4         -0.1880   -0.4010    3.3510 ha        1 5MS      0.177000
     29 HN          2.5560    1.5520    4.8160 hn        1 5MS      0.474800
     30 H7          4.5330    0.4620    5.4590 ha        1 5MS      0.182000
     31 H10         2.1230   -3.7560    4.6570 h5        1 5MS      0.094100
     32 H13         6.4980   -3.6270    5.0550 ha        1 5MS      0.141000
     33 H14         8.8220   -3.6430    5.9260 ha        1 5MS      0.160500
     34 H15         9.6200   -1.8100    7.4270 ha        1 5MS      0.163000
     35 H16         8.0720    0.0430    8.0620 ha        1 5MS      0.160500
     36 H17         5.7450    0.0780    7.2070 ha        1 5MS      0.141000
     37 H18         1.1050    2.1150   -1.4760 hc        1 5MS      0.084700
     38 H18A        0.3930    0.4550   -1.4980 hc        1 5MS      0.084700
     39 H18B       -0.6370    1.8940   -1.0440 hc        1 5MS      0.084700
     40 HN19       -1.0980   -0.4350   -0.1200 hn        1 5MS      0.421800
     41 H20        -5.1990    0.2690    0.6920 h1        1 5MS      0.206700
     42 H20A       -4.1330   -0.9690    1.3550 h1        1 5MS      0.206700
     43 H20B       -3.9790   -0.4540   -0.3510 h1        1 5MS      0.206700
     44 HN3         1.0920    0.8030    5.1520 hn        1 5MS      0.474800
     45 H192       -1.3250   -1.1000    1.3650 hn        1 5MS      0.421800
@<TRIPOS>BOND
     1    1    2 ar  
     2    1    6 ar  
     3    1   20 1   
     4    2    3 ar  
     5    2   26 1   
     6    3    4 ar  
     7    3   27 1   
     8    4    5 ar  
     9    4    7 1   
    10    5    6 ar  
    11    5   28 1   
    12    6   21 1   
    13    7    8 1   
    14    7   29 1   
    15    7   44 1   
    16    8    9 ar  
    17    8   13 ar  
    18    9   10 ar  
    19    9   30 1   
    20   10   11 ar  
    21   10   14 1   
    22   11   12 ar  
    23   12   13 ar  
    24   12   31 1   
    25   14   15 ar  
    26   14   19 ar  
    27   15   16 ar  
    28   15   32 1   
    29   16   17 ar  
    30   16   33 1   
    31   17   18 ar  
    32   17   34 1   
    33   18   19 ar  
    34   18   35 1   
    35   19   36 1   
    36   20   37 1   
    37   20   38 1   
    38   20   39 1   
    39   21   40 1   
    40   21   45 1   
    41   22   23 1   
    42   22   24 1   
    43   22   25 1   
    44   23   41 1   
    45   23   42 1   
    46   23   43 1   
@<TRIPOS>SUBSTRUCTURE
     1 5MS         1 TEMP              0 ****  ****    0 ROOT
