@<TRIPOS>MOLECULE
5MS
   43    45     1     0     0
SMALL
bcc


@<TRIPOS>ATOM
      1 C           3.5290   -1.9810    0.2040 ca        1 5MS     -0.120300
      2 C1          2.4440   -2.7710    0.5900 ca        1 5MS     -0.096000
      3 C2          1.1690   -2.2440    0.7530 ca        1 5MS     -0.125000
      4 C3          0.9410   -0.8780    0.4960 ca        1 5MS      0.159600
      5 C4          2.0210   -0.0650    0.0930 ca        1 5MS     -0.216000
      6 C5          3.3170   -0.6000   -0.0350 ca        1 5MS      0.168600
      7 N          -0.3200   -0.2800    0.7100 nh        1 5MS     -0.721300
      8 C6         -1.5130   -0.7720    0.1600 ca        1 5MS      0.673200
      9 C7         -2.6870    0.0430    0.2630 ca        1 5MS     -0.411600
     10 C8         -3.9010   -0.4770   -0.2250 cp        1 5MS      0.524800
     11 N9         -3.9730   -1.7180   -0.7860 nb        1 5MS     -0.718000
     12 C10        -2.8050   -2.4030   -0.8440 ca        1 5MS      0.663900
     13 N11        -1.5790   -2.0160   -0.4170 nb        1 5MS     -0.744000
     14 C12        -5.1210    0.3430   -0.1260 cp        1 5MS     -0.160500
     15 C13        -6.3500   -0.2440    0.2030 ca        1 5MS     -0.096500
     16 C14        -7.4930    0.5480    0.3080 ca        1 5MS     -0.137000
     17 C15        -7.4210    1.9210    0.0790 ca        1 5MS     -0.114000
     18 C16        -6.2000    2.5060   -0.2590 ca        1 5MS     -0.137000
     19 C17        -5.0530    1.7230   -0.3620 ca        1 5MS     -0.096500
     20 C18         4.8660   -2.5970    0.0400 c3        1 5MS     -0.050800
     21 N19         4.3910    0.2270   -0.4160 nh        1 5MS     -0.786500
     22 S           4.6350    1.7860   -0.0230 s6        1 5MS      1.470900
     23 C20         5.0050    1.7230    1.6340 c3        1 5MS     -0.370300
     24 O           5.7820    2.2210   -0.7180 o         1 5MS     -0.652300
     25 O21         3.4690    2.5590   -0.1730 o         1 5MS     -0.652300
     26 H1          2.6040   -3.8450    0.7780 ha        1 5MS      0.139000
     27 H2          0.3500   -2.9040    1.0780 ha        1 5MS      0.160000
     28 H4          1.8450    1.0040   -0.1290 ha        1 5MS      0.168000
     29 HN         -0.2960    0.7180    0.7770 hn        1 5MS      0.432800
     30 H7         -2.6540    1.0370    0.7240 ha        1 5MS      0.156000
     31 H10        -2.8520   -3.4120   -1.3080 h5        1 5MS      0.054100
     32 H13        -6.4160   -1.3290    0.3770 ha        1 5MS      0.142500
     33 H14        -8.4550    0.0830    0.5710 ha        1 5MS      0.135500
     34 H15        -8.3250    2.5420    0.1610 ha        1 5MS      0.134000
     35 H16        -6.1420    3.5880   -0.4480 ha        1 5MS      0.135500
     36 H17        -4.0950    2.1870   -0.6400 ha        1 5MS      0.142500
     37 H18         5.2020   -2.5300   -1.0260 hc        1 5MS      0.044700
     38 H18A        5.6240   -2.0810    0.6810 hc        1 5MS      0.044700
     39 H18B        4.8480   -3.6770    0.3270 hc        1 5MS      0.044700
     40 HN19        5.0750   -0.2550   -0.9580 hn        1 5MS      0.461800
     41 H20         5.9930    1.2460    1.8460 h1        1 5MS      0.118033
     42 H20A        5.0620    2.7580    2.0590 h1        1 5MS      0.118033
     43 H20B        4.2490    1.1790    2.2510 h1        1 5MS      0.118033
@<TRIPOS>BOND
     1    1    2 ar  
     2    1    6 ar  
     3    1   20 1   
     4    2    3 ar  
     5    2   26 1   
     6    3    4 ar  
     7    3   27 1   
     8    4    5 ar  
     9    4    7 1   
    10    5    6 ar  
    11    5   28 1   
    12    6   21 1   
    13    7    8 1   
    14    7   29 1   
    15    8    9 ar  
    16    8   13 ar  
    17    9   10 ar  
    18    9   30 1   
    19   10   11 ar  
    20   10   14 1   
    21   11   12 ar  
    22   12   13 ar  
    23   12   31 1   
    24   14   15 ar  
    25   14   19 ar  
    26   15   16 ar  
    27   15   32 1   
    28   16   17 ar  
    29   16   33 1   
    30   17   18 ar  
    31   17   34 1   
    32   18   19 ar  
    33   18   35 1   
    34   19   36 1   
    35   20   37 1   
    36   20   38 1   
    37   20   39 1   
    38   21   22 1   
    39   21   40 1   
    40   22   23 1   
    41   22   24 2   
    42   22   25 2   
    43   23   41 1   
    44   23   42 1   
    45   23   43 1   
@<TRIPOS>SUBSTRUCTURE
     1 5MS         1 TEMP              0 ****  ****    0 ROOT
