@<TRIPOS>MOLECULE
5MS
   43    45     1     0     0
SMALL
bcc


@<TRIPOS>ATOM
      1 C          -0.1480   -0.0500   -0.0770 ca        1 5MS     -0.120300
      2 C1          1.2300   -0.1490   -0.2840 ca        1 5MS     -0.096000
      3 C2          2.1390   -0.0910    0.7650 ca        1 5MS     -0.125000
      4 C3          1.6710    0.0400    2.0870 ca        1 5MS      0.159600
      5 C4          0.2820    0.1290    2.3190 ca        1 5MS     -0.216000
      6 C5         -0.6300    0.1070    1.2470 ca        1 5MS      0.168600
      7 N           2.5550    0.1690    3.1810 nh        1 5MS     -0.721300
      8 C6          3.5960   -0.7320    3.4440 ca        1 5MS      0.673200
      9 C7          4.2800   -0.6220    4.6990 ca        1 5MS     -0.411600
     10 C8          5.3710   -1.4790    4.9380 cp        1 5MS      0.524800
     11 N9          5.7770   -2.3940    4.0120 nb        1 5MS     -0.718000
     12 C10         5.0600   -2.4230    2.8630 ca        1 5MS      0.663900
     13 N11         3.9940   -1.6620    2.5150 nb        1 5MS     -0.744000
     14 C12         6.0900   -1.3810    6.2200 cp        1 5MS     -0.160500
     15 C13         7.4850   -1.4990    6.2670 ca        1 5MS     -0.096500
     16 C14         8.1520   -1.3880    7.4870 ca        1 5MS     -0.137000
     17 C15         7.4350   -1.1680    8.6630 ca        1 5MS     -0.114000
     18 C16         6.0450   -1.0600    8.6200 ca        1 5MS     -0.137000
     19 C17         5.3720   -1.1650    7.4050 ca        1 5MS     -0.096500
     20 C18        -1.0720   -0.1220   -1.2320 c3        1 5MS     -0.050800
     21 N19        -2.0120    0.2200    1.4900 nh        1 5MS     -0.786500
     22 S          -2.7530    1.1100    2.6310 s6        1 5MS      1.470900
     23 C20        -2.5090    2.7080    2.1070 c3        1 5MS     -0.370300
     24 O          -4.1330    0.8250    2.5580 o         1 5MS     -0.652300
     25 O21        -2.1420    0.9730    3.8910 o         1 5MS     -0.652300
     26 H1          1.6090   -0.2690   -1.3110 ha        1 5MS      0.139000
     27 H2          3.2160   -0.1540    0.5490 ha        1 5MS      0.160000
     28 H4         -0.0930    0.2130    3.3560 ha        1 5MS      0.168000
     29 HN          2.1330    0.5410    4.0090 hn        1 5MS      0.432800
     30 H7          3.9790    0.1170    5.4510 ha        1 5MS      0.156000
     31 H10         5.3780   -3.1720    2.1060 h5        1 5MS      0.054100
     32 H13         8.0550   -1.6820    5.3440 ha        1 5MS      0.142500
     33 H14         9.2480   -1.4790    7.5190 ha        1 5MS      0.135500
     34 H15         7.9650   -1.0830    9.6230 ha        1 5MS      0.134000
     35 H16         5.4770   -0.8940    9.5470 ha        1 5MS      0.135500
     36 H17         4.2740   -1.0900    7.3780 ha        1 5MS      0.142500
     37 H18        -0.5070   -0.1880   -2.1950 hc        1 5MS      0.044700
     38 H18A       -1.7270    0.7840   -1.2760 hc        1 5MS      0.044700
     39 H18B       -1.7280   -1.0270   -1.1550 hc        1 5MS      0.044700
     40 HN19       -2.5620   -0.2950    0.8360 hn        1 5MS      0.461800
     41 H20        -1.4390    2.9640    1.9090 h1        1 5MS      0.118033
     42 H20A       -2.8580    3.4300    2.8890 h1        1 5MS      0.118033
     43 H20B       -3.0750    2.9570    1.1770 h1        1 5MS      0.118033
@<TRIPOS>BOND
     1    1    2 ar  
     2    1    6 ar  
     3    1   20 1   
     4    2    3 ar  
     5    2   26 1   
     6    3    4 ar  
     7    3   27 1   
     8    4    5 ar  
     9    4    7 1   
    10    5    6 ar  
    11    5   28 1   
    12    6   21 1   
    13    7    8 1   
    14    7   29 1   
    15    8    9 ar  
    16    8   13 ar  
    17    9   10 ar  
    18    9   30 1   
    19   10   11 ar  
    20   10   14 1   
    21   11   12 ar  
    22   12   13 ar  
    23   12   31 1   
    24   14   15 ar  
    25   14   19 ar  
    26   15   16 ar  
    27   15   32 1   
    28   16   17 ar  
    29   16   33 1   
    30   17   18 ar  
    31   17   34 1   
    32   18   19 ar  
    33   18   35 1   
    34   19   36 1   
    35   20   37 1   
    36   20   38 1   
    37   20   39 1   
    38   21   22 1   
    39   21   40 1   
    40   22   23 1   
    41   22   24 2   
    42   22   25 2   
    43   23   41 1   
    44   23   42 1   
    45   23   43 1   
@<TRIPOS>SUBSTRUCTURE
     1 5MS         1 TEMP              0 ****  ****    0 ROOT
