@<TRIPOS>MOLECULE
5MU
   35    36     1     0     0
SMALL
bcc


@<TRIPOS>ATOM
      1 N1         -1.3050    0.1750    0.9860 n         1 5MU     -0.365000
      2 C2         -0.8710   -0.9440    2.0500 c         1 5MU      0.797500
      3 N3         -0.1160   -0.4680    3.2240 n         1 5MU     -0.599500
      4 C4          0.2780    0.7300    3.1720 c         1 5MU      0.717700
      5 C5         -0.8060    1.7360    2.7080 cc        1 5MU     -0.290400
      6 C5M        -2.0340    1.7600    3.5600 c3        1 5MU     -0.044900
      7 C6         -1.1280    1.5790    1.4060 cd        1 5MU      0.054600
      8 O2         -0.7980   -2.1470    1.7000 o         1 5MU     -0.705500
      9 O4          1.2930    0.8070    2.5680 o         1 5MU     -0.687500
     10 C1'        -1.3830   -0.1210   -0.2670 c3        1 5MU      0.272500
     11 C2'        -1.0520    1.1060   -1.1290 c3        1 5MU      0.109100
     12 O2'        -2.0540    1.2460   -2.2330 oh        1 5MU     -0.618800
     13 C3'         0.1370    0.8590   -1.6240 c3        1 5MU      0.075100
     14 C4'         0.2710   -0.7510   -1.6870 c3        1 5MU      0.062100
     15 O3'         0.2450    1.4210   -2.9480 oh        1 5MU     -0.663800
     16 O4'        -0.3080   -1.2040   -0.6350 os        1 5MU     -0.438600
     17 C5'         1.7640   -1.1620   -1.6920 c3        1 5MU      0.223400
     18 O5'         1.8830   -2.5550   -2.0920 os        1 5MU     -0.568200
     19 P           3.3280   -3.1110   -2.5210 p5        1 5MU      1.342900
     20 OP1         4.3620   -2.6980   -1.4840 o         1 5MU     -0.924833
     21 OP2         3.2820   -4.6430   -2.6080 o         1 5MU     -0.924833
     22 OP3         3.7050   -2.5380   -3.8680 o         1 5MU     -0.924833
     23 HN3        -0.2280   -0.8790    4.0380 hn        1 5MU      0.320500
     24 H71        -2.5990    2.5390    3.3030 hc        1 5MU      0.059033
     25 H72        -1.7790    1.8380    4.4940 hc        1 5MU      0.059033
     26 H73        -2.5520    0.9110    3.4240 hc        1 5MU      0.059033
     27 H6         -1.5930    2.3200    0.9070 h4        1 5MU      0.296000
     28 H1'        -2.2690   -0.4460   -0.4780 h2        1 5MU      0.103700
     29 H2'        -1.0320    1.9160   -0.5810 h1        1 5MU      0.076700
     30 HO2'       -2.4930    2.0490   -2.1450 ho        1 5MU      0.423000
     31 H3'         0.8350    1.2350   -1.0370 h1        1 5MU      0.164700
     32 H4'        -0.1690   -1.0890   -2.4780 h1        1 5MU      0.049700
     33 HO3'        0.7840    2.1650   -2.9220 ho        1 5MU      0.494000
     34 H5'         2.1420   -1.0450   -0.7810 h1        1 5MU      0.000200
     35 H5''        2.2610   -0.5920   -2.3320 h1        1 5MU      0.000200
@<TRIPOS>BOND
     1    1    2 1   
     2    1    7 1   
     3    1   10 1   
     4    2    3 1   
     5    2    8 2   
     6    3    4 1   
     7    3   23 1   
     8    4    5 1   
     9    4    9 2   
    10    5    6 1   
    11    5    7 2   
    12    6   24 1   
    13    6   25 1   
    14    6   26 1   
    15    7   27 1   
    16   10   11 1   
    17   10   16 1   
    18   10   28 1   
    19   11   12 1   
    20   11   13 1   
    21   11   29 1   
    22   12   30 1   
    23   13   14 1   
    24   13   15 1   
    25   13   31 1   
    26   14   16 1   
    27   14   17 1   
    28   14   32 1   
    29   15   33 1   
    30   17   18 1   
    31   17   34 1   
    32   17   35 1   
    33   18   19 1   
    34   19   20 1   
    35   19   21 1   
    36   19   22 1   
@<TRIPOS>SUBSTRUCTURE
     1 5MU         1 TEMP              0 ****  ****    0 ROOT
