@<TRIPOS>MOLECULE
5MU
   35    36     1     0     0
SMALL
bcc


@<TRIPOS>ATOM
      1 N1         -1.1010    0.2900    2.3260 n         1 5MU     -0.365000
      2 C2         -1.4070    0.2900    3.7040 c         1 5MU      0.797500
      3 N3         -0.3470    0.2480    4.6270 n         1 5MU     -0.599500
      4 C4          1.0070    0.1490    4.2440 c         1 5MU      0.717700
      5 C5          1.2630    0.1120    2.8080 cc        1 5MU     -0.290400
      6 C5M         2.6510   -0.0140    2.3180 c3        1 5MU     -0.044900
      7 C6          0.2210    0.1680    1.9190 cd        1 5MU      0.054600
      8 O2         -2.5820    0.3660    4.1470 o         1 5MU     -0.705500
      9 O4          1.8530    0.1060    5.1640 o         1 5MU     -0.687500
     10 C1'        -2.2100    0.2340    1.3640 c3        1 5MU      0.272500
     11 C2'        -2.0540    1.2700    0.2010 c3        1 5MU      0.109100
     12 O2'        -3.3130    1.8690   -0.0310 oh        1 5MU     -0.618800
     13 C3'        -1.5110    0.4220   -0.9610 c3        1 5MU      0.075100
     14 C4'        -1.8220   -1.0430   -0.5930 c3        1 5MU      0.062100
     15 O3'        -2.1280    0.7860   -2.1730 oh        1 5MU     -0.663800
     16 O4'        -2.3180   -1.0550    0.7680 os        1 5MU     -0.438600
     17 C5'        -0.6000   -1.9900   -0.6870 c3        1 5MU      0.223400
     18 O5'        -0.0020   -1.9740   -1.9150 os        1 5MU     -0.568200
     19 P           1.3280   -0.8890   -2.1680 p5        1 5MU      1.342900
     20 OP1         1.5790   -0.4040   -0.7510 o         1 5MU     -0.924833
     21 OP2         2.3880   -1.7090   -2.8240 o         1 5MU     -0.924833
     22 OP3         0.5720    0.1520   -2.9590 o         1 5MU     -0.924833
     23 HN3        -0.5900    0.2510    5.5910 hn        1 5MU      0.320500
     24 H71         3.2260    0.9190    2.5380 hc        1 5MU      0.059033
     25 H72         3.1630   -0.8650    2.8310 hc        1 5MU      0.059033
     26 H73         2.6470   -0.1960    1.2020 hc        1 5MU      0.059033
     27 H6          0.4360    0.1130    0.8040 h4        1 5MU      0.296000
     28 H1'        -3.1730    0.3950    1.9340 h2        1 5MU      0.103700
     29 H2'        -1.3590    2.1100    0.4640 h1        1 5MU      0.076700
     30 HO2'       -3.6890    1.4540   -0.8190 ho        1 5MU      0.423000
     31 H3'        -0.3800    0.5500   -1.0590 h1        1 5MU      0.164700
     32 H4'        -2.6660   -1.4340   -1.2200 h1        1 5MU      0.049700
     33 HO3'       -1.4250    0.6760   -2.8530 ho        1 5MU      0.494000
     34 H5'         0.1300   -1.7300    0.1310 h1        1 5MU      0.000200
     35 H5''       -0.9970   -3.0310   -0.4890 h1        1 5MU      0.000200
@<TRIPOS>BOND
     1    1    2 1   
     2    1    7 1   
     3    1   10 1   
     4    2    3 1   
     5    2    8 2   
     6    3    4 1   
     7    3   23 1   
     8    4    5 1   
     9    4    9 2   
    10    5    6 1   
    11    5    7 2   
    12    6   24 1   
    13    6   25 1   
    14    6   26 1   
    15    7   27 1   
    16   10   11 1   
    17   10   16 1   
    18   10   28 1   
    19   11   12 1   
    20   11   13 1   
    21   11   29 1   
    22   12   30 1   
    23   13   14 1   
    24   13   15 1   
    25   13   31 1   
    26   14   16 1   
    27   14   17 1   
    28   14   32 1   
    29   15   33 1   
    30   17   18 1   
    31   17   34 1   
    32   17   35 1   
    33   18   19 1   
    34   19   20 1   
    35   19   21 1   
    36   19   22 1   
@<TRIPOS>SUBSTRUCTURE
     1 5MU         1 TEMP              0 ****  ****    0 ROOT
