@<TRIPOS>MOLECULE
5MX
   45    47     1     0     0
SMALL
bcc


@<TRIPOS>ATOM
      1 N1         -5.3020   -1.7860   -0.2180 nc        1 5MX     -0.743700
      2 C2         -6.6370   -1.9640   -0.2440 cd        1 5MX      0.699800
      3 N2         -7.1400   -3.2760   -0.2840 nh        1 5MX     -0.897800
      4 N3         -7.5720   -0.9110   -0.1790 n         1 5MX     -0.513400
      5 C4         -7.1660    0.4260   -0.0030 c         1 5MX      0.620000
      6 O4         -8.0480    1.2910    0.0700 o         1 5MX     -0.566500
      7 N5         -5.2340    1.9190    0.2360 nb        1 5MX     -0.555000
      8 C6         -3.9100    2.0660    0.2930 ca        1 5MX      0.293900
      9 C7         -3.0190    0.9460    0.1780 ca        1 5MX      0.298500
     10 N8         -3.4510   -0.3090    0.0150 nb        1 5MX     -0.623000
     11 C4A        -5.7000    0.6520    0.0660 ca        1 5MX      0.185500
     12 C8A        -4.8220   -0.4890   -0.0440 ca        1 5MX      0.566000
     13 CAM        -1.5400    1.2480    0.2770 c         1 5MX      0.565600
     14 OAN        -1.1710    2.2980    0.8390 o         1 5MX     -0.596100
     15 NAO        -0.6550    0.3800   -0.3200 n         1 5MX     -0.536900
     16 CAP         0.7650    0.5610   -0.2060 c3        1 5MX      0.050000
     17 CAQ         1.3990   -0.2390    0.9620 c3        1 5MX      0.055000
     18 NAR         2.8160   -0.0460    1.1050 n         1 5MX     -0.513900
     19 CAS         3.6830   -0.7930    0.3230 c         1 5MX      0.723100
     20 OAT         4.9620   -0.2750    0.3020 os        1 5MX     -0.443900
     21 OAU         3.4550   -1.8550   -0.2800 o         1 5MX     -0.584000
     22 HN2        -6.4610   -3.9920   -0.4310 hn        1 5MX      0.431800
     23 HN2A       -8.0030   -3.4090   -0.7600 hn        1 5MX      0.431800
     24 HN3        -8.5520   -1.0990   -0.1700 hn        1 5MX      0.340500
     25 H6         -3.5090    3.0860    0.4450 h4        1 5MX      0.069100
     26 HNAO       -0.9720   -0.5110   -0.6280 hn        1 5MX      0.335500
     27 HAP         1.2330    0.2240   -1.1750 h1        1 5MX      0.070700
     28 HAPA        0.9800    1.6590   -0.0660 h1        1 5MX      0.070700
     29 HAQ         0.9240    0.0830    1.9330 h1        1 5MX      0.077200
     30 HAQA        1.2030   -1.3390    0.8100 h1        1 5MX      0.077200
     31 HNAR        3.1240    0.8670    1.3570 hn        1 5MX      0.319500
     32 C11         5.9380   -1.1040   -0.3620 c3        1 5MX      0.196700
     33 H11         5.9860   -2.0920    0.1710 h1        1 5MX      0.064700
     34 H12         5.6030   -1.2720   -1.4200 h1        1 5MX      0.064700
     35 C12         7.2480   -0.3950   -0.2960 ca        1 5MX     -0.097300
     36 C13         7.6160    0.3450    0.8320 ca        1 5MX     -0.111500
     37 C14         8.8620    0.9680    0.8820 ca        1 5MX     -0.131500
     38 C15         9.7480    0.8500   -0.1890 ca        1 5MX     -0.124000
     39 C16         9.3830    0.1130   -1.3160 ca        1 5MX     -0.131500
     40 C17         8.1350   -0.5050   -1.3740 ca        1 5MX     -0.111500
     41 H13         6.9110    0.4380    1.6720 ha        1 5MX      0.138500
     42 H14         9.1470    1.5520    1.7700 ha        1 5MX      0.133000
     43 H15        10.7320    1.3390   -0.1470 ha        1 5MX      0.132000
     44 H16        10.0790    0.0200   -2.1620 ha        1 5MX      0.133000
     45 H17         7.8470   -1.0810   -2.2660 ha        1 5MX      0.138500
@<TRIPOS>BOND
     1    1    2 2   
     2    1   12 1   
     3    2    3 1   
     4    2    4 1   
     5    3   22 1   
     6    3   23 1   
     7    4    5 1   
     8    4   24 1   
     9    5    6 2   
    10    5   11 1   
    11    7    8 ar  
    12    7   11 ar  
    13    8    9 ar  
    14    8   25 1   
    15    9   10 ar  
    16    9   13 1   
    17   10   12 ar  
    18   11   12 ar  
    19   13   14 2   
    20   13   15 1   
    21   15   16 1   
    22   15   26 1   
    23   16   17 1   
    24   16   27 1   
    25   16   28 1   
    26   17   18 1   
    27   17   29 1   
    28   17   30 1   
    29   18   19 1   
    30   18   31 1   
    31   19   20 1   
    32   19   21 2   
    33   20   32 1   
    34   32   33 1   
    35   32   34 1   
    36   32   35 1   
    37   35   36 ar  
    38   35   40 ar  
    39   36   37 ar  
    40   36   41 1   
    41   37   38 ar  
    42   37   42 1   
    43   38   39 ar  
    44   38   43 1   
    45   39   40 ar  
    46   39   44 1   
    47   40   45 1   
@<TRIPOS>SUBSTRUCTURE
     1 5MX         1 TEMP              0 ****  ****    0 ROOT
