@<TRIPOS>MOLECULE
5MX
   48    46     1     0     0
SMALL
bcc


@<TRIPOS>ATOM
      1 N1       1066.8870  -11.9540  379.5920 na        1 5MX     -0.254000
      2 C2       1067.5960  -10.7840  379.3060 cz        1 5MX      0.410000
      3 N2       1066.9160   -9.6120  379.1380 nh        1 5MX     -0.321000
      4 N3       1068.9740  -10.8220  379.1960 n         1 5MX     -0.323000
      5 C4       1069.7580  -12.0060  379.3580 c2        1 5MX      0.360000
      6 O4       1070.9710  -11.9040  379.2360 o         1 5MX     -0.129000
      7 N5       1069.6620  -14.4090  379.8250 n2        1 5MX      0.021000
      8 C6       1068.9380  -15.5070  380.0970 c2        1 5MX     -0.027000
      9 C7       1067.5120  -15.4510  380.2080 c2        1 5MX     -0.068000
     10 N8       1066.8170  -14.3040  380.0480 n2        1 5MX     -0.117000
     11 C4A      1068.9910  -13.2480  379.6610 c2        1 5MX     -0.064000
     12 C8A      1067.5540  -13.1840  379.7710 c2        1 5MX      0.095000
     13 CAM      1066.8280  -16.7460  380.5120 c2        1 5MX      0.351000
     14 OAN      1067.4420  -17.8010  380.6460 o         1 5MX     -0.176000
     15 NAO      1065.3840  -16.7650  380.6560 n         1 5MX     -0.212000
     16 CAP      1064.7180  -17.8760  380.9250 c2        1 5MX      0.221000
     17 CAQ      1063.2600  -17.9630  381.0830 c3        1 5MX     -0.295000
     18 NAR     -1642.3330   18.5850 -576.4950 n2        1 5MX     -0.319000
     19 CAS     -1642.2880   19.5940 -577.1720 c1        1 5MX      0.350000
     20 OAT     -1640.6330   22.5150 -581.2300 oh        1 5MX     -0.154000
     21 OAU     -1642.3990   20.4290 -578.0470 o         1 5MX     -0.333000
     22 HN2      1065.9210   -9.5660  379.2140 hn        1 5MX      0.298000
     23 HN2A     1065.8860  -11.9270  379.6710 hn        1 5MX      0.304000
     24 HN3      1069.4860   -9.9760  378.9900 hn        1 5MX      0.309000
     25 H6       1069.5010  -16.4590  380.2310 h4        1 5MX      0.249000
     26 HNAO     1065.3100  -18.8260  381.0410 h4        1 5MX      0.232000
     27 HAP      1062.4640  -14.5340  380.5450 ha        1 5MX      0.002000
     28 HAPA     1063.0720  -14.8370  380.5360 ha        1 5MX      0.002000
     29 HAQ      1062.7120  -16.9940  380.9590 hc        1 5MX      0.179000
     30 HAQA     1062.8560  -18.7070  380.3340 hc        1 5MX      0.179000
     31 HNAR     1063.0290  -18.3830  382.1060 hc        1 5MX      0.179000
     32 C11     -1641.7250   22.1190 -580.5990 c2        1 5MX      0.256000
     33 H11     -1641.4820   21.4220 -579.7580 h4        1 5MX      0.240000
     34 H12     -1640.8240   23.1180 -581.9800 ho        1 5MX      0.278000
     35 C12     -1643.0210   22.4950 -580.9570 c2        1 5MX     -0.395000
     36 C13     -1643.8670   22.3160 -583.3230 c1        1 5MX      0.282000
     37 C14     -1645.1790   22.2230 -583.1340 c2        1 5MX     -0.479000
     38 C15     -1645.9410   22.2790 -581.9310 c2        1 5MX      0.121000
     39 C16     -1645.4660   22.1730 -580.6540 c2        1 5MX     -0.267000
     40 C17     -1644.1240   22.0410 -580.2450 c2        1 5MX      0.159000
     41 H13     -1643.1350   23.2570 -581.7590 ha        1 5MX      0.181000
     42 H14     -1645.7730   22.0800 -584.0750 ha        1 5MX      0.233000
     43 H15     -1647.0420   22.3520 -582.0680 ha        1 5MX      0.172000
     44 H16     -1646.2190   22.1110 -579.8390 ha        1 5MX      0.184000
     45 H17     -1643.9510   21.5340 -579.2670 ha        1 5MX      0.185000
     46 H23      1067.4020   -8.7600  378.9330 hn        1 5MX      0.298000
     47 HAO2     1064.8900  -15.8900  380.5440 hn        1 5MX      0.295000
     48 HAR2    -1642.0040   18.3490 -575.5980 hn        1 5MX      0.305000
@<TRIPOS>BOND
     1    1    2 1   
     2    1   12 1   
     3    1   23 1   
     4    2    3 1   
     5    2    4 1   
     6    3   22 1   
     7    3   46 1   
     8    4    5 1   
     9    4   24 1   
    10    5    6 1   
    11    5   11 1   
    12    7    8 1   
    13    7   11 1   
    14    8    9 1   
    15    8   25 1   
    16    9   10 1   
    17    9   13 1   
    18   10   12 1   
    19   11   12 1   
    20   13   14 1   
    21   13   15 1   
    22   15   16 1   
    23   15   47 1   
    24   16   17 1   
    25   16   26 1   
    26   17   29 1   
    27   17   30 1   
    28   17   31 1   
    29   18   19 1   
    30   18   48 1   
    31   19   21 1   
    32   20   32 1   
    33   20   34 1   
    34   27   28 1   
    35   32   33 1   
    36   32   35 1   
    37   35   40 1   
    38   35   41 1   
    39   36   37 1   
    40   37   38 1   
    41   37   42 1   
    42   38   39 1   
    43   38   43 1   
    44   39   40 1   
    45   39   44 1   
    46   40   45 1   
@<TRIPOS>SUBSTRUCTURE
     1 5MX         1 TEMP              0 ****  ****    0 ROOT
