@<TRIPOS>MOLECULE
5MX
   48    48     1     0     0
SMALL
bcc


@<TRIPOS>ATOM
      1 N1        667.1820  130.6540  135.5650 na        1 5MX     -0.235000
      2 C2        667.9220  130.3390  136.6950 cz        1 5MX      0.396000
      3 N2        669.2750  130.1400  136.5820 nv        1 5MX     -0.349000
      4 N3        667.2960  130.2240  137.9230 ns        1 5MX     -0.329000
      5 C4        665.8880  130.4190  138.1220 c2        1 5MX      0.372000
      6 O4        665.4740  130.2780  139.2660 o         1 5MX     -0.175000
      7 N5        663.7750  130.9860  137.0150 n2        1 5MX     -0.008000
      8 C6        663.1240  131.3030  135.8960 c2        1 5MX     -0.055000
      9 C7        663.7930  131.4080  134.6230 c2        1 5MX     -0.019000
     10 N8        665.1100  131.1960  134.4950 n2        1 5MX     -0.113000
     11 C4A       665.1160  130.7680  136.9070 c2        1 5MX     -0.113000
     12 C8A       665.7870  130.8760  135.6500 c2        1 5MX      0.073000
     13 CAM       662.9260  131.8150  133.4400 c2        1 5MX      0.345000
     14 OAN       661.8700  132.4230  133.6970 o         1 5MX     -0.323000
     15 NAO       663.3160  131.4420  132.1870 ns        1 5MX     -0.338000
     16 CAP       662.5660  131.8230  131.0100 c3        1 5MX     -0.040000
     17 CAQ       663.3740  132.6070  129.9890 c3        1 5MX     -0.240000
     18 NAR       274.5210-1139.2050  840.8760 n8        1 5MX     -0.265000
     19 CAS       274.8920-1139.1050  839.6430 c1        1 5MX      0.466000
     20 OAT     -1351.8550  131.7600 -532.5720 oh        1 5MX     -0.132000
     21 OAU       275.2270-1139.0140  838.5280 o         1 5MX      0.106000
     22 HN2       669.7390  130.2220  135.7040 hn        1 5MX      0.286000
     23 HN2A      667.6290  130.7450  134.6700 hn        1 5MX      0.302000
     24 HN3       667.8350  129.9920  138.7390 hn        1 5MX      0.292000
     25 H6        662.0320  131.5030  135.9690 h4        1 5MX      0.242000
     26 HNAO      662.1890  130.8720  130.5310 h1        1 5MX      0.116500
     27 HAP       661.6700  132.4320  131.3270 h1        1 5MX      0.116500
     28 HAPA      274.7630-1138.4850  841.5450 hn        1 5MX      0.346000
     29 HAQ       663.7280  133.5790  130.4100 hc        1 5MX      0.090667
     30 HAQA      664.2600  132.0270  129.6370 hc        1 5MX      0.090667
     31 HNAR      662.7190  132.8200  129.1090 hc        1 5MX      0.090667
     32 C11     -1351.6870  133.0570 -532.6890 c2        1 5MX      0.292000
     33 H11     -1350.9690  133.2950 -533.5150 h4        1 5MX      0.228000
     34 H12     -1352.4780  131.5020 -531.8580 ho        1 5MX      0.285000
     35 C12     -1352.2970  134.0640 -531.9130 ca        1 5MX     -0.256000
     36 C13     -1351.9780  135.4200 -532.2020 ca        1 5MX     -0.008500
     37 C14     -1352.5530  136.4450 -531.4650 ca        1 5MX     -0.147000
     38 C15     -1353.4500  136.1510 -530.4320 ca        1 5MX      0.026000
     39 C16     -1353.7750  134.8180 -530.1350 ca        1 5MX     -0.147000
     40 C17     -1353.2090  133.7850 -530.8610 ca        1 5MX     -0.008500
     41 H13     -1351.2710  135.6540 -533.0160 ha        1 5MX      0.158500
     42 H14     -1352.3030  137.4960 -531.6940 ha        1 5MX      0.184000
     43 H15     -1353.9070  136.9710 -529.8470 ha        1 5MX      0.182000
     44 H16     -1354.4840  134.5980 -529.3170 ha        1 5MX      0.184000
     45 H17     -1353.4760  132.7440 -530.6120 ha        1 5MX      0.158500
     46 H23       669.8250  129.9100  137.3820 hn        1 5MX      0.286000
     47 HAO2      664.2170  131.0510  132.0370 hn        1 5MX      0.237000
     48 HAR2      273.9840-1140.0050  841.1870 hn        1 5MX      0.346000
@<TRIPOS>BOND
     1    1    2 1   
     2    1   12 1   
     3    1   23 1   
     4    2    3 1   
     5    2    4 1   
     6    3   22 1   
     7    3   46 1   
     8    4    5 1   
     9    4   24 1   
    10    5    6 1   
    11    5   11 1   
    12    7    8 1   
    13    7   11 1   
    14    8    9 1   
    15    8   25 1   
    16    9   10 1   
    17    9   13 1   
    18   10   12 1   
    19   11   12 1   
    20   13   14 1   
    21   13   15 1   
    22   15   16 1   
    23   15   47 1   
    24   16   17 1   
    25   16   26 1   
    26   16   27 1   
    27   17   29 1   
    28   17   30 1   
    29   17   31 1   
    30   18   19 1   
    31   18   28 1   
    32   18   48 1   
    33   19   21 1   
    34   20   32 1   
    35   20   34 1   
    36   32   33 1   
    37   32   35 1   
    38   35   36 1   
    39   35   40 1   
    40   36   37 1   
    41   36   41 1   
    42   37   38 1   
    43   37   42 1   
    44   38   39 1   
    45   38   43 1   
    46   39   40 1   
    47   39   44 1   
    48   40   45 1   
@<TRIPOS>SUBSTRUCTURE
     1 5MX         1 TEMP              0 ****  ****    0 ROOT
