@<TRIPOS>MOLECULE
5MX
   45    40     1     0     0
SMALL
bcc


@<TRIPOS>ATOM
      1 N1          6.4050   -0.0600    0.2870 n1        1 5MX     -0.237000
      2 C2          7.8600   -0.0470    0.2930 c1        1 5MX      0.252000
      3 N2          8.5620   -0.0950   -0.9170 n2        1 5MX     -0.335000
      4 N3          8.5690    0.0100    1.5260 n         1 5MX     -0.353000
      5 C4          7.8640    0.0530    2.7350 c2        1 5MX      0.367000
      6 O4          8.4530    0.0550    3.7670 o         1 5MX     -0.291000
      7 N5          5.6410    0.0960    3.9120 n1        1 5MX     -0.029000
      8 C6          4.3020    0.1030    3.8950 c1        1 5MX     -0.106000
      9 C7          3.6100    0.0510    2.6630 c1        1 5MX     -0.054000
     10 N8          4.2910   -0.0060    1.5160 n1        1 5MX     -0.097000
     11 C4A         6.3450    0.0380    2.7260 c1        1 5MX     -0.167000
     12 C8A         5.6710   -0.0130    1.5320 c1        1 5MX      0.084000
     13 CAM         2.0340    0.0030    2.6460 c2        1 5MX      0.349000
     14 OAN         1.4180    0.0110    3.6910 o         1 5MX     -0.357000
     15 NAO         1.3350    0.0570    1.4090 n         1 5MX     -0.346000
     16 CAP        -0.0920    0.0900    1.3930 c3        1 5MX     -0.066000
     17 CAQ        -0.5850    0.0190   -0.0730 c3        1 5MX     -0.061000
     18 NAR        -1.9690   -0.1550   -0.0930 n         1 5MX     -0.323000
     19 CAS        -2.6840   -0.1490   -1.3530 c2        1 5MX      0.377000
     20 OAT        -4.1110   -0.1270   -1.3590 os        1 5MX     -0.282000
     21 OAU        -2.0610   -0.1550   -2.4160 o         1 5MX     -0.394000
     22 HN2         8.1040   -0.1400   -1.7080 hn        1 5MX      0.226500
     23 HN2A        9.4810   -0.0270   -0.9200 hn        1 5MX      0.226500
     24 HN3         9.4720    0.0170    1.5280 hn        1 5MX      0.254000
     25 H6          3.7930    0.1460    4.7520 ha        1 5MX      0.205000
     26 HNAO        1.8040   -0.0100    0.6070 hn        1 5MX      0.249000
     27 HAP        -0.4530   -0.6920    1.9040 h1        1 5MX      0.110000
     28 HAPA       -0.4040    0.9170    1.8020 h1        1 5MX      0.110000
     29 HAQ        -0.3590    0.8340   -0.5270 h1        1 5MX      0.116000
     30 HAQA       -0.1490   -0.7440   -0.5320 h1        1 5MX      0.116000
     31 HNAR       -2.4340   -0.2880    0.7050 hn        1 5MX      0.233000
     32 C11        -4.7020   -0.2810   -2.6680 c3        1 5MX      0.039000
     33 H11        -4.3310    0.3910   -3.2770 h1        1 5MX      0.104000
     34 H12        -4.5000   -1.2070   -3.0240 h1        1 5MX      0.104000
     35 C12        -6.2420   -0.0890   -2.5620 c2        1 5MX     -0.090000
     36 C13        -6.8000    1.1780   -2.7210 c2        1 5MX     -0.103000
     37 C14        -8.1760    1.3550   -2.5830 c1        1 5MX     -0.132000
     38 C15        -8.9950    0.2600   -2.2840 c1        1 5MX     -0.127500
     39 C16        -8.4420   -0.9940   -2.1260 c1        1 5MX     -0.127500
     40 C17        -7.0580   -1.1740   -2.2650 c1        1 5MX     -0.120000
     41 H13        -6.2190    1.9530   -2.9330 ha        1 5MX      0.144000
     42 H14        -8.5720    2.2510   -2.6960 ha        1 5MX      0.133000
     43 H15        -9.9840    0.3870   -2.1840 ha        1 5MX      0.132500
     44 H16        -9.0200   -1.7640   -1.9160 ha        1 5MX      0.132500
     45 H17        -6.6700   -2.0570   -2.1540 ha        1 5MX      0.133000
@<TRIPOS>BOND
     1    1    2 1   
     2    2    4 1   
     3    3   22 1   
     4    3   23 1   
     5    4    5 1   
     6    4   24 1   
     7    5    6 1   
     8    5   11 1   
     9    7    8 1   
    10    8   25 1   
    11    9   10 1   
    12    9   13 1   
    13   11   12 1   
    14   13   14 1   
    15   13   15 1   
    16   15   16 1   
    17   15   26 1   
    18   16   17 1   
    19   16   27 1   
    20   16   28 1   
    21   17   18 1   
    22   17   29 1   
    23   17   30 1   
    24   18   19 1   
    25   18   31 1   
    26   19   20 1   
    27   19   21 1   
    28   20   32 1   
    29   32   33 1   
    30   32   34 1   
    31   32   35 1   
    32   35   36 1   
    33   35   40 1   
    34   36   37 1   
    35   36   41 1   
    36   37   42 1   
    37   38   39 1   
    38   38   43 1   
    39   39   44 1   
    40   40   45 1   
@<TRIPOS>SUBSTRUCTURE
     1 5MX         1 TEMP              0 ****  ****    0 ROOT
