@<TRIPOS>MOLECULE
5MX
   48    46     1     0     0
SMALL
bcc


@<TRIPOS>ATOM
      1 N1        129.8650    4.4990   38.1430 na        1 5MX     -0.254000
      2 C2        129.5270    4.1200   39.4470 cz        1 5MX      0.410000
      3 N2        130.5120    3.9790   40.3800 nh        1 5MX     -0.319000
      4 N3        128.2030    3.8970   39.7790 n         1 5MX     -0.323000
      5 C4        127.1150    4.0180   38.8590 c2        1 5MX      0.360000
      6 O4        125.9870    3.8120   39.2840 o         1 5MX     -0.128000
      7 N5        126.5220    4.4790   36.5280 n2        1 5MX      0.025000
      8 C6        126.8970    4.8060   35.2790 c2        1 5MX     -0.027000
      9 C7        128.2670    5.0580   34.9610 c2        1 5MX     -0.057000
     10 N8        129.2580    4.9780   35.8770 n2        1 5MX     -0.113000
     11 C4A       127.4920    4.3860   37.4640 c2        1 5MX     -0.064000
     12 C8A       128.8780    4.6280   37.1450 c2        1 5MX      0.100000
     13 CAM       128.5780    5.3800   33.5420 c2        1 5MX      0.336000
     14 OAN       127.9550    4.9840   32.5720 o         1 5MX     -0.119000
     15 NAO       129.7480    6.2970   33.2610 n4        1 5MX     -0.149000
     16 CAP       129.3840    7.6490   33.6750 c1        1 5MX      0.130000
     17 CAQ       129.7270    8.7740   32.8530 c3        1 5MX     -0.386000
     18 NAR      -211.2930   -8.8160  -49.0610 n2        1 5MX     -0.308000
     19 CAS      -210.5700   -8.7040  -50.0260 c1        1 5MX      0.365000
     20 OAT      -208.7630   -9.9690  -53.3200 oh        1 5MX     -0.183000
     21 OAU      -209.7750   -8.8810  -50.9310 o         1 5MX     -0.364000
     22 HN2       130.8270    4.6560   37.9000 hn        1 5MX      0.305000
     23 HN2A      130.2960    3.7130   41.3220 hn        1 5MX      0.298500
     24 HN3       127.9590    3.6330   40.7220 hn        1 5MX      0.310000
     25 H6        126.0910    4.8590   34.5140 h4        1 5MX      0.245000
     26 HNAO      130.0250    6.1870   32.2690 hn        1 5MX      0.265000
     27 HAP        76.0220   13.5360    8.7390 ha        1 5MX      0.000000
     28 HAPA       76.6160   13.4440    9.0480 ha        1 5MX      0.000000
     29 HAQ       130.2870    9.5230   33.4990 hc        1 5MX      0.197333
     30 HAQA      130.2990    8.6090   31.9030 hc        1 5MX      0.197333
     31 HNAR      128.7560    9.3150   32.6040 hc        1 5MX      0.197333
     32 C11      -207.6600   -9.5230  -52.7400 c2        1 5MX      0.261000
     33 H11      -207.7150   -9.0490  -51.7340 h4        1 5MX      0.210000
     34 H12      -209.5560   -9.8190  -52.7550 ho        1 5MX      0.316000
     35 C12      -206.4250   -9.6570  -53.4210 c2        1 5MX     -0.170000
     36 C13      -205.2630   -9.1580  -52.7070 c2        1 5MX     -0.511000
     37 C14      -204.8750   -7.9100  -52.5180 c1        1 5MX      0.312000
     38 C15      -203.9820  -10.0380  -55.3150 c2        1 5MX     -0.013000
     39 C16      -205.2350  -10.5020  -55.4940 c2        1 5MX     -0.242000
     40 C17      -206.3660  -10.2680  -54.6630 c2        1 5MX      0.156000
     41 H13      -204.6200   -9.9450  -52.2430 ha        1 5MX      0.219000
     42 H14      -203.6810   -9.3930  -54.4750 ha        1 5MX      0.149500
     43 H15      -203.1800  -10.2800  -56.0330 ha        1 5MX      0.149500
     44 H16      -205.4470  -11.1270  -56.3870 ha        1 5MX      0.170000
     45 H17      -207.3300  -10.6430  -55.0810 ha        1 5MX      0.168000
     46 H23       131.4750    4.1320   40.1560 hn        1 5MX      0.298500
     47 HAO2      130.5470    6.0090   33.8530 hn        1 5MX      0.265000
     48 HAR2     -211.9100   -8.2250  -48.5730 hn        1 5MX      0.315000
@<TRIPOS>BOND
     1    1    2 1   
     2    1   12 1   
     3    1   22 1   
     4    2    3 1   
     5    2    4 1   
     6    3   23 1   
     7    3   46 1   
     8    4    5 1   
     9    4   24 1   
    10    5    6 1   
    11    5   11 1   
    12    7    8 1   
    13    7   11 1   
    14    8    9 1   
    15    8   25 1   
    16    9   10 1   
    17    9   13 1   
    18   10   12 1   
    19   11   12 1   
    20   13   14 1   
    21   13   15 1   
    22   15   16 1   
    23   15   26 1   
    24   15   47 1   
    25   16   17 1   
    26   17   29 1   
    27   17   30 1   
    28   17   31 1   
    29   18   19 1   
    30   18   48 1   
    31   19   21 1   
    32   20   32 1   
    33   20   34 1   
    34   27   28 1   
    35   32   33 1   
    36   32   35 1   
    37   35   36 1   
    38   35   40 1   
    39   36   37 1   
    40   36   41 1   
    41   38   39 1   
    42   38   42 1   
    43   38   43 1   
    44   39   40 1   
    45   39   44 1   
    46   40   45 1   
@<TRIPOS>SUBSTRUCTURE
     1 5MX         1 TEMP              0 ****  ****    0 ROOT
