@<TRIPOS>MOLECULE
5MZ
   22    22     1     0     0
SMALL
bcc


@<TRIPOS>ATOM
      1 NAA        -0.2580    1.5810    0.1240 nv        1 5MZ     -0.776600
      2 ClAB        6.7950    0.7780   -6.7900 cl        1 5MZ     -0.140400
      3 CAC         3.9140   -1.5470   -0.9320 c2        1 5MZ     -0.235100
      4 CAD         1.4320    1.1120    2.0410 ce        1 5MZ     -0.359100
      5 CAE         3.5460   -1.8430   -2.1380 c1        1 5MZ      0.030200
      6 CAF         1.9840    0.3530    0.9960 c1        1 5MZ      0.136200
      7 NAH         3.0370   -1.6280   -5.7920 nc        1 5MZ     -0.373300
      8 NAI         4.3830   -0.2650   -4.5260 nd        1 5MZ     -0.649000
      9 OAJ         3.5780   -0.7330   -6.5820 os        1 5MZ     -0.138100
     10 CAK         0.7580    1.1400    0.8360 ce        1 5MZ     -0.058100
     11 CAL         3.1500   -2.1570   -3.3450 cf        1 5MZ     -0.279900
     12 CAM         4.4170    0.1170   -5.7980 cc        1 5MZ      0.470700
     13 CAN         3.4960   -1.3880   -4.5300 cd        1 5MZ      0.603800
     14 HNAA       -0.3510    1.3040   -0.8240 hn        1 5MZ      0.441300
     15 HNAB       -0.9350    2.1910    0.5140 hn        1 5MZ      0.441300
     16 HAC         1.4460    1.4690    3.0510 ha        1 5MZ      0.185000
     17 HAD         4.8510   -1.9280   -0.4990 ha        1 5MZ      0.170500
     18 HAE         3.3080   -0.8960   -0.2650 ha        1 5MZ      0.170500
     19 HAF         2.5210   -3.0480   -3.5230 ha        1 5MZ      0.160000
     20 HAG         4.6470    1.3710   -7.5110 h1        1 5MZ      0.100200
     21 HAGA        5.1090    2.1390   -5.9040 h1        1 5MZ      0.100200
     22 CAG         5.1210    1.1990   -6.5120 c3        1 5MZ     -0.000300
@<TRIPOS>BOND
     1    1   10 1   
     2    1   14 1   
     3    1   15 1   
     4    2   22 1   
     5    3    5 2   
     6    3   17 1   
     7    3   18 1   
     8    4    6 2   
     9    4   10 1   
    10    4   16 1   
    11    5   11 2   
    12    6   10 2   
    13    7    9 1   
    14    7   13 2   
    15    8   12 2   
    16    8   13 1   
    17    9   12 1   
    18   11   13 1   
    19   11   19 1   
    20   12   22 1   
    21   20   22 1   
    22   21   22 1   
@<TRIPOS>SUBSTRUCTURE
     1 5MZ         1 TEMP              0 ****  ****    0 ROOT
