@<TRIPOS>MOLECULE
5MZ
   23    22     1     0     0
SMALL
bcc


@<TRIPOS>ATOM
      1 NAA        -0.2720    0.6890   -0.1690 n4        1 5MZ     -0.027000
      2 CLAB        7.0820   -0.7240   -5.9270 cl        1 5MZ     -0.026000
      3 CAC         4.8880   -0.4550   -1.0410 c2        1 5MZ     -0.136000
      4 CAD         1.7510   -0.2810    0.5560 c1        1 5MZ     -0.149000
      5 CAE         3.7820   -0.3290   -1.6980 c1        1 5MZ     -0.070000
      6 CAF         1.4370    0.2810   -1.8900 c2        1 5MZ      0.158000
      7 NAH         1.5360   -1.0970   -4.4050 n2        1 5MZ      0.234000
      8 NAI         3.7930   -0.1390   -4.6000 n2        1 5MZ      0.117000
      9 OAJ         1.4540   -1.4210   -5.5190 o         1 5MZ     -0.231000
     10 CAK         1.0820    0.1990   -0.5560 c2        1 5MZ     -0.258000
     11 CAL         2.6890   -0.1600   -2.4350 c2        1 5MZ      0.008000
     12 CAM         4.6390    0.0870   -5.3720 c1        1 5MZ     -0.003000
     13 CAN         2.6830   -0.4440   -3.8830 c2        1 5MZ     -0.348000
     14 HNAA       -0.9980    0.1510   -0.6450 hn        1 5MZ      0.249000
     15 HNAB       -0.3550    0.5550    0.8550 hn        1 5MZ      0.249000
     16 HAC         2.7320   -0.7470    0.5600 ha        1 5MZ      0.143000
     17 HAD         5.1640   -1.3970   -0.5290 ha        1 5MZ      0.184000
     18 HAE         5.6250    0.3620   -0.9400 ha        1 5MZ      0.184000
     19 HAF         0.7250    0.6980   -2.6370 ha        1 5MZ      0.164000
     20 HAG         5.3910    0.1250   -7.3270 h1        1 5MZ      0.171000
     21 HAGA        6.0870    1.3890   -6.1820 h1        1 5MZ      0.171000
     22 HAA3       -0.3810    1.6790   -0.3940 hn        1 5MZ      0.249000
     23 CAG         5.7330    0.3270   -6.2730 c3        1 5MZ     -0.034000
@<TRIPOS>BOND
     1    1   10 1   
     2    1   14 1   
     3    1   15 1   
     4    1   22 1   
     5    2   23 1   
     6    3    5 1   
     7    3   17 1   
     8    3   18 1   
     9    4   10 1   
    10    4   16 1   
    11    5   11 1   
    12    6   10 1   
    13    6   11 1   
    14    6   19 1   
    15    7    9 1   
    16    7   13 1   
    17    8   12 1   
    18    8   13 1   
    19   11   13 1   
    20   12   23 1   
    21   20   23 1   
    22   21   23 1   
@<TRIPOS>SUBSTRUCTURE
     1 5MZ         1 TEMP              0 ****  ****    0 ROOT
