@<TRIPOS>MOLECULE
5MZ
   22    23     1     0     0
SMALL
bcc


@<TRIPOS>ATOM
      1 NAA         4.7640   -1.3270   -0.1310 nh        1 5MZ     -0.818200
      2 CLAB       -4.3640    1.0110   -0.3300 cl        1 5MZ     -0.137400
      3 CAC         3.0130    1.9440   -0.0240 ca        1 5MZ     -0.104000
      4 CAD         4.0350    1.0080   -0.1240 ca        1 5MZ     -0.170000
      5 CAE         1.6810    1.5450    0.0680 ca        1 5MZ     -0.128000
      6 CAF         2.3850   -0.7770   -0.0410 ca        1 5MZ     -0.157000
      7 NAH        -0.5120   -1.4760   -0.2150 nc        1 5MZ     -0.360300
      8 NAI        -1.0770    0.5770    0.6370 nd        1 5MZ     -0.652000
      9 OAJ        -1.8010   -1.4660    0.0160 os        1 5MZ     -0.134100
     10 CAK         3.7380   -0.3750   -0.1270 ca        1 5MZ      0.131600
     11 CAL         1.3710    0.1800    0.0580 ca        1 5MZ     -0.099500
     12 CAM        -2.1580   -0.1890    0.5470 cc        1 5MZ      0.478700
     13 CAN        -0.0220   -0.2560    0.1450 cd        1 5MZ      0.592500
     14 HNAA        5.6160   -1.0080   -0.5350 hn        1 5MZ      0.390800
     15 HNAB        4.4880   -2.2270   -0.4540 hn        1 5MZ      0.390800
     16 HAC         3.2600    3.0170   -0.0170 ha        1 5MZ      0.136000
     17 HAD         5.0790    1.3490   -0.1930 ha        1 5MZ      0.135000
     18 HAE         0.8870    2.3030    0.1460 ha        1 5MZ      0.153000
     19 HAF         2.1340   -1.8490   -0.0420 ha        1 5MZ      0.149000
     20 HAG        -3.6750    0.5510    1.8600 h1        1 5MZ      0.102700
     21 HAGA       -4.1150   -0.9610    0.9100 h1        1 5MZ      0.102700
     22 CAG        -3.5800    0.0210    0.8790 c3        1 5MZ     -0.002300
@<TRIPOS>BOND
     1    1   10 1   
     2    1   14 1   
     3    1   15 1   
     4    2   22 1   
     5    3    4 ar  
     6    3    5 ar  
     7    3   16 1   
     8    4   10 ar  
     9    4   17 1   
    10    5   11 ar  
    11    5   18 1   
    12    6   10 ar  
    13    6   11 ar  
    14    6   19 1   
    15    7    9 1   
    16    7   13 2   
    17    8   12 2   
    18    8   13 1   
    19    9   12 1   
    20   11   13 1   
    21   12   22 1   
    22   20   22 1   
    23   21   22 1   
@<TRIPOS>SUBSTRUCTURE
     1 5MZ         1 TEMP              0 ****  ****    0 ROOT
