@<TRIPOS>MOLECULE
5MZ
   22    19     1     0     0
SMALL
bcc


@<TRIPOS>ATOM
      1 NAA        -2.6880    0.5300    2.6310 n3        1 5MZ     -0.792400
      2 CLAB        1.5740   -0.9600   -5.4110 cl        1 5MZ     -0.137400
      3 CAC         1.0080    0.4570    2.7150 c1        1 5MZ     -0.079500
      4 CAD        -0.3120    0.4770    3.1350 c1        1 5MZ     -0.079500
      5 CAE         1.3050    0.4620    1.3610 c1        1 5MZ     -0.078500
      6 CAF        -1.0390    0.5090    0.8470 c1        1 5MZ     -0.092500
      7 CAG         0.8190   -1.6680   -4.0080 c3        1 5MZ      0.016700
      8 NAH         0.9170    1.2320   -1.7770 n1        1 5MZ     -0.346800
      9 NAI         0.4290   -0.8890   -1.6080 ne        1 5MZ     -0.468700
     10 OAJ         1.0670    0.6610   -3.0040 os        1 5MZ     -0.210600
     11 CAK        -1.3360    0.5040    2.2010 c1        1 5MZ      0.104800
     12 CAL         0.2810    0.4890    0.4270 c1        1 5MZ      0.008000
     13 CAM         0.7650   -0.6460   -2.8940 c2        1 5MZ      0.488600
     14 CAN         0.5250    0.2770   -0.9210 cg        1 5MZ      0.335800
     15 HNAA       -3.2670   -0.1230    2.3580 hn        1 5MZ      0.391800
     16 HNAB       -2.9780    1.1950    3.1860 hn        1 5MZ      0.391800
     17 HAC         1.7290    0.4390    3.3720 ha        1 5MZ      0.078000
     18 HAD        -0.5210    0.4740    4.0880 ha        1 5MZ      0.078000
     19 HAE         2.2350    0.4480    1.0650 ha        1 5MZ      0.091500
     20 HAF        -1.7600    0.5270    0.1890 ha        1 5MZ      0.095500
     21 HAG        -0.0900   -1.9500   -4.2350 h1        1 5MZ      0.102200
     22 HAGA        1.3380   -2.4430   -3.7140 h1        1 5MZ      0.102200
@<TRIPOS>BOND
     1    1   11 1   
     2    1   15 1   
     3    1   16 1   
     4    2    7 1   
     5    3    4 3   
     6    3   17 1   
     7    4   18 1   
     8    5   12 3   
     9    5   19 1   
    10    6   11 3   
    11    6   20 1   
    12    7   13 1   
    13    7   21 1   
    14    7   22 1   
    15    8   10 1   
    16    8   14 3   
    17    9   13 2   
    18    9   14 1   
    19   10   13 1   
@<TRIPOS>SUBSTRUCTURE
     1 5MZ         1 TEMP              0 ****  ****    0 ROOT
