@<TRIPOS>MOLECULE
5N2
   56    60     1     0     0
SMALL
bcc


@<TRIPOS>ATOM
      1 C1          0.2040   -0.5660    0.1450 ca        1 5N2     -0.097000
      2 C2          1.5900   -0.3700    0.1490 ca        1 5N2     -0.137000
      3 C3          2.2440   -0.0550    1.3340 ca        1 5N2     -0.067000
      4 C7         -0.5900    0.0150    3.8040 cc        1 5N2      0.348900
      5 C10         2.1910    0.4000    3.7860 c         1 5N2      0.686100
      6 C12        -2.0780   -0.1940    3.7970 c3        1 5N2     -0.053400
      7 C13        -2.7430   -0.0380    5.1200 ca        1 5N2     -0.078300
      8 C14        -3.2550    1.2040    5.5120 ca        1 5N2     -0.099000
      9 C15        -3.9050    1.3410    6.7380 ca        1 5N2     -0.137000
     10 C16        -4.0410    0.2450    7.5880 ca        1 5N2     -0.099000
     11 C22        -2.3150   -1.2140    9.8640 c3        1 5N2      0.077000
     12 C27         0.0860   -3.6020   11.5850 ca        1 5N2      0.647200
     13 C30         2.4240   -4.6730   12.6540 ca        1 5N2     -0.271300
     14 C31         2.3800   -3.9730   11.4330 ca        1 5N2      0.440200
     15 C4          1.5090    0.0670    2.5200 ca        1 5N2     -0.141600
     16 C5          0.1110   -0.1290    2.5230 ca        1 5N2     -0.106900
     17 C6         -0.5320   -0.4470    1.3180 ca        1 5N2     -0.129000
     18 N8          0.0450    0.3150    4.9280 nd        1 5N2     -0.418300
     19 N9          1.3520    0.4970    4.9190 ns        1 5N2     -0.301900
     20 O11         3.4110    0.5960    3.9210 o         1 5N2     -0.616500
     21 C17        -3.5260   -0.9960    7.2020 ca        1 5N2     -0.134600
     22 C18        -2.8860   -1.1410    5.9680 ca        1 5N2     -0.074000
     23 O20        -4.2590   -3.2260    7.6040 o         1 5N2     -0.593100
     24 N21        -3.3130   -2.1480    9.3970 n         1 5N2     -0.454800
     25 C23        -0.9550   -1.8730   10.2010 c3        1 5N2      0.153300
     26 N24        -1.1210   -3.0160   11.0920 nh        1 5N2     -0.729300
     27 C25        -2.0800   -3.9890   10.5750 c3        1 5N2      0.153300
     28 C26        -3.4330   -3.3310   10.2250 c3        1 5N2      0.077000
     29 C28         0.0490   -4.2870   12.8430 ca        1 5N2     -0.139300
     30 C29         1.2370   -4.8260   13.3610 ca        1 5N2     -0.045000
     31 N32         1.2650   -3.4570   10.9010 nb        1 5N2     -0.708000
     32 N34        -2.1230   -4.4980   14.2230 n1        1 5N2     -0.363800
     33 H1         -0.3070   -0.8160   -0.7980 ha        1 5N2      0.140000
     34 H2          2.1600   -0.4680   -0.7860 ha        1 5N2      0.143000
     35 H3          3.3350    0.1030    1.3610 ha        1 5N2      0.163000
     36 H4         -2.5200    0.5400    3.0670 hc        1 5N2      0.066200
     37 H5         -2.2720   -1.2310    3.4020 hc        1 5N2      0.066200
     38 H6         -3.1460    2.0760    4.8490 ha        1 5N2      0.136000
     39 H7         -4.3120    2.3190    7.0360 ha        1 5N2      0.138000
     40 H8         -4.5580    0.3530    8.5540 ha        1 5N2      0.144000
     41 H9         -2.1220   -0.4150    9.0950 h1        1 5N2      0.072700
     42 H10        -2.7230   -0.7220   10.7940 h1        1 5N2      0.072700
     43 H11         3.3700   -5.0810   13.0310 ha        1 5N2      0.153000
     44 H12         3.2990   -3.8210   10.8360 h4        1 5N2      0.029100
     45 H13        -1.6210   -0.6050    1.2980 ha        1 5N2      0.142000
     46 H14         1.7520    0.7160    5.8120 hn        1 5N2      0.359500
     47 H15        -2.5060   -2.1290    5.6650 ha        1 5N2      0.149000
     48 H16        -0.4420   -2.1560    9.2380 h1        1 5N2      0.056200
     49 H17        -0.3210   -1.1070   10.7260 h1        1 5N2      0.056200
     50 H18        -1.6770   -4.5100    9.6580 h1        1 5N2      0.056200
     51 H19        -2.2680   -4.7660   11.3660 h1        1 5N2      0.056200
     52 H20        -4.0680   -4.1030    9.7050 h1        1 5N2      0.072700
     53 H21        -3.9490   -3.0210   11.1780 h1        1 5N2      0.072700
     54 H22         1.2210   -5.3570   14.3260 ha        1 5N2      0.152000
     55 C19        -3.7050   -2.2050    8.0580 c         1 5N2      0.665700
     56 C33        -1.1490   -4.4060   13.5910 cg        1 5N2      0.248800
@<TRIPOS>BOND
     1    1    2 ar  
     2    1   17 ar  
     3    1   33 1   
     4    2    3 ar  
     5    2   34 1   
     6    3   15 ar  
     7    3   35 1   
     8    4    6 1   
     9    4   16 1   
    10    4   18 2   
    11    5   15 1   
    12    5   19 1   
    13    5   20 2   
    14    6    7 1   
    15    6   36 1   
    16    6   37 1   
    17    7    8 ar  
    18    7   22 ar  
    19    8    9 ar  
    20    8   38 1   
    21    9   10 ar  
    22    9   39 1   
    23   10   21 ar  
    24   10   40 1   
    25   11   24 1   
    26   11   25 1   
    27   11   41 1   
    28   11   42 1   
    29   12   26 1   
    30   12   29 ar  
    31   12   31 ar  
    32   13   14 ar  
    33   13   30 ar  
    34   13   43 1   
    35   14   31 ar  
    36   14   44 1   
    37   15   16 ar  
    38   16   17 ar  
    39   17   45 1   
    40   18   19 1   
    41   19   46 1   
    42   21   22 ar  
    43   21   55 1   
    44   22   47 1   
    45   23   55 2   
    46   24   28 1   
    47   24   55 1   
    48   25   26 1   
    49   25   48 1   
    50   25   49 1   
    51   26   27 1   
    52   27   28 1   
    53   27   50 1   
    54   27   51 1   
    55   28   52 1   
    56   28   53 1   
    57   29   30 ar  
    58   29   56 1   
    59   30   54 1   
    60   32   56 3   
@<TRIPOS>SUBSTRUCTURE
     1 5N2         1 TEMP              0 ****  ****    0 ROOT
