@<TRIPOS>MOLECULE
5N2
   56    60     1     0     0
SMALL
bcc


@<TRIPOS>ATOM
      1 C1          0.2270   -0.5370    0.1900 ca        1 5N2     -0.097000
      2 C2          1.6160   -0.3600    0.2000 ca        1 5N2     -0.137000
      3 C3          2.2710   -0.0590    1.3880 ca        1 5N2     -0.067000
      4 C7         -0.5700    0.0370    3.8490 cc        1 5N2      0.348900
      5 C10         2.2160    0.3850    3.8420 c         1 5N2      0.686100
      6 C12        -2.0610   -0.1530    3.8370 c3        1 5N2     -0.053400
      7 C13        -2.7280    0.0070    5.1580 ca        1 5N2     -0.078300
      8 C14        -3.2230    1.2540    5.5560 ca        1 5N2     -0.099000
      9 C15        -3.8740    1.3950    6.7810 ca        1 5N2     -0.137000
     10 C16        -4.0300    0.2960    7.6240 ca        1 5N2     -0.099000
     11 C22        -2.3330   -1.2030    9.8970 c3        1 5N2      0.077000
     12 C27         0.0260   -3.6380   11.6090 ca        1 5N2      0.647200
     13 C30         2.3440   -4.7530   12.6780 ca        1 5N2     -0.271300
     14 C31         2.3140   -4.0450   11.4610 ca        1 5N2      0.440200
     15 C4          1.5340    0.0670    2.5730 ca        1 5N2     -0.141600
     16 C5          0.1330   -0.1100    2.5700 ca        1 5N2     -0.106900
     17 C6         -0.5110   -0.4140    1.3620 ca        1 5N2     -0.129000
     18 N8          0.0650    0.3230    4.9770 nd        1 5N2     -0.418300
     19 N9          1.3740    0.4870    4.9730 n         1 5N2     -0.301900
     20 O11         3.4380    0.5640    3.9820 o         1 5N2     -0.616500
     21 C17        -3.5330   -0.9510    7.2330 ca        1 5N2     -0.134600
     22 C18        -2.8910   -1.0990    6.0000 ca        1 5N2     -0.074000
     23 O20        -4.3020   -3.1720    7.6200 o         1 5N2     -0.593100
     24 N21        -3.3440   -2.1190    9.4220 n         1 5N2     -0.453800
     25 C23        -0.9840   -1.8850   10.2330 c3        1 5N2      0.153300
     26 N24        -1.1700   -3.0300   11.1170 nh        1 5N2     -0.729300
     27 C25        -2.1430   -3.9850   10.5920 c3        1 5N2      0.153300
     28 C26        -3.4860   -3.3040   10.2420 c3        1 5N2      0.077000
     29 C28        -0.0250   -4.3300   12.8640 ca        1 5N2     -0.139300
     30 C29         1.1530   -4.8900   13.3820 ca        1 5N2     -0.045000
     31 N32         1.2090   -3.5090   10.9300 nb        1 5N2     -0.708000
     32 N34        -2.2030   -4.5140   14.2370 n1        1 5N2     -0.363800
     33 H1         -0.2840   -0.7760   -0.7550 ha        1 5N2      0.140000
     34 H2          2.1880   -0.4600   -0.7340 ha        1 5N2      0.143000
     35 H3          3.3630    0.0840    1.4190 ha        1 5N2      0.163000
     36 H4         -2.2680   -1.1850    3.4370 hc        1 5N2      0.066200
     37 H5         -2.4910    0.5910    3.1100 hc        1 5N2      0.066200
     38 H6         -3.0970    2.1280    4.8990 ha        1 5N2      0.136000
     39 H7         -4.2680    2.3770    7.0830 ha        1 5N2      0.138000
     40 H8         -4.5480    0.4060    8.5890 ha        1 5N2      0.144000
     41 H9         -2.1260   -0.4030    9.1330 h1        1 5N2      0.072700
     42 H10        -2.7360   -0.7100   10.8290 h1        1 5N2      0.072700
     43 H11         3.2830   -5.1770   13.0550 ha        1 5N2      0.153000
     44 H12         3.2370   -3.9040   10.8670 h4        1 5N2      0.029100
     45 H13        -1.6020   -0.5570    1.3370 ha        1 5N2      0.142000
     46 H14         1.7740    0.6960    5.8690 hn        1 5N2      0.359500
     47 H15        -2.5250   -2.0910    5.6920 ha        1 5N2      0.149000
     48 H16        -0.4730   -2.1710    9.2700 h1        1 5N2      0.056200
     49 H17        -0.3390   -1.1320   10.7650 h1        1 5N2      0.056200
     50 H18        -1.7470   -4.5070    9.6740 h1        1 5N2      0.056200
     51 H19        -2.3450   -4.7630   11.3790 h1        1 5N2      0.056200
     52 H20        -4.1300   -4.0630    9.7160 h1        1 5N2      0.072700
     53 H21        -3.9980   -2.9910   11.1970 h1        1 5N2      0.072700
     54 H22         1.1260   -5.4270   14.3430 ha        1 5N2      0.152000
     55 C19        -3.7330   -2.1620    8.0810 c         1 5N2      0.665700
     56 C33        -1.2270   -4.4340   13.6080 cg        1 5N2      0.248800
@<TRIPOS>BOND
     1    1    2 ar  
     2    1   17 ar  
     3    1   33 1   
     4    2    3 ar  
     5    2   34 1   
     6    3   15 ar  
     7    3   35 1   
     8    4    6 1   
     9    4   16 1   
    10    4   18 2   
    11    5   15 1   
    12    5   19 1   
    13    5   20 2   
    14    6    7 1   
    15    6   36 1   
    16    6   37 1   
    17    7    8 ar  
    18    7   22 ar  
    19    8    9 ar  
    20    8   38 1   
    21    9   10 ar  
    22    9   39 1   
    23   10   21 ar  
    24   10   40 1   
    25   11   24 1   
    26   11   25 1   
    27   11   41 1   
    28   11   42 1   
    29   12   26 1   
    30   12   29 ar  
    31   12   31 ar  
    32   13   14 ar  
    33   13   30 ar  
    34   13   43 1   
    35   14   31 ar  
    36   14   44 1   
    37   15   16 ar  
    38   16   17 ar  
    39   17   45 1   
    40   18   19 1   
    41   19   46 1   
    42   21   22 ar  
    43   21   55 1   
    44   22   47 1   
    45   23   55 2   
    46   24   28 1   
    47   24   55 1   
    48   25   26 1   
    49   25   48 1   
    50   25   49 1   
    51   26   27 1   
    52   27   28 1   
    53   27   50 1   
    54   27   51 1   
    55   28   52 1   
    56   28   53 1   
    57   29   30 ar  
    58   29   56 1   
    59   30   54 1   
    60   32   56 3   
@<TRIPOS>SUBSTRUCTURE
     1 5N2         1 TEMP              0 ****  ****    0 ROOT
