@<TRIPOS>MOLECULE
5N3
   43    56     1     0     0
SMALL
bcc


@<TRIPOS>ATOM
      1 C4          0.0000    0.0000    0.0000 c3        1 5N3     -0.355000
      2 C14         1.5380    0.0100    4.8810 c3        1 5N3     -0.218000
      3 C5          1.3910    0.0000    0.0000 c3        1 5N3      0.064000
      4 C7          1.3540   -0.0010    2.3080 c2        1 5N3      0.117000
      5 C9          2.1010    0.0000    3.5890 DU        1 5N3     -0.309000
      6 C10         3.4590   -0.0070    3.7320 c3        1 5N3      0.011000
      7 C3         -0.6690    0.0060    1.2110 c2        1 5N3     -0.045000
      8 C2         -2.1470    0.0100    0.9060 c3        1 5N3      0.375000
      9 N6          2.0310    0.0000    1.1670 n2        1 5N3     -0.101000
     10 N8          0.0270    0.0070    2.3340 n2        1 5N3     -0.041000
     11 N11         3.7290   -0.0030    5.0500 n7        1 5N3     -0.038000
     12 N13         2.5150    0.0080    5.7470 n2        1 5N3     -0.019000
     13 N15         2.0980    0.0010   -1.1930 nu        1 5N3     -0.416000
     14 C16         3.4970    0.0010   -1.1760 c2        1 5N3     -0.061000
     15 C17         4.3740    0.0010   -2.3480 c2        1 5N3     -0.183000
     16 C18         4.1490    0.0020   -3.7280 c3        1 5N3     -0.256000
     17 C19         5.2090    0.0030   -4.5880 c3        1 5N3     -0.202000
     18 C20         6.5120    0.0020   -4.1060 c2        1 5N3     -0.302000
     19 C21         6.7590    0.0010   -2.7510 c2        1 5N3     -0.131000
     20 C22         5.6920    0.0000   -1.8540 c2        1 5N3     -0.106000
     21 N23         5.6040   -0.0000   -0.4870 na        1 5N3     -0.216000
     22 N25         4.2550    0.0060   -0.1130 n2        1 5N3      0.002000
     23 Cl          8.3920    0.0000   -2.1630 cl        1 5N3      0.155000
     24 C27        -1.0410    0.0000   -1.0910 c3        1 5N3     -0.212000
     25 O28        -2.2680    0.4240   -0.4670 os        1 5N3     -0.174000
     26 C29        -2.8720    0.9990    1.8220 c3        1 5N3     -0.410500
     27 H1          0.7580   -0.3040    4.1980 h1        1 5N3      0.284000
     28 H2          2.4760    0.0010    4.1880 DU        1 5N3      0.073000
     29 H3         -1.6990   -1.1900    1.3610 hc        1 5N3      0.113500
     30 H4         -3.2220   -1.8130    1.9550 hc        1 5N3      0.113500
     31 H5         -2.1060   -2.2780    0.9950 hc        1 5N3      0.113500
     32 H6          2.9120   -0.2190    4.5150 DU        1 5N3      0.198000
     33 H7          2.4560   -0.0000   -0.2580 DU        1 5N3      0.399000
     34 H8          3.2420   -0.0150   -3.1360 hc        1 5N3      0.359000
     35 H9          4.1520    0.0030   -4.3470 DU        1 5N3      0.308000
     36 H10         5.7650    0.0040   -4.8910 DU        1 5N3      0.279000
     37 H11         5.9780    0.0000   -1.4150 hn        1 5N3      0.368000
     38 H12         0.0280    0.0000   -0.9130 DU        1 5N3      0.453000
     39 H13        -0.7610    0.6970   -1.8720 h1        1 5N3      0.080000
     40 H14        -2.4330    0.4870    0.9730 hc        1 5N3      0.113500
     41 H15        -2.6620    0.9660    2.8840 hc        1 5N3      0.113500
     42 H16        -3.8800    1.2980    1.5630 hc        1 5N3      0.113500
     43 C1         -2.7270   -1.3950    1.0870 c3        1 5N3     -0.410500
@<TRIPOS>BOND
     1    1    3 1   
     2    1    7 1   
     3    1   24 1   
     4    1   38 1   
     5    2    5 1   
     6    2   12 1   
     7    2   27 1   
     8    2   28 1   
     9    3    9 1   
    10    3   13 1   
    11    3   33 1   
    12    4    5 1   
    13    4    9 1   
    14    4   10 1   
    15    5    6 1   
    16    5   28 1   
    17    5   32 1   
    18    6   11 1   
    19    6   28 1   
    20    6   32 1   
    21    7    8 1   
    22    7   10 1   
    23    8   25 1   
    24    8   26 1   
    25    8   43 1   
    26   11   12 1   
    27   11   32 1   
    28   13   14 1   
    29   13   33 1   
    30   14   15 1   
    31   14   22 1   
    32   15   16 1   
    33   15   20 1   
    34   16   17 1   
    35   16   34 1   
    36   16   35 1   
    37   17   18 1   
    38   17   35 1   
    39   17   36 1   
    40   18   19 1   
    41   18   36 1   
    42   19   20 1   
    43   19   23 1   
    44   20   21 1   
    45   21   22 1   
    46   21   37 1   
    47   24   25 1   
    48   24   38 1   
    49   24   39 1   
    50   26   40 1   
    51   26   41 1   
    52   26   42 1   
    53   28   32 1   
    54   29   43 1   
    55   30   43 1   
    56   31   43 1   
@<TRIPOS>SUBSTRUCTURE
     1 5N3         1 TEMP              0 ****  ****    0 ROOT
