@<TRIPOS>MOLECULE
5N3
   43    47     1     0     0
SMALL
bcc


@<TRIPOS>ATOM
      1 C4          0.1420    0.0590    0.0380 ca        1 5N3     -0.440900
      2 C14         1.3330   -0.2540    5.0730 cc        1 5N3      0.352200
      3 C5          1.5520    0.1150    0.1460 ca        1 5N3      0.716200
      4 C7          1.3210   -0.0640    2.4720 ca        1 5N3      0.788500
      5 C9          1.9660   -0.1330    3.7730 cc        1 5N3     -0.342800
      6 C10         3.3500   -0.0960    4.0470 cd        1 5N3     -0.070300
      7 C3         -0.6090   -0.0580    1.2400 ca        1 5N3      0.452600
      8 C2         -2.0860   -0.0960    0.8740 c3        1 5N3      0.104500
      9 N6          2.1430    0.0440    1.3860 nb        1 5N3     -0.723000
     10 N8         -0.0670   -0.1200    2.4580 nb        1 5N3     -0.698000
     11 N11         3.4670   -0.1920    5.4280 na        1 5N3     -0.024600
     12 N13         2.2790   -0.2860    6.0420 nd        1 5N3     -0.527800
     13 N15         2.3050    0.2840   -1.0210 nh        1 5N3     -0.773900
     14 C16         3.6910    0.2170   -1.1180 cc        1 5N3      0.562800
     15 C17         4.3760    0.0690   -2.4210 ca        1 5N3     -0.226900
     16 C18         3.9840   -0.0930   -3.7450 ca        1 5N3     -0.062000
     17 C19         4.9710   -0.2000   -4.7170 ca        1 5N3     -0.155000
     18 C20         6.3380   -0.1510   -4.3880 ca        1 5N3     -0.085000
     19 C21         6.7560    0.0030   -3.0710 ca        1 5N3     -0.001600
     20 C22         5.7730    0.1130   -2.0740 ca        1 5N3     -0.038200
     21 N23         5.8400    0.2010   -0.6750 na        1 5N3     -0.003100
     22 N25         4.6200    0.3340   -0.1220 nd        1 5N3     -0.511100
     23 CL          8.4000    0.0650   -2.6630 cl        1 5N3     -0.081400
     24 C27        -0.7860    0.1040   -1.1210 c3        1 5N3      0.197700
     25 O28        -2.1160   -0.0020   -0.5790 os        1 5N3     -0.422600
     26 C29        -2.8360    1.0960    1.4400 c3        1 5N3     -0.094100
     27 H1          0.2640   -0.3130    5.2840 h4        1 5N3      0.059100
     28 H2          4.2040   -0.0110    3.3710 h4        1 5N3      0.201000
     29 H3         -2.7280   -1.5040    2.3860 hc        1 5N3      0.052033
     30 H4         -3.7840   -1.4360    0.9030 hc        1 5N3      0.052033
     31 H5         -2.1760   -2.2690    0.8300 hc        1 5N3      0.052033
     32 H6          4.3040   -0.1970    5.9600 hn        1 5N3      0.323700
     33 H7          1.8200    0.0860   -1.8700 hn        1 5N3      0.448800
     34 H8          2.9200   -0.1360   -4.0180 ha        1 5N3      0.136000
     35 H9          4.6870   -0.3270   -5.7720 ha        1 5N3      0.142000
     36 H10         7.0860   -0.2350   -5.1920 ha        1 5N3      0.151000
     37 H11         6.6220    0.5650   -0.1760 hn        1 5N3      0.321700
     38 H12        -0.7340    1.0730   -1.6820 h1        1 5N3      0.052200
     39 H13        -0.6490   -0.7580   -1.8240 h1        1 5N3      0.052200
     40 H14        -3.8890    1.0840    1.0700 hc        1 5N3      0.052033
     41 H15        -2.3560    2.0490    1.1140 hc        1 5N3      0.052033
     42 H16        -2.8330    1.0450    2.5550 hc        1 5N3      0.052033
     43 C1         -2.7320   -1.4090    1.2740 c3        1 5N3     -0.094100
@<TRIPOS>BOND
     1    1    3 ar  
     2    1    7 ar  
     3    1   24 1   
     4    2    5 1   
     5    2   12 2   
     6    2   27 1   
     7    3    9 ar  
     8    3   13 1   
     9    4    5 1   
    10    4    9 ar  
    11    4   10 ar  
    12    5    6 2   
    13    6   11 1   
    14    6   28 1   
    15    7    8 1   
    16    7   10 ar  
    17    8   25 1   
    18    8   26 1   
    19    8   43 1   
    20   11   12 1   
    21   11   32 1   
    22   13   14 1   
    23   13   33 1   
    24   14   15 1   
    25   14   22 2   
    26   15   16 ar  
    27   15   20 ar  
    28   16   17 ar  
    29   16   34 1   
    30   17   18 ar  
    31   17   35 1   
    32   18   19 ar  
    33   18   36 1   
    34   19   20 ar  
    35   19   23 1   
    36   20   21 1   
    37   21   22 1   
    38   21   37 1   
    39   24   25 1   
    40   24   38 1   
    41   24   39 1   
    42   26   40 1   
    43   26   41 1   
    44   26   42 1   
    45   29   43 1   
    46   30   43 1   
    47   31   43 1   
@<TRIPOS>SUBSTRUCTURE
     1 5N3         1 TEMP              0 ****  ****    0 ROOT
