@<TRIPOS>MOLECULE
5N4
   46    50     1     0     0
SMALL
bcc


@<TRIPOS>ATOM
      1 C4          0.0520   -0.3160    0.0410 ca        1 5N4     -0.434900
      2 C14         3.7640   -1.3480    3.6640 c3        1 5N4      0.118100
      3 C5          1.4600   -0.2230    0.1030 ca        1 5N4      0.712200
      4 C11         2.7440    1.1160    5.6770 ce        1 5N4     -0.043100
      5 C7          1.2780    0.1370    2.4160 ca        1 5N4      0.795800
      6 C9          1.9450    0.4170    3.6820 ce        1 5N4     -0.343900
      7 C10         1.5020    1.0260    4.8190 c1        1 5N4      0.006200
      8 C3         -0.6710   -0.1760    1.2600 ca        1 5N4      0.446600
      9 C2         -2.1540   -0.3190    0.9490 c3        1 5N4      0.105500
     10 N6          2.0710    0.0310    1.3060 nb        1 5N4     -0.772000
     11 N8         -0.1060    0.0340    2.4510 nb        1 5N4     -0.650000
     12 N12         3.8230    0.6140    5.1140 n2        1 5N4     -0.241000
     13 N13         3.4590    0.0980    3.8270 nx        1 5N4     -0.414000
     14 N15         2.2040   -0.4240   -1.0710 nu        1 5N4     -0.805600
     15 C16         3.5850   -0.3450   -1.1510 cc        1 5N4      0.521200
     16 C17         4.3560    0.0330   -2.2430 cd        1 5N4     -0.334900
     17 C18         4.0580    0.5270   -3.5870 c3        1 5N4      0.017100
     18 C19         5.2850    0.7750   -4.3920 c2        1 5N4     -0.104200
     19 C20         6.5400    0.5750   -3.9430 ce        1 5N4     -0.173000
     20 C21         6.8120    0.0880   -2.6070 ce        1 5N4      0.021000
     21 C22         5.7580   -0.1720   -1.8030 cd        1 5N4      0.186300
     22 N23         5.6900   -0.6670   -0.4380 nd        1 5N4     -0.276000
     23 N25         4.5150   -0.7690   -0.0700 nc        1 5N4     -0.261000
     24 C26        -0.9010   -0.5550   -1.0720 c3        1 5N4      0.198700
     25 O27        -2.2180   -0.5390   -0.4900 os        1 5N4     -0.423600
     26 C28        -2.9180    0.9520    1.2680 c3        1 5N4     -0.095100
     27 H1          3.6380   -1.6180    2.5830 hx        1 5N4      0.084367
     28 H2          3.0550   -1.9480    4.2910 hx        1 5N4      0.084367
     29 H3          4.8190   -1.5610    3.9780 hx        1 5N4      0.084367
     30 H4          4.0000    0.6230    3.1270 hn        1 5N4      0.446800
     31 H5          2.7610    1.5800    6.6700 h4        1 5N4      0.192000
     32 H6         -2.1960   -2.4530    1.3700 hc        1 5N4      0.053200
     33 H7         -2.7210   -1.3830    2.7450 hc        1 5N4      0.053200
     34 H8         -3.8200   -1.6500    1.3160 hc        1 5N4      0.053200
     35 H9          1.7210   -0.1920   -1.9150 hn        1 5N4      0.442800
     36 H10         3.4110   -0.2160   -4.1380 hc        1 5N4      0.072200
     37 H11         3.4670    1.4870   -3.5250 hc        1 5N4      0.072200
     38 H12         5.1040    1.1460   -5.4140 ha        1 5N4      0.135000
     39 H13         7.4130    0.7770   -4.5850 ha        1 5N4      0.143000
     40 H14         7.8570   -0.0520   -2.2920 ha        1 5N4      0.156000
     41 H15        -0.8750    0.2530   -1.8490 h1        1 5N4      0.051700
     42 H16        -0.7640   -1.5580   -1.5540 h1        1 5N4      0.051700
     43 H17        -2.4780    1.8200    0.7220 hc        1 5N4      0.053200
     44 H18        -2.8750    1.1480    2.3660 hc        1 5N4      0.053200
     45 H19        -3.9830    0.8370    0.9520 hc        1 5N4      0.053200
     46 C1         -2.7580   -1.5280    1.6390 c3        1 5N4     -0.095100
@<TRIPOS>BOND
     1    1    3 ar  
     2    1    8 ar  
     3    1   24 1   
     4    2   13 1   
     5    2   27 1   
     6    2   28 1   
     7    2   29 1   
     8    3   10 ar  
     9    3   14 1   
    10    4    7 2   
    11    4   12 1   
    12    4   31 1   
    13    5    6 1   
    14    5   10 ar  
    15    5   11 ar  
    16    6    7 2   
    17    6   13 1   
    18    8    9 1   
    19    8   11 ar  
    20    9   25 1   
    21    9   26 1   
    22    9   46 1   
    23   12   13 1   
    24   13   30 1   
    25   14   15 1   
    26   14   35 1   
    27   15   16 2   
    28   15   23 1   
    29   16   17 1   
    30   16   21 1   
    31   17   18 1   
    32   17   36 1   
    33   17   37 1   
    34   18   19 2   
    35   18   38 1   
    36   19   20 1   
    37   19   39 1   
    38   20   21 2   
    39   20   40 1   
    40   21   22 1   
    41   22   23 2   
    42   24   25 1   
    43   24   41 1   
    44   24   42 1   
    45   26   43 1   
    46   26   44 1   
    47   26   45 1   
    48   32   46 1   
    49   33   46 1   
    50   34   46 1   
@<TRIPOS>SUBSTRUCTURE
     1 5N4         1 TEMP              0 ****  ****    0 ROOT
