@<TRIPOS>MOLECULE
5N4
   46    50     1     0     0
SMALL
bcc


@<TRIPOS>ATOM
      1 C4          0.1560   -0.0300    0.0170 ca        1 5N4     -0.437900
      2 C14         4.3980    0.2350    3.1760 c3        1 5N4      0.040600
      3 C5          1.5660   -0.0790    0.1110 ca        1 5N4      0.723200
      4 C11         2.3250   -0.4880    5.9880 cc        1 5N4      0.272200
      5 C7          1.3490   -0.1560    2.4430 ca        1 5N4      0.770500
      6 C9          1.9650   -0.2380    3.7760 cd        1 5N4     -0.187800
      7 C10         1.2940   -0.5100    4.9900 cc        1 5N4     -0.232300
      8 C3         -0.5890   -0.0520    1.2280 ca        1 5N4      0.452600
      9 C2         -2.0690    0.0090    0.8770 c3        1 5N4      0.105500
     10 N6          2.1640   -0.1410    1.3520 nb        1 5N4     -0.723000
     11 N8         -0.0400   -0.1120    2.4420 nb        1 5N4     -0.689000
     12 N12         3.5300   -0.2180    5.4120 nd        1 5N4     -0.502800
     13 N13         3.3280   -0.0700    4.1000 na        1 5N4      0.131400
     14 N15         2.3130   -0.1190   -1.0670 nh        1 5N4     -0.778900
     15 C16         3.6840    0.0800   -1.1870 cc        1 5N4      0.567800
     16 C17         4.3730   -0.0410   -2.4920 ca        1 5N4     -0.227900
     17 C18         3.9920   -0.3180   -3.8000 ca        1 5N4     -0.065000
     18 C19         4.9790   -0.3410   -4.7800 ca        1 5N4     -0.156000
     19 C20         6.3250   -0.0860   -4.4670 ca        1 5N4     -0.093000
     20 C21         6.7350    0.2030   -3.1710 ca        1 5N4     -0.137000
     21 C22         5.7510    0.2230   -2.1740 ca        1 5N4     -0.047200
     22 N23         5.7960    0.5530   -0.8010 na        1 5N4     -0.003100
     23 N25         4.5900    0.3890   -0.2160 nd        1 5N4     -0.534100
     24 C26        -0.7800    0.0400   -1.1350 c3        1 5N4      0.195700
     25 O27        -2.1080    0.0670   -0.5780 os        1 5N4     -0.420600
     26 C28        -2.7240    1.2680    1.4170 c3        1 5N4     -0.095100
     27 H1          4.5430   -0.6330    2.4790 h1        1 5N4      0.068700
     28 H2          4.1290    1.1510    2.5850 h1        1 5N4      0.068700
     29 H3          5.3520    0.4240    3.7370 h1        1 5N4      0.068700
     30 H4          2.2280   -0.6530    7.0610 h4        1 5N4      0.044100
     31 H5          0.2340   -0.6910    5.1330 ha        1 5N4      0.178000
     32 H6         -2.3170   -2.1520    0.8950 hc        1 5N4      0.052867
     33 H7         -3.8600   -1.2020    0.9570 hc        1 5N4      0.052867
     34 H8         -2.7970   -1.3060    2.4330 hc        1 5N4      0.052867
     35 H9          1.7950    0.0120   -1.9100 hn        1 5N4      0.452800
     36 H10         2.9410   -0.5150   -4.0530 ha        1 5N4      0.134000
     37 H11         4.7050   -0.5630   -5.8220 ha        1 5N4      0.138000
     38 H12         7.0740   -0.1170   -5.2730 ha        1 5N4      0.137000
     39 H13         7.7880    0.4080   -2.9370 ha        1 5N4      0.144000
     40 H14         6.5930    0.3520   -0.2350 hn        1 5N4      0.304700
     41 H15        -0.7210   -0.8600   -1.8000 h1        1 5N4      0.054700
     42 H16        -0.6580    0.9770   -1.7390 h1        1 5N4      0.054700
     43 H17        -2.1800    2.1750    1.0600 hc        1 5N4      0.052867
     44 H18        -3.7800    1.3220    1.0580 hc        1 5N4      0.052867
     45 H19        -2.7120    1.2470    2.5320 hc        1 5N4      0.052867
     46 C1         -2.8040   -1.2420    1.3200 c3        1 5N4     -0.095100
@<TRIPOS>BOND
     1    1    3 ar  
     2    1    8 ar  
     3    1   24 1   
     4    2   13 1   
     5    2   27 1   
     6    2   28 1   
     7    2   29 1   
     8    3   10 ar  
     9    3   14 1   
    10    4    7 1   
    11    4   12 2   
    12    4   30 1   
    13    5    6 1   
    14    5   10 ar  
    15    5   11 ar  
    16    6    7 2   
    17    6   13 1   
    18    7   31 1   
    19    8    9 1   
    20    8   11 ar  
    21    9   25 1   
    22    9   26 1   
    23    9   46 1   
    24   12   13 1   
    25   14   15 1   
    26   14   35 1   
    27   15   16 1   
    28   15   23 2   
    29   16   17 ar  
    30   16   21 ar  
    31   17   18 ar  
    32   17   36 1   
    33   18   19 ar  
    34   18   37 1   
    35   19   20 ar  
    36   19   38 1   
    37   20   21 ar  
    38   20   39 1   
    39   21   22 1   
    40   22   23 1   
    41   22   40 1   
    42   24   25 1   
    43   24   41 1   
    44   24   42 1   
    45   26   43 1   
    46   26   44 1   
    47   26   45 1   
    48   32   46 1   
    49   33   46 1   
    50   34   46 1   
@<TRIPOS>SUBSTRUCTURE
     1 5N4         1 TEMP              0 ****  ****    0 ROOT
