@<TRIPOS>MOLECULE
5N5
   33    35     1     0     0
SMALL
bcc


@<TRIPOS>ATOM
      1 O2'         1.6720   -2.8640    0.1740 oh        1 5N5     -0.594800
      2 C2'         1.4880   -1.5730   -0.3660 c3        1 5N5      0.081100
      3 C3'         2.8560   -1.0470   -0.8530 c3        1 5N5      0.133100
      4 O3'         3.8590   -2.0300   -0.8980 oh        1 5N5     -0.575800
      5 C4'         3.2200    0.1010    0.1090 c3        1 5N5      0.048100
      6 C5'         3.3470    1.4480   -0.6230 c3        1 5N5      0.141800
      7 N5'         3.6860    2.5800    0.1940 n3        1 5N5     -0.898800
      8 O4'         2.1980    0.2030    1.1140 os        1 5N5     -0.415600
      9 C1'         1.0640   -0.6010    0.7850 c3        1 5N5      0.230800
     10 N9         -0.0690    0.2310    0.4460 na        1 5N5     -0.294000
     11 C8         -0.1690    1.6440    0.4290 cc        1 5N5      0.423700
     12 N7         -1.4030    2.0880    0.1470 nd        1 5N5     -0.545100
     13 C5         -2.1790    0.9320   -0.0300 ca        1 5N5     -0.229200
     14 C4         -1.3540   -0.2550    0.1580 ca        1 5N5      0.450800
     15 N3         -1.8220   -1.5360    0.0520 nb        1 5N5     -0.759000
     16 C2         -3.1430   -1.5790   -0.2430 ca        1 5N5      0.690900
     17 N1         -4.0310   -0.5710   -0.4430 nb        1 5N5     -0.796000
     18 C6         -3.5640    0.7210   -0.3430 ca        1 5N5      0.767200
     19 N6         -4.3950    1.7880   -0.5470 nh        1 5N5     -0.958500
     20 H1          0.7970   -3.2720    0.2280 ho        1 5N5      0.434000
     21 H2          0.7450   -1.5940   -1.2060 h1        1 5N5      0.085700
     22 H3          2.7780   -0.6760   -1.9130 h1        1 5N5      0.095700
     23 H4          3.8160   -2.5470   -0.0820 ho        1 5N5      0.425000
     24 H5          4.1620   -0.1400    0.6750 h1        1 5N5      0.083700
     25 H6          4.1330    1.3290   -1.4200 h1        1 5N5      0.063700
     26 H7          2.3630    1.6720   -1.1260 h1        1 5N5      0.063700
     27 H8          3.0270    2.6880    0.9420 hn        1 5N5      0.352300
     28 H9          4.6020    2.4820    0.5850 hn        1 5N5      0.352300
     29 H11         0.8150   -1.1800    1.7260 h2        1 5N5      0.104700
     30 H12         0.7110    2.2680    0.6330 h5        1 5N5      0.084800
     31 H13        -3.5750   -2.5990   -0.3370 h5        1 5N5      0.051100
     32 H14        -4.0360    2.7030   -0.4360 hn        1 5N5      0.451300
     33 H15        -5.3560    1.6540   -0.7380 hn        1 5N5      0.451300
@<TRIPOS>BOND
     1    1    2 1   
     2    1   20 1   
     3    2    3 1   
     4    2    9 1   
     5    2   21 1   
     6    3    4 1   
     7    3    5 1   
     8    3   22 1   
     9    4   23 1   
    10    5    6 1   
    11    5    8 1   
    12    5   24 1   
    13    6    7 1   
    14    6   25 1   
    15    6   26 1   
    16    7   27 1   
    17    7   28 1   
    18    8    9 1   
    19    9   10 1   
    20    9   29 1   
    21   10   11 1   
    22   10   14 1   
    23   11   12 2   
    24   11   30 1   
    25   12   13 1   
    26   13   14 ar  
    27   13   18 ar  
    28   14   15 ar  
    29   15   16 ar  
    30   16   17 ar  
    31   16   31 1   
    32   17   18 ar  
    33   18   19 1   
    34   19   32 1   
    35   19   33 1   
@<TRIPOS>SUBSTRUCTURE
     1 5N5         1 TEMP              0 ****  ****    0 ROOT
