@<TRIPOS>MOLECULE
5N5
   34    36     1     0     0
SMALL
bcc


@<TRIPOS>ATOM
      1 O2'        -0.0530   -0.2450    1.6510 oh        1 5N5     -0.583800
      2 C2'         0.9620   -0.4340    0.6920 c3        1 5N5      0.087100
      3 C3'         2.3180   -0.4880    1.4420 c3        1 5N5      0.133100
      4 O3'         2.2220   -0.8740    2.7830 oh        1 5N5     -0.564800
      5 C4'         2.8890    0.9460    1.3120 c3        1 5N5      0.067100
      6 C5'         4.2850    0.9330    0.6650 c3        1 5N5      0.079800
      7 N5'         4.7150    2.3070    0.2790 nz        1 5N5     -0.831600
      8 O4'         2.0130    1.7140    0.4960 os        1 5N5     -0.439600
      9 C1'         1.0460    0.8640   -0.1750 c3        1 5N5      0.232800
     10 N9          1.4360    0.6370   -1.5340 na        1 5N5     -0.314000
     11 C8          2.2890   -0.3790   -2.0570 cc        1 5N5      0.355700
     12 N7          2.5770   -0.2230   -3.3520 nd        1 5N5     -0.500100
     13 C5          1.9210    0.9570   -3.7400 ca        1 5N5     -0.259200
     14 C4          1.2050    1.5260   -2.6050 ca        1 5N5      0.474800
     15 N3          0.4800    2.6760   -2.6590 nb        1 5N5     -0.746000
     16 C2          0.4720    3.2270   -3.9040 ca        1 5N5      0.708900
     17 N1          1.0690    2.8080   -5.0440 nb        1 5N5     -0.775000
     18 C6          1.8180    1.6480   -4.9960 ca        1 5N5      0.774200
     19 N6          2.4720    1.1870   -6.1000 nv        1 5N5     -0.935500
     20 H1         -0.8040   -0.8030    1.4080 ho        1 5N5      0.444000
     21 H2          0.7960   -1.3570    0.0800 h1        1 5N5      0.094700
     22 H3          3.0010   -1.2470    0.9690 h1        1 5N5      0.090700
     23 H4          1.4250   -0.4770    3.1710 ho        1 5N5      0.446000
     24 H5          2.9190    1.4540    2.3160 h1        1 5N5      0.110700
     25 H6          5.0340    0.5020    1.3890 hx        1 5N5      0.117200
     26 H7          4.2660    0.3080   -0.2760 hx        1 5N5      0.117200
     27 H8          5.5660    2.2710   -0.2870 hn        1 5N5      0.468133
     28 H9          3.9550    2.7490   -0.2630 hn        1 5N5      0.468133
     29 H11         0.0860    1.4650   -0.1450 h2        1 5N5      0.158700
     30 H12         2.6030   -1.2300   -1.4410 h5        1 5N5      0.067800
     31 H13        -0.1210    4.1650   -4.0030 h5        1 5N5      0.071100
     32 H14         2.3370    1.6230   -6.9820 hn        1 5N5      0.458300
     33 H15         2.8980    0.2930   -6.0650 hn        1 5N5      0.458300
     34 H5'3        4.8840    2.8740    1.1150 hn        1 5N5      0.468133
@<TRIPOS>BOND
     1    1    2 1   
     2    1   20 1   
     3    2    3 1   
     4    2    9 1   
     5    2   21 1   
     6    3    4 1   
     7    3    5 1   
     8    3   22 1   
     9    4   23 1   
    10    5    6 1   
    11    5    8 1   
    12    5   24 1   
    13    6    7 1   
    14    6   25 1   
    15    6   26 1   
    16    7   27 1   
    17    7   28 1   
    18    7   34 1   
    19    8    9 1   
    20    9   10 1   
    21    9   29 1   
    22   10   11 1   
    23   10   14 1   
    24   11   12 2   
    25   11   30 1   
    26   12   13 1   
    27   13   14 ar  
    28   13   18 ar  
    29   14   15 ar  
    30   15   16 ar  
    31   16   17 ar  
    32   16   31 1   
    33   17   18 ar  
    34   18   19 1   
    35   19   32 1   
    36   19   33 1   
@<TRIPOS>SUBSTRUCTURE
     1 5N5         1 TEMP              0 ****  ****    0 ROOT
