@<TRIPOS>MOLECULE
5N5
   33    30     1     0     0
SMALL
bcc


@<TRIPOS>ATOM
      1 O2'        -2.3850   -0.9970    1.0440 oh        1 5N5     -0.326000
      2 C2'        -0.9200   -1.0090    1.0410 c3        1 5N5     -0.026000
      3 C3'        -0.3860   -0.9550    2.4930 c3        1 5N5      0.022000
      4 O3'        -1.3780   -0.6660    3.3410 oh        1 5N5     -0.317000
      5 C4'         0.6710    0.1650    2.5050 c3        1 5N5     -0.029000
      6 C5'         1.9740   -0.3380    3.1720 c3        1 5N5     -0.098000
      7 N5'         2.6220    0.7600    3.8670 n3        1 5N5     -0.328000
      8 O4'         0.8850    0.4410    1.2550 os        1 5N5     -0.275000
      9 C1'        -0.4680    0.0620    0.4770 c3        1 5N5      0.141000
     10 N9         -0.1890   -0.1910   -0.8930 n3        1 5N5     -0.209000
     11 C8          0.9120   -0.8220   -1.3440 c1        1 5N5     -0.028000
     12 N7          1.0070   -0.5950   -2.6790 n2        1 5N5     -0.119000
     13 C5         -0.0380    0.1780   -3.0490 c1        1 5N5     -0.237000
     14 C4         -0.7800    0.4310   -1.9540 c1        1 5N5      0.059000
     15 N3         -1.8540    1.2920   -2.0350 n1        1 5N5     -0.242000
     16 C2         -2.1650    1.8870   -3.2280 c1        1 5N5      0.030000
     17 N1         -1.4110    1.6290   -4.3380 n1        1 5N5     -0.270000
     18 C6         -0.3580    0.7850   -4.2610 c1        1 5N5      0.246000
     19 N6          0.1740    0.7280   -5.5850 n2        1 5N5     -0.356000
     20 H1         -2.6920   -1.8280    0.8910 ho        1 5N5      0.240000
     21 H2         -0.5940   -1.7820    0.5970 h1        1 5N5      0.117000
     22 H3          0.0370   -1.8360    2.7380 h1        1 5N5      0.101000
     23 H4         -1.5440   -1.3420    3.8200 ho        1 5N5      0.231000
     24 H5          0.3220    0.9680    2.9840 h1        1 5N5      0.138000
     25 H6          2.5820   -0.6930    2.4780 h1        1 5N5      0.101500
     26 H7          1.7540   -1.0710    3.8350 h1        1 5N5      0.101500
     27 H8          3.5640    0.7910    3.6170 hn        1 5N5      0.146500
     28 H9          2.5480    0.6290    4.7990 hn        1 5N5      0.146500
     29 H11        -1.1390    0.8080    0.5610 h2        1 5N5      0.142000
     30 H12         1.4690   -1.4000   -0.8370 DU        1 5N5      0.213000
     31 H13        -2.9530    2.5180   -3.2880 ha        1 5N5      0.188000
     32 H14         0.9460    0.2200   -5.7600 hn        1 5N5      0.247000
     33 H15        -0.2130    1.2350   -6.2640 hn        1 5N5      0.247000
@<TRIPOS>BOND
     1    1    2 1   
     2    1   20 1   
     3    2    3 1   
     4    2    9 1   
     5    2   21 1   
     6    3    4 1   
     7    3    5 1   
     8    3   22 1   
     9    4   23 1   
    10    5    6 1   
    11    5    8 1   
    12    5   24 1   
    13    6    7 1   
    14    6   25 1   
    15    6   26 1   
    16    7   27 1   
    17    7   28 1   
    18    8    9 1   
    19    9   10 1   
    20    9   29 1   
    21   10   11 1   
    22   10   14 1   
    23   11   12 1   
    24   12   13 1   
    25   13   18 1   
    26   14   15 1   
    27   16   17 1   
    28   16   31 1   
    29   19   32 1   
    30   19   33 1   
@<TRIPOS>SUBSTRUCTURE
     1 5N5         1 TEMP              0 ****  ****    0 ROOT
