@<TRIPOS>MOLECULE
5N5
   34    36     1     0     0
SMALL
bcc


@<TRIPOS>ATOM
      1 O2'        -0.0220   -0.3310    1.6380 oh        1 5N5     -0.583800
      2 C2'         0.9910   -0.4860    0.6700 c3        1 5N5      0.087100
      3 C3'         2.3510   -0.5340    1.4130 c3        1 5N5      0.133100
      4 O3'         2.2680   -0.9450    2.7470 oh        1 5N5     -0.564800
      5 C4'         2.9000    0.9110    1.3060 c3        1 5N5      0.067100
      6 C5'         4.2920    0.9310    0.6520 c3        1 5N5      0.079800
      7 N5'         4.6990    2.3190    0.2890 n4        1 5N5     -0.831600
      8 O4'         2.0080    1.6810    0.5090 os        1 5N5     -0.439600
      9 C1'         1.0500    0.8290   -0.1720 c3        1 5N5      0.232800
     10 N9          1.4360    0.6340   -1.5370 na        1 5N5     -0.314000
     11 C8          2.3020   -0.3600   -2.0840 cc        1 5N5      0.355700
     12 N7          2.5810   -0.1740   -3.3770 nd        1 5N5     -0.500100
     13 C5          1.9050    1.0020   -3.7390 ca        1 5N5     -0.259200
     14 C4          1.1860    1.5390   -2.5900 ca        1 5N5      0.474800
     15 N3          0.4430    2.6790   -2.6190 nb        1 5N5     -0.746000
     16 C2          0.4210    3.2520   -3.8530 ca        1 5N5      0.708900
     17 N1          1.0180    2.8650   -5.0040 nb        1 5N5     -0.775000
     18 C6          1.7840    1.7160   -4.9810 ca        1 5N5      0.774200
     19 N6          2.4400    1.2850   -6.0970 nh        1 5N5     -0.935500
     20 H1         -0.7650   -0.8970    1.3890 ho        1 5N5      0.444000
     21 H2          0.8360   -1.4000    0.0420 h1        1 5N5      0.094700
     22 H3          3.0430   -1.2730    0.9220 h1        1 5N5      0.090700
     23 H4          1.4670   -0.5680    3.1460 ho        1 5N5      0.446000
     24 H5          2.9280    1.4010    2.3200 h1        1 5N5      0.110700
     25 H6          5.0510    0.4990    1.3640 hx        1 5N5      0.117200
     26 H7          4.2770    0.3240   -0.3000 hx        1 5N5      0.117200
     27 H8          4.8650    2.8730    1.1350 hn        1 5N5      0.468133
     28 H9          5.5470    2.3060   -0.2830 hn        1 5N5      0.468133
     29 H11         0.0820    1.4140   -0.1270 h2        1 5N5      0.158700
     30 H12         2.6320   -1.2170   -1.4860 h5        1 5N5      0.067800
     31 H13        -0.1870    4.1830   -3.9310 h5        1 5N5      0.071100
     32 H14         2.2940    1.7360   -6.9700 hn        1 5N5      0.458300
     33 H15         2.8800    0.3970   -6.0810 hn        1 5N5      0.458300
     34 H5'3        3.9300    2.7590   -0.2410 hn        1 5N5      0.468133
@<TRIPOS>BOND
     1    1    2 1   
     2    1   20 1   
     3    2    3 1   
     4    2    9 1   
     5    2   21 1   
     6    3    4 1   
     7    3    5 1   
     8    3   22 1   
     9    4   23 1   
    10    5    6 1   
    11    5    8 1   
    12    5   24 1   
    13    6    7 1   
    14    6   25 1   
    15    6   26 1   
    16    7   27 1   
    17    7   28 1   
    18    7   34 1   
    19    8    9 1   
    20    9   10 1   
    21    9   29 1   
    22   10   11 1   
    23   10   14 1   
    24   11   12 2   
    25   11   30 1   
    26   12   13 1   
    27   13   14 ar  
    28   13   18 ar  
    29   14   15 ar  
    30   15   16 ar  
    31   16   17 ar  
    32   16   31 1   
    33   17   18 ar  
    34   18   19 1   
    35   19   32 1   
    36   19   33 1   
@<TRIPOS>SUBSTRUCTURE
     1 5N5         1 TEMP              0 ****  ****    0 ROOT
