@<TRIPOS>MOLECULE
5N5
   35    37     1     0     0
SMALL
bcc


@<TRIPOS>ATOM
      1 O2'         0.0680   -0.3250    0.8730 oh        1 5N5     -0.580800
      2 C2'         1.3310   -0.4510    0.2590 c3        1 5N5      0.082100
      3 C3'         2.4310   -0.5180    1.3450 c3        1 5N5      0.110100
      4 O3'         1.9550   -0.8750    2.6100 oh        1 5N5     -0.556800
      5 C4'         3.0380    0.9030    1.3510 c3        1 5N5      0.070100
      6 C5'         4.5560    0.8720    1.5360 c3        1 5N5      0.101800
      7 N5'         5.1340    2.2400    1.6600 n4        1 5N5     -0.835600
      8 O4'         2.7500    1.5150    0.0910 os        1 5N5     -0.451600
      9 C1'         1.5670    0.9050   -0.4900 c3        1 5N5      0.249800
     10 N9          1.7370    0.7810   -1.9140 na        1 5N5     -0.275000
     11 C8          2.5060   -0.1580   -2.6470 cc        1 5N5      0.491700
     12 N7          2.4230   -0.0170   -3.9790 nd        1 5N5     -0.552100
     13 C5          1.5630    1.0720   -4.1770 ca        1 5N5     -0.143200
     14 C4          1.1220    1.6110   -2.8740 ca        1 5N5      0.469800
     15 N3          0.2890    2.6730   -2.7530 nb        1 5N5     -0.622000
     16 C2         -0.1140    3.1960   -3.9410 ca        1 5N5      0.693900
     17 N1          0.2090    2.7860   -5.2040 nb        1 5N5     -0.663000
     18 C6          1.0430    1.7240   -5.3120 ca        1 5N5      0.544200
     19 N6          1.4050    1.2260   -6.6530 n4        1 5N5     -0.819300
     20 H1         -0.3220   -1.2100    0.9450 ho        1 5N5      0.454000
     21 H2          1.3790   -1.3410   -0.4180 h1        1 5N5      0.088700
     22 H3          3.2040   -1.2960    1.0930 h1        1 5N5      0.105700
     23 H4          1.1120   -0.4180    2.7730 ho        1 5N5      0.442000
     24 H5          2.5460    1.5220    2.1560 h1        1 5N5      0.097700
     25 H6          4.7920    0.2900    2.4760 hx        1 5N5      0.128700
     26 H7          5.0470    0.3700    0.6530 hx        1 5N5      0.128700
     27 H8          6.1570    2.1870    1.7200 hn        1 5N5      0.471133
     28 H9          4.8690    2.8020    0.8410 hn        1 5N5      0.471133
     29 H11         0.7050    1.6170   -0.2890 h2        1 5N5      0.154700
     30 H12         3.1030   -0.9350   -2.1420 h5        1 5N5      0.099800
     31 H13        -0.8040    4.0740   -3.8860 h5        1 5N5      0.115100
     32 H14         2.4200    1.0600   -6.6830 hn        1 5N5      0.485800
     33 H15         0.9110    0.3390   -6.8200 hn        1 5N5      0.485800
     34 H5'3        4.7750    2.7040    2.5030 hn        1 5N5      0.471133
     35 H63         1.1430    1.9040   -7.3850 hn        1 5N5      0.485800
@<TRIPOS>BOND
     1    1    2 1   
     2    1   20 1   
     3    2    3 1   
     4    2    9 1   
     5    2   21 1   
     6    3    4 1   
     7    3    5 1   
     8    3   22 1   
     9    4   23 1   
    10    5    6 1   
    11    5    8 1   
    12    5   24 1   
    13    6    7 1   
    14    6   25 1   
    15    6   26 1   
    16    7   27 1   
    17    7   28 1   
    18    7   34 1   
    19    8    9 1   
    20    9   10 1   
    21    9   29 1   
    22   10   11 1   
    23   10   14 1   
    24   11   12 2   
    25   11   30 1   
    26   12   13 1   
    27   13   14 ar  
    28   13   18 ar  
    29   14   15 ar  
    30   15   16 ar  
    31   16   17 ar  
    32   16   31 1   
    33   17   18 ar  
    34   18   19 1   
    35   19   32 1   
    36   19   33 1   
    37   19   35 1   
@<TRIPOS>SUBSTRUCTURE
     1 5N5         1 TEMP              0 ****  ****    0 ROOT
