@<TRIPOS>MOLECULE
5NA
   24    21     1     0     0
SMALL
bcc


@<TRIPOS>ATOM
      1 C1A        -0.7770    0.0250   -2.5410 c1        1 5NA     -0.167000
      2 C1B         0.6140    0.0430   -2.5450 c1        1 5NA     -0.147000
      3 C1C         1.3120    0.0780   -1.3440 c1        1 5NA     -0.078000
      4 C1D         0.6120    0.0940   -0.1230 c2        1 5NA     -0.073000
      5 C1E        -0.7630    0.0760   -0.1190 c1        1 5NA      0.019000
      6 C1F        -1.4690    0.0410   -1.3370 c2        1 5NA     -0.089000
      7 C1G         1.3180    0.1300    1.0940 c2        1 5NA     -0.129000
      8 C1H         0.6270    0.1480    2.2980 c1        1 5NA     -0.157000
      9 C1I        -0.7650    0.1290    2.3020 c1        1 5NA      0.106000
     10 C1J        -1.4620    0.0940    1.1020 c1        1 5NA     -0.171000
     11 O1K        -1.4250    0.0350    3.5410 oh        1 5NA     -0.304000
     12 C1L        -2.8580   -0.4360    1.3490 c2        1 5NA      0.363000
     13 O1M        -3.0910   -1.6680    1.2430 o         1 5NA     -0.564500
     14 O1N        -3.7850    0.3560    1.6640 o         1 5NA     -0.564500
     15 C1O         2.7890   -0.0030   -1.6610 c2        1 5NA     -0.166000
     16 H1A        -1.2670    0.0010   -3.3840 ha        1 5NA      0.113000
     17 H1B         1.1000    0.0320   -3.3910 ha        1 5NA      0.106000
     18 H1F        -2.4450    0.0300   -1.3340 ha        1 5NA      0.188000
     19 H1G         2.2940    0.1430    1.0910 ha        1 5NA      0.110000
     20 H1H         1.1160    0.1730    3.1410 ha        1 5NA      0.126000
     21 HO1K       -1.0040    0.5390    4.1410 ho        1 5NA      0.275000
     22 H1O         3.0400   -0.9380   -1.8130 ha        1 5NA      0.068333
     23 H1OA        2.9800    0.5220   -2.4660 ha        1 5NA      0.068333
     24 H1OB        3.3050    0.3550   -0.9080 ha        1 5NA      0.068333
@<TRIPOS>BOND
     1    1    6 1   
     2    1   16 1   
     3    2    3 1   
     4    2   17 1   
     5    3    4 1   
     6    4    5 1   
     7    4    7 1   
     8    5    6 1   
     9    6   18 1   
    10    7    8 1   
    11    7   19 1   
    12    8   20 1   
    13    9   10 1   
    14    9   11 1   
    15   10   12 1   
    16   11   21 1   
    17   12   13 1   
    18   12   14 1   
    19   15   22 1   
    20   15   23 1   
    21   15   24 1   
@<TRIPOS>SUBSTRUCTURE
     1 5NA         1 TEMP              0 ****  ****    0 ROOT
