@<TRIPOS>MOLECULE
5NA
   24    25     1     0     0
SMALL
bcc


@<TRIPOS>ATOM
      1 C1A         1.8350   -2.2340    0.0840 ca        1 5NA     -0.167000
      2 C1B         2.9190   -1.3270    0.1030 ca        1 5NA     -0.147000
      3 C1C         2.6950    0.0300    0.0640 ca        1 5NA     -0.085300
      4 C1D         1.3570    0.5320   -0.0010 ca        1 5NA     -0.073000
      5 C1E         0.2630   -0.3780   -0.0240 ca        1 5NA      0.019000
      6 C1F         0.5440   -1.7760    0.0230 ca        1 5NA     -0.089000
      7 C1G         1.0930    1.9260   -0.0450 ca        1 5NA     -0.129000
      8 C1H        -0.1910    2.3970   -0.1300 ca        1 5NA     -0.157000
      9 C1I        -1.2800    1.4810   -0.1750 ca        1 5NA      0.151100
     10 C1J        -1.0740    0.1060   -0.1010 ca        1 5NA     -0.191600
     11 O1K        -2.5090    2.0820   -0.2760 oh        1 5NA     -0.550100
     12 C1L        -2.2710   -0.8310   -0.1160 c         1 5NA      0.914200
     13 O1M        -3.2690   -0.4840   -0.8230 o         1 5NA     -0.829800
     14 O1N        -2.2600   -1.8840    0.5760 o         1 5NA     -0.829800
     15 C1O         3.8390    0.9740    0.0870 c3        1 5NA     -0.040800
     16 H1A         2.0430   -3.3120    0.1210 ha        1 5NA      0.113000
     17 H1B         3.9440   -1.7230    0.1520 ha        1 5NA      0.106000
     18 H1F        -0.3130   -2.4770    0.0270 ha        1 5NA      0.188000
     19 H1G         1.9340    2.6330   -0.0130 ha        1 5NA      0.110000
     20 H1H        -0.4090    3.4730   -0.1710 ha        1 5NA      0.126000
     21 HO1K       -3.1870    1.3930   -0.4360 ho        1 5NA      0.476000
     22 H1O         3.8390    1.6110   -0.8340 hc        1 5NA      0.029033
     23 H1OA        3.7720    1.6470    0.9780 hc        1 5NA      0.029033
     24 H1OB        4.8130    0.4280    0.1340 hc        1 5NA      0.029033
@<TRIPOS>BOND
     1    1    2 ar  
     2    1    6 ar  
     3    1   16 1   
     4    2    3 ar  
     5    2   17 1   
     6    3    4 ar  
     7    3   15 1   
     8    4    5 ar  
     9    4    7 ar  
    10    5    6 ar  
    11    5   10 ar  
    12    6   18 1   
    13    7    8 ar  
    14    7   19 1   
    15    8    9 ar  
    16    8   20 1   
    17    9   10 ar  
    18    9   11 1   
    19   10   12 1   
    20   11   21 1   
    21   12   13 1   
    22   12   14 1   
    23   15   22 1   
    24   15   23 1   
    25   15   24 1   
@<TRIPOS>SUBSTRUCTURE
     1 5NA         1 TEMP              0 ****  ****    0 ROOT
