@<TRIPOS>MOLECULE
5NA
   24    25     1     0     0
SMALL
bcc


@<TRIPOS>ATOM
      1 C1A        -0.0270   -0.0880    0.0190 ca        1 5NA     -0.167000
      2 C1B         1.3860   -0.1030   -0.0230 ca        1 5NA     -0.147000
      3 C1C         2.1190   -0.0590    1.1410 ca        1 5NA     -0.085300
      4 C1D         1.4520    0.0050    2.4040 ca        1 5NA     -0.073000
      5 C1E         0.0290    0.0220    2.4510 ca        1 5NA      0.019000
      6 C1F        -0.6890   -0.0290    1.2180 ca        1 5NA     -0.089000
      7 C1G         2.1790    0.0520    3.6220 ca        1 5NA     -0.129000
      8 C1H         1.5320    0.1370    4.8260 ca        1 5NA     -0.157000
      9 C1I         0.1090    0.1760    4.8650 ca        1 5NA      0.151100
     10 C1J        -0.6490    0.0990    3.7000 ca        1 5NA     -0.191600
     11 O1K        -0.4110    0.2780    6.1300 oh        1 5NA     -0.550100
     12 C1L        -2.1670    0.1090    3.7950 c         1 5NA      0.914200
     13 O1M        -2.6850    0.8150    4.7160 o         1 5NA     -0.829800
     14 O1N        -2.8550   -0.5860    3.0000 o         1 5NA     -0.829800
     15 C1O         3.6010   -0.0770    1.0870 c3        1 5NA     -0.040800
     16 H1A        -0.5870   -0.1280   -0.9250 ha        1 5NA      0.113000
     17 H1B         1.8890   -0.1510   -0.9990 ha        1 5NA      0.106000
     18 H1F        -1.7950   -0.0360    1.2630 ha        1 5NA      0.188000
     19 H1G         3.2780    0.0240    3.5920 ha        1 5NA      0.110000
     20 H1H         2.0830    0.1800    5.7760 ha        1 5NA      0.126000
     21 HO1K       -1.3760    0.4340    6.0650 ho        1 5NA      0.476000
     22 H1O         4.0010   -0.9670    1.6360 hc        1 5NA      0.029033
     23 H1OA        3.9670   -0.1240    0.0320 hc        1 5NA      0.029033
     24 H1OB        4.0210    0.8450    1.5620 hc        1 5NA      0.029033
@<TRIPOS>BOND
     1    1    2 ar  
     2    1    6 ar  
     3    1   16 1   
     4    2    3 ar  
     5    2   17 1   
     6    3    4 ar  
     7    3   15 1   
     8    4    5 ar  
     9    4    7 ar  
    10    5    6 ar  
    11    5   10 ar  
    12    6   18 1   
    13    7    8 ar  
    14    7   19 1   
    15    8    9 ar  
    16    8   20 1   
    17    9   10 ar  
    18    9   11 1   
    19   10   12 1   
    20   11   21 1   
    21   12   13 1   
    22   12   14 1   
    23   15   22 1   
    24   15   23 1   
    25   15   24 1   
@<TRIPOS>SUBSTRUCTURE
     1 5NA         1 TEMP              0 ****  ****    0 ROOT
