@<TRIPOS>MOLECULE
5NA
   24    25     1     0     0
SMALL
bcc


@<TRIPOS>ATOM
      1 C1A        -0.0360    0.0650    0.0200 ca        1 5NA     -0.167000
      2 C1B         1.3740   -0.0130   -0.0290 ca        1 5NA     -0.147000
      3 C1C         2.1110   -0.0570    1.1330 ca        1 5NA     -0.085300
      4 C1D         1.4500   -0.0200    2.4000 ca        1 5NA     -0.073000
      5 C1E         0.0290    0.0600    2.4530 ca        1 5NA      0.019000
      6 C1F        -0.6930    0.1000    1.2220 ca        1 5NA     -0.089000
      7 C1G         2.1810   -0.0630    3.6160 ca        1 5NA     -0.129000
      8 C1H         1.5400   -0.0040    4.8250 ca        1 5NA     -0.157000
      9 C1I         0.1200    0.0990    4.8720 ca        1 5NA      0.151100
     10 C1J        -0.6420    0.1110    3.7080 ca        1 5NA     -0.191600
     11 O1K        -0.3920    0.1660    6.1420 oh        1 5NA     -0.550100
     12 C1L        -2.1580    0.1860    3.8080 c         1 5NA      0.914200
     13 O1M        -2.6420    0.8720    4.7630 o         1 5NA     -0.829800
     14 O1N        -2.8790   -0.4390    2.9850 o         1 5NA     -0.829800
     15 C1O         3.5910   -0.1410    1.0730 c3        1 5NA     -0.040800
     16 H1A        -0.5990    0.0940   -0.9240 ha        1 5NA      0.113000
     17 H1B         1.8730   -0.0390   -1.0080 ha        1 5NA      0.106000
     18 H1F        -1.7970    0.1410    1.2710 ha        1 5NA      0.188000
     19 H1G         3.2770   -0.1400    3.5810 ha        1 5NA      0.110000
     20 H1H         2.0940   -0.0300    5.7740 ha        1 5NA      0.126000
     21 HO1K       -1.3490    0.3690    6.0880 ho        1 5NA      0.476000
     22 H1O         3.9500   -1.0720    1.5780 hc        1 5NA      0.029033
     23 H1OA        3.9520   -0.1560    0.0150 hc        1 5NA      0.029033
     24 H1OB        4.0530    0.7380    1.5880 hc        1 5NA      0.029033
@<TRIPOS>BOND
     1    1    2 ar  
     2    1    6 ar  
     3    1   16 1   
     4    2    3 ar  
     5    2   17 1   
     6    3    4 ar  
     7    3   15 1   
     8    4    5 ar  
     9    4    7 ar  
    10    5    6 ar  
    11    5   10 ar  
    12    6   18 1   
    13    7    8 ar  
    14    7   19 1   
    15    8    9 ar  
    16    8   20 1   
    17    9   10 ar  
    18    9   11 1   
    19   10   12 1   
    20   11   21 1   
    21   12   13 1   
    22   12   14 1   
    23   15   22 1   
    24   15   23 1   
    25   15   24 1   
@<TRIPOS>SUBSTRUCTURE
     1 5NA         1 TEMP              0 ****  ****    0 ROOT
