@<TRIPOS>MOLECULE
5NB
   34    36     1     0     0
SMALL
bcc


@<TRIPOS>ATOM
      1 O2'        -0.1720   -0.3330    0.8300 oh        1 5NB     -0.590800
      2 C2'         1.1700   -0.3840    0.3910 c3        1 5NB      0.087100
      3 C3'         2.0780   -0.2100    1.6310 c3        1 5NB      0.132100
      4 O3'         1.4520   -0.4710    2.8550 oh        1 5NB     -0.568800
      5 C4'         2.5580    1.2580    1.5590 c3        1 5NB      0.077100
      6 C5'         4.0790    1.3630    1.7440 c3        1 5NB      0.085800
      7 N5'         4.5720    2.7370    1.4390 n4        1 5NB     -0.831600
      8 O4'         2.2200    1.8020    0.2890 os        1 5NB     -0.459600
      9 C1'         1.4090    0.8830   -0.4910 c3        1 5NB      0.234800
     10 N9          1.9960    0.6660   -1.7810 na        1 5NB     -0.277000
     11 C8          3.2020    0.0010   -2.1760 cc        1 5NB      0.308800
     12 BR8         4.1520   -1.1650   -1.0820 br        1 5NB      0.015700
     13 N7          3.5490    0.2340   -3.4520 nd        1 5NB     -0.462100
     14 C5          2.5840    1.1140   -3.9500 ca        1 5NB     -0.254200
     15 C4          1.6090    1.4220   -2.9160 ca        1 5NB      0.486800
     16 N3          0.5500    2.2580   -3.0950 nb        1 5NB     -0.750000
     17 C2          0.4930    2.7650   -4.3570 ca        1 5NB      0.716900
     18 N1          1.3120    2.5620   -5.4150 nb        1 5NB     -0.777000
     19 C6          2.3930    1.7190   -5.2430 ca        1 5NB      0.783200
     20 N6          3.2660    1.4780   -6.2600 nh        1 5NB     -0.934500
     21 H1         -0.6590   -1.0440    0.3930 ho        1 5NB      0.445000
     22 H2          1.3960   -1.3400   -0.1470 h1        1 5NB      0.101700
     23 H3          2.9450   -0.9270    1.5910 h1        1 5NB      0.097700
     24 H4          0.5290   -0.1740    2.8140 ho        1 5NB      0.444000
     25 H5          2.0260    1.8770    2.3370 h1        1 5NB      0.097700
     26 H6          4.6060    0.6510    1.0430 hx        1 5NB      0.120700
     27 H7          4.3410    1.1050    2.8090 hx        1 5NB      0.120700
     28 H8          4.1980    3.4060    2.1190 hn        1 5NB      0.466467
     29 H9          5.5940    2.7640    1.4600 hn        1 5NB      0.466467
     30 H11         0.4210    1.4290   -0.6380 h2        1 5NB      0.155700
     31 H12        -0.3630    3.4520   -4.5520 h5        1 5NB      0.071100
     32 H13         3.1100    1.8590   -7.1630 hn        1 5NB      0.460800
     33 H14         3.9950    0.8200   -6.1270 hn        1 5NB      0.460800
     34 H5'3        4.2370    3.0070    0.5020 hn        1 5NB      0.466467
@<TRIPOS>BOND
     1    1    2 1   
     2    1   21 1   
     3    2    3 1   
     4    2    9 1   
     5    2   22 1   
     6    3    4 1   
     7    3    5 1   
     8    3   23 1   
     9    4   24 1   
    10    5    6 1   
    11    5    8 1   
    12    5   25 1   
    13    6    7 1   
    14    6   26 1   
    15    6   27 1   
    16    7   28 1   
    17    7   29 1   
    18    7   34 1   
    19    8    9 1   
    20    9   10 1   
    21    9   30 1   
    22   10   11 1   
    23   10   15 1   
    24   11   12 1   
    25   11   13 2   
    26   13   14 1   
    27   14   15 ar  
    28   14   19 ar  
    29   15   16 ar  
    30   16   17 ar  
    31   17   18 ar  
    32   17   31 1   
    33   18   19 ar  
    34   19   20 1   
    35   20   32 1   
    36   20   33 1   
@<TRIPOS>SUBSTRUCTURE
     1 5NB         1 TEMP              0 ****  ****    0 ROOT
