@<TRIPOS>MOLECULE
5NB
   33    35     1     0     0
SMALL
bcc


@<TRIPOS>ATOM
      1 O2'        -1.4720    2.8350   -1.8600 oh        1 5NB     -0.590800
      2 C2'        -1.5340    1.4840   -1.4400 c3        1 5NB      0.074100
      3 C3'        -2.9670    1.1260   -0.9870 c3        1 5NB      0.090100
      4 O3'        -3.8820    2.1310   -1.3610 oh        1 5NB     -0.586800
      5 C4'        -2.8830    0.9420    0.5370 c3        1 5NB      0.061100
      6 C5'        -3.4920   -0.3900    1.0080 c3        1 5NB      0.153800
      7 N5'        -3.3810   -0.6810    2.4090 n3        1 5NB     -0.895800
      8 O4'        -1.5060    0.9920    0.9320 os        1 5NB     -0.422600
      9 C1'        -0.6570    1.4010   -0.1550 c3        1 5NB      0.253800
     10 N9          0.4930    0.5330   -0.2510 na        1 5NB     -0.253000
     11 C8          0.5960   -0.8530   -0.5720 cc        1 5NB      0.348800
     12 BR8        -0.7950   -1.8640   -1.2800 br        1 5NB      0.024700
     13 N7          1.8220   -1.3650   -0.3560 nd        1 5NB     -0.500100
     14 C5          2.5790   -0.3100    0.1620 ca        1 5NB     -0.239200
     15 C4          1.7600    0.8900    0.2570 ca        1 5NB      0.481800
     16 N3          2.2260    2.0840    0.7300 nb        1 5NB     -0.734000
     17 C2          3.5280    2.0280    1.0990 ca        1 5NB      0.696900
     18 N1          4.4060    0.9920    1.0670 nb        1 5NB     -0.795000
     19 C6          3.9480   -0.2150    0.5900 ca        1 5NB      0.771200
     20 N6          4.7730   -1.3020    0.5110 nh        1 5NB     -0.956500
     21 H1         -2.0030    2.8990   -2.6660 ho        1 5NB      0.424000
     22 H2         -1.1810    0.8100   -2.2620 h1        1 5NB      0.077700
     23 H3         -3.3420    0.1990   -1.4980 h1        1 5NB      0.100700
     24 H4         -3.5980    2.9590   -0.9460 ho        1 5NB      0.417000
     25 H5         -3.3870    1.8040    1.0600 h1        1 5NB      0.064700
     26 H6         -4.5850   -0.3650    0.7320 h1        1 5NB      0.062200
     27 H7         -3.0030   -1.2320    0.4410 h1        1 5NB      0.062200
     28 H8         -2.4200   -0.7750    2.6760 hn        1 5NB      0.354800
     29 H9         -3.7990    0.0420    2.9610 hn        1 5NB      0.354800
     30 H11        -0.2780    2.4380    0.1120 h2        1 5NB      0.135700
     31 H12         3.9490    2.9790    1.4940 h5        1 5NB      0.056100
     32 H13         5.7110   -1.2510    0.8220 hn        1 5NB      0.452300
     33 H14         4.4040   -2.1640    0.1930 hn        1 5NB      0.452300
@<TRIPOS>BOND
     1    1    2 1   
     2    1   21 1   
     3    2    3 1   
     4    2    9 1   
     5    2   22 1   
     6    3    4 1   
     7    3    5 1   
     8    3   23 1   
     9    4   24 1   
    10    5    6 1   
    11    5    8 1   
    12    5   25 1   
    13    6    7 1   
    14    6   26 1   
    15    6   27 1   
    16    7   28 1   
    17    7   29 1   
    18    8    9 1   
    19    9   10 1   
    20    9   30 1   
    21   10   11 1   
    22   10   15 1   
    23   11   12 1   
    24   11   13 2   
    25   13   14 1   
    26   14   15 ar  
    27   14   19 ar  
    28   15   16 ar  
    29   16   17 ar  
    30   17   18 ar  
    31   17   31 1   
    32   18   19 ar  
    33   19   20 1   
    34   20   32 1   
    35   20   33 1   
@<TRIPOS>SUBSTRUCTURE
     1 5NB         1 TEMP              0 ****  ****    0 ROOT
