@<TRIPOS>MOLECULE
5NB
   33    30     1     0     0
SMALL
bcc


@<TRIPOS>ATOM
      1 O2'        -2.9290   -1.6130    0.6820 oh        1 5NB     -0.312000
      2 C2'        -1.4180   -1.4590    0.5990 c3        1 5NB     -0.019000
      3 C3'        -0.9260   -1.4650    1.7290 c3        1 5NB     -0.030000
      4 O3'        -1.7920   -2.2360    2.6580 oh        1 5NB     -0.319000
      5 C4'        -0.8520    0.1160    2.2040 c3        1 5NB      0.020000
      6 C5'         0.2070    0.2880    3.2890 c3        1 5NB     -0.094000
      7 N5'        -0.2250    1.2890    4.2250 n3        1 5NB     -0.345000
      8 O4'        -0.5360    0.7750    1.1840 os        1 5NB     -0.269000
      9 C1'        -1.0470   -0.0540    0.0050 c3        1 5NB      0.121000
     10 N9         -0.1160   -0.1770   -0.9010 n3        1 5NB     -0.174000
     11 C8         -0.7220   -0.8580   -1.9030 c1        1 5NB     -0.096000
     12 BR8        -1.9500   -1.5490   -3.2010 br        1 5NB      0.164000
     13 N7         -0.1200   -0.5160   -3.0680 n2        1 5NB     -0.077000
     14 C5          0.8650    0.3830   -2.7860 c1        1 5NB     -0.245000
     15 C4          0.8680    0.5920   -1.4490 c1        1 5NB      0.083000
     16 N3          1.7620    1.4650   -0.8980 n1        1 5NB     -0.235000
     17 C2          2.6530    2.1270   -1.6960 c1        1 5NB      0.032000
     18 N1          2.6510    1.9160   -3.0490 n1        1 5NB     -0.269000
     19 C6          1.7720    1.0570   -3.5950 c1        1 5NB      0.251000
     20 N6          2.0720    1.0380   -4.9960 n2        1 5NB     -0.352000
     21 H1         -3.1680   -2.3970    0.3320 ho        1 5NB      0.219000
     22 H2         -1.0290   -2.1770    0.0510 h1        1 5NB      0.163000
     23 H3         -0.0220   -1.8540    1.7030 h1        1 5NB      0.118000
     24 H4         -1.3980   -3.0100    2.8580 ho        1 5NB      0.216000
     25 H5         -1.7280    0.4090    2.5370 h1        1 5NB      0.145000
     26 H6          0.3380   -0.5650    3.7580 h1        1 5NB      0.084500
     27 H7          1.0560    0.5690    2.8770 h1        1 5NB      0.084500
     28 H8          0.4820    1.8370    4.4360 hn        1 5NB      0.148500
     29 H9         -0.5340    0.8820    4.9860 hn        1 5NB      0.148500
     30 H11        -1.8450    0.3690   -0.3850 h2        1 5NB      0.153000
     31 H12         3.2950    2.7540   -1.2990 ha        1 5NB      0.189000
     32 H13         2.9260    1.2110   -5.2840 hn        1 5NB      0.248500
     33 H14         1.4120    0.8500   -5.6040 hn        1 5NB      0.248500
@<TRIPOS>BOND
     1    1    2 1   
     2    1   21 1   
     3    2    3 1   
     4    2    9 1   
     5    2   22 1   
     6    3    4 1   
     7    3    5 1   
     8    3   23 1   
     9    4   24 1   
    10    5    6 1   
    11    5    8 1   
    12    5   25 1   
    13    6    7 1   
    14    6   26 1   
    15    6   27 1   
    16    7   28 1   
    17    7   29 1   
    18    8    9 1   
    19    9   10 1   
    20    9   30 1   
    21   10   11 1   
    22   10   15 1   
    23   11   13 1   
    24   13   14 1   
    25   14   19 1   
    26   15   16 1   
    27   17   18 1   
    28   17   31 1   
    29   20   32 1   
    30   20   33 1   
@<TRIPOS>SUBSTRUCTURE
     1 5NB         1 TEMP              0 ****  ****    0 ROOT
