@<TRIPOS>MOLECULE
5NB
   34    36     1     0     0
SMALL
bcc


@<TRIPOS>ATOM
      1 O2'        -0.2350   -0.4820    0.7740 oh        1 5NB     -0.555800
      2 C2'         1.1180   -0.3450    0.4240 c3        1 5NB      0.086100
      3 C3'         1.9930   -0.1260    1.6820 c3        1 5NB      0.093100
      4 O3'         1.2210   -0.1710    2.8630 oh        1 5NB     -0.589800
      5 C4'         2.5240    1.3160    1.5680 c3        1 5NB      0.108100
      6 C5'         4.0600    1.3610    1.6130 c3        1 5NB      0.076800
      7 N5'         4.5740    2.7040    1.2220 nz        1 5NB     -0.830600
      8 O4'         2.0790    1.8770    0.3390 os        1 5NB     -0.458600
      9 C1'         1.3360    0.9170   -0.4630 c3        1 5NB      0.224800
     10 N9          1.9780    0.7250   -1.7300 na        1 5NB     -0.278000
     11 C8          3.1410   -0.0150   -2.1190 cc        1 5NB      0.304800
     12 Br8         4.0190   -1.2400   -1.0300 br        1 5NB      0.017700
     13 N7          3.5120    0.2050   -3.3920 nd        1 5NB     -0.461100
     14 C5          2.6070    1.1440   -3.8920 ca        1 5NB     -0.255200
     15 C4          1.6430    1.5030   -2.8640 ca        1 5NB      0.487800
     16 N3          0.6410    2.4070   -3.0440 nb        1 5NB     -0.751000
     17 C2          0.6250    2.9230   -4.3040 ca        1 5NB      0.718900
     18 N1          1.4380    2.6760   -5.3570 nb        1 5NB     -0.777000
     19 C6          2.4630    1.7670   -5.1830 ca        1 5NB      0.783200
     20 N6          3.3290    1.4820   -6.1930 nv        1 5NB     -0.932500
     21 H1         -0.5090    0.3060    1.2680 ho        1 5NB      0.424000
     22 H2          1.3640   -1.3060   -0.1060 h1        1 5NB      0.134700
     23 H3          2.8220   -0.8800    1.7380 h1        1 5NB      0.073700
     24 H4          0.7150   -0.9990    2.8500 ho        1 5NB      0.448000
     25 H5          2.0890    1.9580    2.3890 h1        1 5NB      0.114700
     26 H6          4.4940    0.6060    0.8920 hx        1 5NB      0.121200
     27 H7          4.4090    1.1240    2.6580 hx        1 5NB      0.121200
     28 H8          4.3100    3.4030    1.9230 hn        1 5NB      0.467800
     29 H9          5.5930    2.6830    1.1260 hn        1 5NB      0.467800
     30 H11         0.3380    1.4300   -0.6560 h2        1 5NB      0.152700
     31 H12        -0.1860    3.6620   -4.5000 h5        1 5NB      0.072100
     32 H13         3.1990    1.8710   -7.0970 hn        1 5NB      0.461300
     33 H14         4.0050    0.7680   -6.0640 hn        1 5NB      0.461300
     34 H5'3        4.1470    2.9720    0.3210 hn        1 5NB      0.467800
@<TRIPOS>BOND
     1    1    2 1   
     2    1   21 1   
     3    2    3 1   
     4    2    9 1   
     5    2   22 1   
     6    3    4 1   
     7    3    5 1   
     8    3   23 1   
     9    4   24 1   
    10    5    6 1   
    11    5    8 1   
    12    5   25 1   
    13    6    7 1   
    14    6   26 1   
    15    6   27 1   
    16    7   28 1   
    17    7   29 1   
    18    7   34 1   
    19    8    9 1   
    20    9   10 1   
    21    9   30 1   
    22   10   11 1   
    23   10   15 1   
    24   11   12 1   
    25   11   13 2   
    26   13   14 1   
    27   14   15 ar  
    28   14   19 ar  
    29   15   16 ar  
    30   16   17 ar  
    31   17   18 ar  
    32   17   31 1   
    33   18   19 ar  
    34   19   20 1   
    35   20   32 1   
    36   20   33 1   
@<TRIPOS>SUBSTRUCTURE
     1 5NB         1 TEMP              0 ****  ****    0 ROOT
