@<TRIPOS>MOLECULE
5NB
   35    37     1     0     0
SMALL
bcc


@<TRIPOS>ATOM
      1 O2'        -0.0380   -0.1940    0.4380 oh        1 5NB     -0.583800
      2 C2'         1.3450   -0.2710    0.1710 c3        1 5NB      0.082100
      3 C3'         2.1320   -0.2190    1.5020 c3        1 5NB      0.112100
      4 O3'         1.3610   -0.5230    2.6260 oh        1 5NB     -0.556800
      5 C4'         2.6720    1.2290    1.5670 c3        1 5NB      0.072100
      6 C5'         4.1070    1.2750    2.0940 c3        1 5NB      0.099800
      7 N5'         4.5960    2.6720    2.2690 n4        1 5NB     -0.834600
      8 O4'         2.6600    1.7740    0.2440 os        1 5NB     -0.446600
      9 C1'         1.6970    1.0620   -0.5720 c3        1 5NB      0.246800
     10 N9          2.2050    0.9100   -1.9160 na        1 5NB     -0.253000
     11 C8          3.3160    0.1800   -2.4230 cc        1 5NB      0.417800
     12 BR8         4.4570   -0.8420   -1.3690 br        1 5NB      0.093700
     13 N7          3.4660    0.2810   -3.7620 nd        1 5NB     -0.523100
     14 C5          2.4290    1.1130   -4.1870 ca        1 5NB     -0.148200
     15 C4          1.6210    1.5420   -3.0340 ca        1 5NB      0.470800
     16 N3          0.5470    2.3660   -3.1470 nb        1 5NB     -0.620000
     17 C2          0.2790    2.7540   -4.4180 ca        1 5NB      0.695900
     18 N1          0.9430    2.4180   -5.5690 nb        1 5NB     -0.659000
     19 C6          2.0100    1.5990   -5.4450 ca        1 5NB      0.551200
     20 N6          2.7540    1.1890   -6.6510 n4        1 5NB     -0.820300
     21 H1         -0.3890   -1.0960    0.4650 ho        1 5NB      0.454000
     22 H2          1.6040   -1.1880   -0.4170 h1        1 5NB      0.096700
     23 H3          2.9690   -0.9720    1.5080 h1        1 5NB      0.108700
     24 H4          0.4870   -0.1060    2.5360 ho        1 5NB      0.442000
     25 H5          1.9870    1.8610    2.2030 h1        1 5NB      0.097700
     26 H6          4.1410    0.7490    3.0940 hx        1 5NB      0.128700
     27 H7          4.8030    0.7560    1.3730 hx        1 5NB      0.128700
     28 H8          4.5110    3.1810    1.3810 hn        1 5NB      0.470800
     29 H9          4.0360    3.1590    2.9790 hn        1 5NB      0.470800
     30 H11         0.7710    1.7220   -0.6190 h2        1 5NB      0.156700
     31 H12        -0.5990    3.4340   -4.5570 h5        1 5NB      0.117100
     32 H13         2.6340    0.1760   -6.7850 hn        1 5NB      0.487133
     33 H14         3.7530    1.3950   -6.5110 hn        1 5NB      0.487133
     34 H5'3        5.5790    2.6670    2.5660 hn        1 5NB      0.470800
     35 H63         2.4120    1.6870   -7.4870 hn        1 5NB      0.487133
@<TRIPOS>BOND
     1    1    2 1   
     2    1   21 1   
     3    2    3 1   
     4    2    9 1   
     5    2   22 1   
     6    3    4 1   
     7    3    5 1   
     8    3   23 1   
     9    4   24 1   
    10    5    6 1   
    11    5    8 1   
    12    5   25 1   
    13    6    7 1   
    14    6   26 1   
    15    6   27 1   
    16    7   28 1   
    17    7   29 1   
    18    7   34 1   
    19    8    9 1   
    20    9   10 1   
    21    9   30 1   
    22   10   11 1   
    23   10   15 1   
    24   11   12 1   
    25   11   13 2   
    26   13   14 1   
    27   14   15 ar  
    28   14   19 ar  
    29   15   16 ar  
    30   16   17 ar  
    31   17   18 ar  
    32   17   31 1   
    33   18   19 ar  
    34   19   20 1   
    35   20   32 1   
    36   20   33 1   
    37   20   35 1   
@<TRIPOS>SUBSTRUCTURE
     1 5NB         1 TEMP              0 ****  ****    0 ROOT
