@<TRIPOS>MOLECULE
5NC
   31    32     1     0     0
SMALL
bcc


@<TRIPOS>ATOM
      1 P           0.1210    1.1540   -3.6030 p5        1 5NC      1.330900
      2 OP1         1.2030    1.9900   -2.9830 o         1 5NC     -0.929500
      3 OP2         0.2260    0.8120   -5.0560 o         1 5NC     -0.929500
      4 OP3        -1.2650    1.4410   -3.0580 o         1 5NC     -0.929500
      5 O5'         0.3750   -0.3780   -2.7970 os        1 5NC     -0.552200
      6 C5'         0.3930   -0.2790   -1.4360 c3        1 5NC      0.228400
      7 C4'        -0.9370   -0.7920   -0.8310 c3        1 5NC      0.048100
      8 O4'        -0.6720   -1.4610    0.4310 os        1 5NC     -0.442600
      9 C3'        -1.9760    0.3160   -0.5670 c3        1 5NC      0.155100
     10 O3'        -3.0880    0.1900   -1.4220 oh        1 5NC     -0.669800
     11 C2'        -2.4420    0.0950    0.8800 c3        1 5NC     -0.130400
     12 C1'        -1.4120   -0.8740    1.4910 c3        1 5NC      0.295500
     13 N1         -0.4830   -0.2320    2.4420 n         1 5NC     -0.410300
     14 C2         -0.5850   -0.4870    3.8550 c         1 5NC      0.822900
     15 O2         -1.5220   -1.1990    4.2820 o         1 5NC     -0.650500
     16 N3          0.3670    0.0710    4.7300 nc        1 5NC     -0.768100
     17 C4          1.3320    0.8500    4.1780 cd        1 5NC      0.846200
     18 N4          2.2320    1.5020    5.0340 nh        1 5NC     -0.890800
     19 N5          1.4840    1.1010    2.7900 nd        1 5NC     -0.798000
     20 C6          0.5720    0.5360    2.0040 cc        1 5NC      0.554800
     21 H5'         0.5740    0.7880   -1.1140 h1        1 5NC     -0.005300
     22 H5''        1.2150   -0.9310   -1.0140 h1        1 5NC     -0.005300
     23 H4'        -1.3690   -1.5830   -1.5010 h1        1 5NC      0.079700
     24 H3'        -1.5140    1.3340   -0.7010 h1        1 5NC      0.099700
     25 HO'3       -2.7920    0.5590   -2.2870 ho        1 5NC      0.501000
     26 H2'        -3.4480   -0.3920    0.8920 hc        1 5NC      0.054200
     27 H2''       -2.5150    1.0600    1.4310 hc        1 5NC      0.054200
     28 H1'1       -1.9010   -1.7210    2.0570 h2        1 5NC      0.087700
     29 HN41        3.0690    1.8310    4.6120 hn        1 5NC      0.414300
     30 HN42        2.3280    1.1160    5.9440 hn        1 5NC      0.414300
     31 H6          0.6700    0.6890    0.8930 h5        1 5NC      0.123800
@<TRIPOS>BOND
     1    1    2 1   
     2    1    3 1   
     3    1    4 1   
     4    1    5 1   
     5    5    6 1   
     6    6    7 1   
     7    6   21 1   
     8    6   22 1   
     9    7    8 1   
    10    7    9 1   
    11    7   23 1   
    12    8   12 1   
    13    9   10 1   
    14    9   11 1   
    15    9   24 1   
    16   10   25 1   
    17   11   12 1   
    18   11   26 1   
    19   11   27 1   
    20   12   13 1   
    21   12   28 1   
    22   13   14 1   
    23   13   20 1   
    24   14   15 2   
    25   14   16 1   
    26   16   17 2   
    27   17   18 1   
    28   17   19 1   
    29   18   29 1   
    30   18   30 1   
    31   19   20 2   
    32   20   31 1   
@<TRIPOS>SUBSTRUCTURE
     1 5NC         1 TEMP              0 ****  ****    0 ROOT
