@<TRIPOS>MOLECULE
5NC
   31    30     1     0     0
SMALL
bcc


@<TRIPOS>ATOM
      1 P          -0.0790    4.1130   -0.9500 p3        1 5NC      2.523000
      2 OP1         1.1210    4.2400   -0.0700 o         1 5NC     -1.237000
      3 OP2        -1.2950    4.6770   -0.2330 os        1 5NC     -1.273000
      4 OP3         0.1520    4.8820   -2.2340 o         1 5NC     -1.237000
      5 O5'        -0.3310    2.5620   -1.2940 os        1 5NC     -0.714000
      6 C5'        -0.6120    1.6690   -0.2260 c3        1 5NC      0.078000
      7 C4'        -1.5700    0.7270   -0.6400 c3        1 5NC     -0.063000
      8 O4'        -0.9750   -0.2270   -1.5830 os        1 5NC     -0.299000
      9 C3'        -2.0620   -0.1520    0.6120 c3        1 5NC      0.044000
     10 O3'        -3.4970    0.2040    0.9810 oh        1 5NC     -0.397000
     11 C2'        -1.9990   -1.2940    0.2320 c3        1 5NC     -0.209000
     12 C1'        -0.8530   -1.3270   -0.9100 c3        1 5NC      0.147000
     13 N1          0.4410   -1.3880   -0.3100 n         1 5NC     -0.299000
     14 C2          1.5880   -0.9510   -1.0540 c2        1 5NC      0.341000
     15 O2          1.4450   -0.4280   -2.1240 o         1 5NC     -0.375000
     16 N3          2.8820   -1.1140   -0.5170 n2        1 5NC     -0.341000
     17 C4          3.0610   -1.8080    0.7180 c1        1 5NC      0.187000
     18 N4          4.3830   -2.1530    1.1590 n2        1 5NC     -0.329000
     19 N5          1.9270   -2.2490    1.4570 n2        1 5NC     -0.291000
     20 C6          0.6130   -2.0520    0.9290 c2        1 5NC      0.131000
     21 H5'        -0.9630    2.1790    0.5460 h1        1 5NC      0.034000
     22 H5''        0.2330    1.1920    0.0440 h1        1 5NC      0.034000
     23 H4'        -2.3290    1.1800   -1.0540 h1        1 5NC      0.119000
     24 H3'        -1.4830   -0.0180    1.3590 h1        1 5NC      0.139000
     25 HO'3       -3.6430   -0.0050    1.8220 ho        1 5NC      0.300000
     26 H2'        -1.7540   -1.8860    0.9760 hc        1 5NC      0.093500
     27 H2''       -2.8480   -1.5660   -0.1440 hc        1 5NC      0.093500
     28 H1'1       -0.9890   -2.1100   -1.5080 h2        1 5NC      0.127000
     29 HN41        4.4980   -2.6080    1.9300 hn        1 5NC      0.209500
     30 HN42        5.1150   -1.9290    0.6390 hn        1 5NC      0.209500
     31 H6         -0.1780   -2.3590    1.4420 h5        1 5NC      0.253000
@<TRIPOS>BOND
     1    1    2 1   
     2    1    4 1   
     3    1    5 1   
     4    5    6 1   
     5    6    7 1   
     6    6   21 1   
     7    6   22 1   
     8    7    8 1   
     9    7    9 1   
    10    7   23 1   
    11    8   12 1   
    12    9   10 1   
    13    9   11 1   
    14    9   24 1   
    15   10   25 1   
    16   11   12 1   
    17   11   26 1   
    18   11   27 1   
    19   12   13 1   
    20   12   28 1   
    21   13   14 1   
    22   13   20 1   
    23   14   15 1   
    24   14   16 1   
    25   16   17 1   
    26   17   19 1   
    27   18   29 1   
    28   18   30 1   
    29   19   20 1   
    30   20   31 1   
@<TRIPOS>SUBSTRUCTURE
     1 5NC         1 TEMP              0 ****  ****    0 ROOT
