@<TRIPOS>MOLECULE
5ND
   30    32     1     0     0
SMALL
bcc


@<TRIPOS>ATOM
      1 N10         0.0770    0.2880    0.0300 n         1 5ND     -0.509900
      2 CA          1.5180    0.0090    0.0250 c3        1 5ND     -0.008300
      3 CB          1.9490   -1.2750   -0.6820 c3        1 5ND     -0.052100
      4 CG          1.5730   -1.2520   -2.1210 ca        1 5ND     -0.093300
      5 CD1         2.4180   -0.5810   -3.0470 ca        1 5ND     -0.123000
      6 CE1         2.1000   -0.5460   -4.3810 ca        1 5ND     -0.108000
      7 CZ          0.9210   -1.1790   -4.8630 ca        1 5ND     -0.034000
      8 CE2         0.0760   -1.8510   -3.9430 ca        1 5ND     -0.035000
      9 CD2         0.4270   -1.8730   -2.5660 ca        1 5ND     -0.118000
     10 C           1.8980   -0.0660    1.5330 c         1 5ND      0.691500
     11 N11         0.7010    0.0250    2.2570 n         1 5ND     -0.613500
     12 C2         -0.4040    0.1810    1.3700 c         1 5ND      0.776500
     13 O2         -1.5870    0.2590    1.7330 o         1 5ND     -0.601500
     14 O3          3.0260   -0.1810    2.0110 o         1 5ND     -0.575500
     15 C1         -1.1030   -2.4870   -4.4210 ca        1 5ND     -0.118000
     16 C3         -1.4200   -2.4500   -5.7560 ca        1 5ND     -0.122000
     17 C5         -0.5770   -1.7790   -6.6750 ca        1 5ND     -0.123000
     18 C6          0.5680   -1.1570   -6.2400 ca        1 5ND     -0.117000
     19 H10        -0.4720   -0.1410   -0.6820 hn        1 5ND      0.323500
     20 HA          2.0400    0.8930   -0.4410 h1        1 5ND      0.109700
     21 HB1C        1.4890   -2.1660   -0.1770 hc        1 5ND      0.073200
     22 HB2C        3.0640   -1.3650   -0.5720 hc        1 5ND      0.073200
     23 HD1         3.3310   -0.0930   -2.6750 ha        1 5ND      0.136000
     24 HD2        -0.2330   -2.4070   -1.8650 ha        1 5ND      0.132000
     25 HE1         2.7520   -0.0290   -5.1010 ha        1 5ND      0.137000
     26 H6          1.2300   -0.6330   -6.9460 ha        1 5ND      0.135000
     27 H1         -1.7520   -3.0060   -3.7000 ha        1 5ND      0.135000
     28 H11         0.6170    0.0690    3.2400 hn        1 5ND      0.359500
     29 H3         -2.3320   -2.9410   -6.1300 ha        1 5ND      0.136000
     30 H5         -0.8530   -1.7640   -7.7400 ha        1 5ND      0.135000
@<TRIPOS>BOND
     1    1    2 1   
     2    1   12 1   
     3    1   19 1   
     4    2    3 1   
     5    2   10 1   
     6    2   20 1   
     7    3    4 1   
     8    3   21 1   
     9    3   22 1   
    10    4    5 ar  
    11    4    9 ar  
    12    5    6 ar  
    13    5   23 1   
    14    6    7 ar  
    15    6   25 1   
    16    7    8 ar  
    17    7   18 ar  
    18    8    9 ar  
    19    8   15 ar  
    20    9   24 1   
    21   10   11 1   
    22   10   14 2   
    23   11   12 1   
    24   11   28 1   
    25   12   13 2   
    26   15   16 ar  
    27   15   27 1   
    28   16   17 ar  
    29   16   29 1   
    30   17   18 ar  
    31   17   30 1   
    32   18   26 1   
@<TRIPOS>SUBSTRUCTURE
     1 5ND         1 TEMP              0 ****  ****    0 ROOT
