@<TRIPOS>MOLECULE
5ND
   30    32     1     0     0
SMALL
bcc


@<TRIPOS>ATOM
      1 N10         0.0870    0.2860    0.0290 n         1 5ND     -0.509900
      2 CA          1.5270   -0.0000    0.0250 c3        1 5ND     -0.008300
      3 CB          1.9510   -1.2870   -0.6840 c3        1 5ND     -0.052100
      4 CG          1.5760   -1.2600   -2.1230 ca        1 5ND     -0.093300
      5 CD1         2.4240   -0.5920   -3.0480 ca        1 5ND     -0.123000
      6 CE1         2.1060   -0.5540   -4.3820 ca        1 5ND     -0.108000
      7 CZ          0.9250   -1.1810   -4.8650 ca        1 5ND     -0.034000
      8 CE2         0.0760   -1.8510   -3.9460 ca        1 5ND     -0.035000
      9 CD2         0.4270   -1.8760   -2.5690 ca        1 5ND     -0.118000
     10 C           1.9050   -0.0790    1.5320 c         1 5ND      0.691500
     11 N11         0.7090    0.0180    2.2560 n         1 5ND     -0.613500
     12 C2         -0.3940    0.1810    1.3680 c         1 5ND      0.776500
     13 O2         -1.5770    0.2650    1.7310 o         1 5ND     -0.601500
     14 O3          3.0340   -0.2010    2.0110 o         1 5ND     -0.575500
     15 C1         -1.1050   -2.4810   -4.4250 ca        1 5ND     -0.118000
     16 C3         -1.4210   -2.4410   -5.7610 ca        1 5ND     -0.122000
     17 C5         -0.5750   -1.7720   -6.6780 ca        1 5ND     -0.123000
     18 C6          0.5730   -1.1560   -6.2420 ca        1 5ND     -0.117000
     19 H10        -0.4630   -0.1400   -0.6840 hn        1 5ND      0.323500
     20 HA          2.0540    0.8810   -0.4410 h1        1 5ND      0.109700
     21 HB1C        1.4860   -2.1760   -0.1790 hc        1 5ND      0.073200
     22 HB2C        3.0660   -1.3830   -0.5730 hc        1 5ND      0.073200
     23 HD1         3.3390   -0.1090   -2.6750 ha        1 5ND      0.136000
     24 HD2        -0.2350   -2.4080   -1.8690 ha        1 5ND      0.132000
     25 HE1         2.7610   -0.0390   -5.1020 ha        1 5ND      0.137000
     26 H6          1.2370   -0.6340   -6.9470 ha        1 5ND      0.135000
     27 H1         -1.7570   -2.9980   -3.7060 ha        1 5ND      0.135000
     28 H11         0.6250    0.0620    3.2390 hn        1 5ND      0.359500
     29 H3         -2.3350   -2.9270   -6.1350 ha        1 5ND      0.136000
     30 H5         -0.8500   -1.7550   -7.7430 ha        1 5ND      0.135000
@<TRIPOS>BOND
     1    1    2 1   
     2    1   12 1   
     3    1   19 1   
     4    2    3 1   
     5    2   10 1   
     6    2   20 1   
     7    3    4 1   
     8    3   21 1   
     9    3   22 1   
    10    4    5 ar  
    11    4    9 ar  
    12    5    6 ar  
    13    5   23 1   
    14    6    7 ar  
    15    6   25 1   
    16    7    8 ar  
    17    7   18 ar  
    18    8    9 ar  
    19    8   15 ar  
    20    9   24 1   
    21   10   11 1   
    22   10   14 2   
    23   11   12 1   
    24   11   28 1   
    25   12   13 2   
    26   15   16 ar  
    27   15   27 1   
    28   16   17 ar  
    29   16   29 1   
    30   17   18 ar  
    31   17   30 1   
    32   18   26 1   
@<TRIPOS>SUBSTRUCTURE
     1 5ND         1 TEMP              0 ****  ****    0 ROOT
