@<TRIPOS>MOLECULE
5ND
   30    32     1     0     0
SMALL
bcc


@<TRIPOS>ATOM
      1 N10         0.0730    0.2850    0.0310 ns        1 5ND     -0.509900
      2 CA          1.5150    0.0100    0.0260 c3        1 5ND     -0.008300
      3 CB          1.9500   -1.2730   -0.6820 c3        1 5ND     -0.052100
      4 CG          1.5740   -1.2500   -2.1210 ca        1 5ND     -0.093300
      5 CD1         2.4170   -0.5770   -3.0470 ca        1 5ND     -0.123000
      6 CE1         2.0990   -0.5420   -4.3810 ca        1 5ND     -0.108000
      7 CZ          0.9210   -1.1770   -4.8630 ca        1 5ND     -0.034000
      8 CE2         0.0780   -1.8510   -3.9430 ca        1 5ND     -0.035000
      9 CD2         0.4290   -1.8730   -2.5670 ca        1 5ND     -0.118000
     10 C           1.8950   -0.0650    1.5330 c         1 5ND      0.691500
     11 N11         0.6980    0.0220    2.2580 ns        1 5ND     -0.613500
     12 C2         -0.4070    0.1760    1.3700 c         1 5ND      0.776500
     13 O2         -1.5900    0.2510    1.7330 o         1 5ND     -0.601500
     14 O3          3.0240   -0.1780    2.0120 o         1 5ND     -0.575500
     15 C1         -1.0990   -2.4900   -4.4220 ca        1 5ND     -0.118000
     16 C3         -1.4160   -2.4530   -5.7570 ca        1 5ND     -0.122000
     17 C5         -0.5740   -1.7790   -6.6750 ca        1 5ND     -0.123000
     18 C6          0.5690   -1.1550   -6.2400 ca        1 5ND     -0.117000
     19 H10        -0.4740   -0.1450   -0.6820 hn        1 5ND      0.323500
     20 HA          2.0350    0.8950   -0.4390 h1        1 5ND      0.109700
     21 HB1C        3.0650   -1.3600   -0.5720 hc        1 5ND      0.073200
     22 HB2C        1.4920   -2.1660   -0.1770 hc        1 5ND      0.073200
     23 HD1         3.3290   -0.0860   -2.6740 ha        1 5ND      0.136000
     24 HD2        -0.2290   -2.4100   -1.8660 ha        1 5ND      0.132000
     25 HE1         2.7500   -0.0220   -5.1010 ha        1 5ND      0.137000
     26 H6          1.2290   -0.6290   -6.9450 ha        1 5ND      0.135000
     27 H1         -1.7470   -3.0110   -3.7020 ha        1 5ND      0.135000
     28 H11         0.6130    0.0650    3.2410 hn        1 5ND      0.359500
     29 H3         -2.3260   -2.9460   -6.1310 ha        1 5ND      0.136000
     30 H5         -0.8510   -1.7640   -7.7400 ha        1 5ND      0.135000
@<TRIPOS>BOND
     1    1    2 1   
     2    1   12 1   
     3    1   19 1   
     4    2    3 1   
     5    2   10 1   
     6    2   20 1   
     7    3    4 1   
     8    3   21 1   
     9    3   22 1   
    10    4    5 ar  
    11    4    9 ar  
    12    5    6 ar  
    13    5   23 1   
    14    6    7 ar  
    15    6   25 1   
    16    7    8 ar  
    17    7   18 ar  
    18    8    9 ar  
    19    8   15 ar  
    20    9   24 1   
    21   10   11 1   
    22   10   14 2   
    23   11   12 1   
    24   11   28 1   
    25   12   13 2   
    26   15   16 ar  
    27   15   27 1   
    28   16   17 ar  
    29   16   29 1   
    30   17   18 ar  
    31   17   30 1   
    32   18   26 1   
@<TRIPOS>SUBSTRUCTURE
     1 5ND         1 TEMP              0 ****  ****    0 ROOT
