@<TRIPOS>MOLECULE
5NI
   17    18     1     0     0
SMALL
bcc


@<TRIPOS>ATOM
      1 C6         -0.0060   -0.0010   -0.0240 ca        1 5NI     -0.045000
      2 C7          1.3760   -0.0010   -0.0350 ca        1 5NI     -0.151000
      3 C8          2.0400   -0.0000    1.2030 ca        1 5NI     -0.014200
      4 C9          1.3000    0.0010    2.4500 ca        1 5NI     -0.237900
      5 C4         -0.0880    0.0010    2.4440 ca        1 5NI      0.017000
      6 C5         -0.7280    0.0000    1.1990 ca        1 5NI     -0.216200
      7 N1          3.3900   -0.0000    1.5600 na        1 5NI     -0.018100
      8 N2          3.5540    0.0010    2.8920 nc        1 5NI     -0.499100
      9 C3          2.3400    0.0010    3.4730 cd        1 5NI      0.366800
     10 N10        -2.2110    0.0000    1.1500 no        1 5NI      0.318200
     11 O11        -2.7600   -0.0000    0.0810 o         1 5NI     -0.212500
     12 O12        -2.8270    0.0010    2.1830 o         1 5NI     -0.212500
     13 H61        -0.5640   -0.0020   -0.9770 ha        1 5NI      0.173000
     14 H71         1.9330   -0.0020   -0.9820 ha        1 5NI      0.154000
     15 H41        -0.6640    0.0020    3.3850 ha        1 5NI      0.177000
     16 HN11        4.1750   -0.0010    0.9530 hn        1 5NI      0.333700
     17 H31         2.2040    0.0020    4.5560 h4        1 5NI      0.065800
@<TRIPOS>BOND
     1    1    2 ar  
     2    1    6 ar  
     3    1   13 1   
     4    2    3 ar  
     5    2   14 1   
     6    3    4 ar  
     7    3    7 1   
     8    4    5 ar  
     9    4    9 1   
    10    5    6 ar  
    11    5   15 1   
    12    6   10 1   
    13    7    8 1   
    14    7   16 1   
    15    8    9 2   
    16    9   17 1   
    17   10   11 1   
    18   10   12 1   
@<TRIPOS>SUBSTRUCTURE
     1 5NI         1 TEMP              0 ****  ****    0 ROOT
