@<TRIPOS>MOLECULE
5NI
   17    11     1     0     0
SMALL
bcc


@<TRIPOS>ATOM
      1 C6         -0.7860   -0.1800   -1.4720 c1        1 5NI     -0.045000
      2 C7          0.5970   -0.2400   -1.4820 c1        1 5NI     -0.067000
      3 C8          1.3180   -0.0820   -0.2820 c1        1 5NI     -0.061500
      4 C9          0.6540    0.1300    0.8870 c1        1 5NI     -0.061500
      5 C4         -0.7530    0.1910    0.8970 c1        1 5NI     -0.067000
      6 C5         -1.4610    0.0360   -0.2830 c1        1 5NI     -0.171000
      7 N1          2.6590   -0.0970   -0.0100 n1        1 5NI     -0.193000
      8 N2          2.8210    0.1070    1.3420 n2        1 5NI     -0.032000
      9 C3          1.5940    0.2470    1.8960 c1        1 5NI     -0.134000
     10 N10        -2.8800    0.0450   -0.2600 no        1 5NI      0.573000
     11 O11        -3.5810   -0.8820   -0.9760 o         1 5NI     -0.362500
     12 O12        -3.4740    0.8810    0.4060 o         1 5NI     -0.362500
     13 H61        -1.2860   -0.2900   -2.3030 ha        1 5NI      0.173000
     14 H71         1.0730   -0.3920   -2.3200 ha        1 5NI      0.165500
     15 H41        -1.2290    0.3440    1.7360 ha        1 5NI      0.165500
     16 HN11        3.3270   -0.2220   -0.6170 DU        1 5NI      0.239500
     17 H31         1.4060    0.4040    2.8410 DU        1 5NI      0.239500
@<TRIPOS>BOND
     1    1    6 1   
     2    1   13 1   
     3    2    3 1   
     4    2   14 1   
     5    4    5 1   
     6    5   15 1   
     7    6   10 1   
     8    7    8 1   
     9    8    9 1   
    10   10   11 1   
    11   10   12 1   
@<TRIPOS>SUBSTRUCTURE
     1 5NI         1 TEMP              0 ****  ****    0 ROOT
