@<TRIPOS>MOLECULE
5NI
   17    18     1     0     0
SMALL
bcc


@<TRIPOS>ATOM
      1 C6          0.7200   -1.4350   -0.0000 ca        1 5NI     -0.045000
      2 C7         -0.6230   -1.7640   -0.0010 ca        1 5NI     -0.151000
      3 C8         -1.5530   -0.7110   -0.0000 ca        1 5NI     -0.014200
      4 C9         -1.1190    0.6730    0.0010 ca        1 5NI     -0.237900
      5 C4          0.2330    0.9850    0.0020 ca        1 5NI      0.017000
      6 C5          1.1420   -0.0800    0.0010 ca        1 5NI     -0.216200
      7 N1         -2.9490   -0.6730   -0.0010 na        1 5NI     -0.018100
      8 N2         -3.4150    0.5860    0.0010 nc        1 5NI     -0.499100
      9 C3         -2.3660    1.4300    0.0020 cd        1 5NI      0.366800
     10 N10         2.5970    0.2130    0.0020 no        1 5NI      0.318200
     11 O11         3.3770   -0.7020    0.0010 o         1 5NI     -0.212500
     12 O12         2.9600    1.3590    0.0030 o         1 5NI     -0.212500
     13 H61         1.4820   -2.2360   -0.0010 ha        1 5NI      0.173000
     14 H71        -0.9490   -2.8130   -0.0020 ha        1 5NI      0.154000
     15 H41         0.5790    2.0330    0.0030 ha        1 5NI      0.177000
     16 HN11       -3.5740   -1.4440   -0.0010 hn        1 5NI      0.333700
     17 H31        -2.4810    2.5150    0.0030 h4        1 5NI      0.065800
@<TRIPOS>BOND
     1    1    2 ar  
     2    1    6 ar  
     3    1   13 1   
     4    2    3 ar  
     5    2   14 1   
     6    3    4 ar  
     7    3    7 1   
     8    4    5 ar  
     9    4    9 1   
    10    5    6 ar  
    11    5   15 1   
    12    6   10 1   
    13    7    8 1   
    14    7   16 1   
    15    8    9 2   
    16    9   17 1   
    17   10   11 1   
    18   10   12 1   
@<TRIPOS>SUBSTRUCTURE
     1 5NI         1 TEMP              0 ****  ****    0 ROOT
