@<TRIPOS>MOLECULE
5NL
   30    32     1     0     0
SMALL
bcc


@<TRIPOS>ATOM
      1 C          -0.0870   -0.1070    0.0390 c         1 5NL      0.691500
      2 CA          1.4610    0.0170   -0.0590 c3        1 5NL     -0.007300
      3 CG          3.5230   -1.1730   -0.7990 ca        1 5NL     -0.096300
      4 CD1         4.3110   -1.7430    0.2380 ca        1 5NL     -0.137000
      5 CE1         5.6810   -1.6990    0.1790 ca        1 5NL     -0.106000
      6 CZ          6.3390   -1.0820   -0.9190 ca        1 5NL     -0.035000
      7 CE2         5.5580   -0.5150   -1.9590 ca        1 5NL     -0.035000
      8 CD2         4.1410   -0.5750   -1.8750 ca        1 5NL     -0.102000
      9 N10         1.8880    0.2860    1.3190 ns        1 5NL     -0.510900
     10 C2          0.7630    0.1320    2.1840 c         1 5NL      0.776500
     11 N11        -0.4140   -0.0480    1.4010 ns        1 5NL     -0.613500
     12 C1          6.2140    0.1000   -3.0620 ca        1 5NL     -0.117000
     13 C3          7.5850    0.1450   -3.1190 ca        1 5NL     -0.123000
     14 C5          8.3640   -0.4200   -2.0800 ca        1 5NL     -0.122000
     15 C6          7.7570   -1.0200   -1.0040 ca        1 5NL     -0.117000
     16 C4          2.0400   -1.2400   -0.7090 c3        1 5NL     -0.051100
     17 O3         -0.8840   -0.2320   -0.8920 o         1 5NL     -0.576500
     18 O2          0.7770    0.1900    3.4230 o         1 5NL     -0.601500
     19 HA          1.7170    0.9200   -0.6830 h1        1 5NL      0.108700
     20 H11        -1.3250   -0.0380    1.7820 hn        1 5NL      0.359500
     21 H10         2.7480   -0.1170    1.6180 hn        1 5NL      0.323500
     22 H41C        1.7310   -2.1510   -0.1310 hc        1 5NL      0.072700
     23 H42C        1.5890   -1.3250   -1.7350 hc        1 5NL      0.072700
     24 HD1         3.8050   -2.2340    1.0840 ha        1 5NL      0.131000
     25 HD2         3.5460   -0.1340   -2.6900 ha        1 5NL      0.137000
     26 HE1         6.2930   -2.1410    0.9800 ha        1 5NL      0.137000
     27 H6          8.3540   -1.4620   -0.1920 ha        1 5NL      0.135000
     28 H1          5.6000    0.5360   -3.8640 ha        1 5NL      0.135000
     29 HB          8.0950    0.6200   -3.9700 ha        1 5NL      0.135000
     30 HC          9.4610   -0.3710   -2.1490 ha        1 5NL      0.135000
@<TRIPOS>BOND
     1    1    2 1   
     2    1   11 1   
     3    1   17 2   
     4    2    9 1   
     5    2   16 1   
     6    2   19 1   
     7    3    4 ar  
     8    3    8 ar  
     9    3   16 1   
    10    4    5 ar  
    11    4   24 1   
    12    5    6 ar  
    13    5   26 1   
    14    6    7 ar  
    15    6   15 ar  
    16    7    8 ar  
    17    7   12 ar  
    18    8   25 1   
    19    9   10 1   
    20    9   21 1   
    21   10   11 1   
    22   10   18 2   
    23   11   20 1   
    24   12   13 ar  
    25   12   28 1   
    26   13   14 ar  
    27   13   29 1   
    28   14   15 ar  
    29   14   30 1   
    30   15   27 1   
    31   16   22 1   
    32   16   23 1   
@<TRIPOS>SUBSTRUCTURE
     1 5NL         1 TEMP              0 ****  ****    0 ROOT
