@<TRIPOS>MOLECULE
5NL
   30    32     1     0     0
SMALL
bcc


@<TRIPOS>ATOM
      1 C          -0.0860   -0.1200    0.0350 c         1 5NL      0.691500
      2 CA          1.4610    0.0090   -0.0650 c3        1 5NL     -0.007300
      3 CG          3.5280   -1.1790   -0.7960 ca        1 5NL     -0.096300
      4 CD1         4.3180   -1.7370    0.2450 ca        1 5NL     -0.137000
      5 CE1         5.6880   -1.6880    0.1850 ca        1 5NL     -0.106000
      6 CZ          6.3430   -1.0780   -0.9200 ca        1 5NL     -0.035000
      7 CE2         5.5590   -0.5230   -1.9630 ca        1 5NL     -0.035000
      8 CD2         4.1430   -0.5870   -1.8780 ca        1 5NL     -0.102000
      9 N10         1.8880    0.2920    1.3110 n         1 5NL     -0.510900
     10 C2          0.7650    0.1410    2.1770 c         1 5NL      0.776500
     11 N11        -0.4120   -0.0500    1.3970 n         1 5NL     -0.613500
     12 C1          6.2110    0.0850   -3.0720 ca        1 5NL     -0.117000
     13 C3          7.5820    0.1350   -3.1300 ca        1 5NL     -0.123000
     14 C5          8.3640   -0.4180   -2.0870 ca        1 5NL     -0.122000
     15 C6          7.7610   -1.0110   -1.0060 ca        1 5NL     -0.117000
     16 C4          2.0450   -1.2510   -0.7050 c3        1 5NL     -0.051100
     17 O3         -0.8830   -0.2570   -0.8940 o         1 5NL     -0.576500
     18 O2          0.7800    0.2100    3.4160 o         1 5NL     -0.601500
     19 HA          1.7130    0.9080   -0.6970 h1        1 5NL      0.108700
     20 H11        -1.3230   -0.0410    1.7790 hn        1 5NL      0.359500
     21 H10         2.7500   -0.1050    1.6130 hn        1 5NL      0.323500
     22 H41C        1.7400   -2.1590   -0.1180 hc        1 5NL      0.072700
     23 H42C        1.5930   -1.3470   -1.7290 hc        1 5NL      0.072700
     24 HD1         3.8160   -2.2230    1.0950 ha        1 5NL      0.131000
     25 HD2         3.5450   -0.1560   -2.6960 ha        1 5NL      0.137000
     26 HE1         6.3020   -2.1210    0.9890 ha        1 5NL      0.137000
     27 H6          8.3600   -1.4440   -0.1910 ha        1 5NL      0.135000
     28 H1          5.5950    0.5120   -3.8770 ha        1 5NL      0.135000
     29 HB          8.0900    0.6050   -3.9860 ha        1 5NL      0.135000
     30 HC          9.4610   -0.3650   -2.1580 ha        1 5NL      0.135000
@<TRIPOS>BOND
     1    1    2 1   
     2    1   11 1   
     3    1   17 2   
     4    2    9 1   
     5    2   16 1   
     6    2   19 1   
     7    3    4 ar  
     8    3    8 ar  
     9    3   16 1   
    10    4    5 ar  
    11    4   24 1   
    12    5    6 ar  
    13    5   26 1   
    14    6    7 ar  
    15    6   15 ar  
    16    7    8 ar  
    17    7   12 ar  
    18    8   25 1   
    19    9   10 1   
    20    9   21 1   
    21   10   11 1   
    22   10   18 2   
    23   11   20 1   
    24   12   13 ar  
    25   12   28 1   
    26   13   14 ar  
    27   13   29 1   
    28   14   15 ar  
    29   14   30 1   
    30   15   27 1   
    31   16   22 1   
    32   16   23 1   
@<TRIPOS>SUBSTRUCTURE
     1 5NL         1 TEMP              0 ****  ****    0 ROOT
