@<TRIPOS>MOLECULE
5NN
   30    32     1     0     0
SMALL
bcc


@<TRIPOS>ATOM
      1 CAN         0.0090   -0.5830    0.1820 ca        1 5NN     -0.110500
      2 CAR         1.4030   -0.6050    0.1590 ca        1 5NN     -0.130500
      3 CAQ         2.1320    0.0590    1.1460 ca        1 5NN     -0.117000
      4 CAP         1.4640    0.7440    2.1610 ca        1 5NN     -0.130500
      5 CAO         0.0710    0.7690    2.1910 ca        1 5NN     -0.110500
      6 CAL        -0.6630    0.1030    1.2010 ca        1 5NN     -0.076800
      7 CAI        -2.1370    0.1250    1.2510 cc        1 5NN      0.100400
      8 CAH        -2.8010   -0.1030    2.4300 cd        1 5NN     -0.193200
      9 CAE        -4.2390   -0.0790    2.4830 ca        1 5NN     -0.030800
     10 CAD        -4.9740   -0.3230    3.6850 ca        1 5NN      0.125600
     11 NAM        -4.3220   -0.5400    4.9060 nh        1 5NN     -0.811200
     12 CAC        -6.3800   -0.2600    3.6410 ca        1 5NN     -0.167000
     13 CAB        -7.0540    0.0350    2.4570 ca        1 5NN     -0.115000
     14 CAA        -6.3500    0.2610    1.2840 ca        1 5NN     -0.106000
     15 CAF        -4.9500    0.2000    1.2990 ca        1 5NN     -0.121600
     16 CAG        -4.2230    0.4400    0.0360 c         1 5NN      0.704100
     17 OAK        -4.7720    0.6870   -1.0570 o         1 5NN     -0.640500
     18 NAJ        -2.8270    0.3810    0.0730 n         1 5NN     -0.449100
     19 HAN        -0.5560   -1.1200   -0.5940 ha        1 5NN      0.141500
     20 HAR         1.9280   -1.1480   -0.6410 ha        1 5NN      0.137000
     21 HAQ         3.2320    0.0420    1.1240 ha        1 5NN      0.136000
     22 HAP         2.0370    1.2700    2.9400 ha        1 5NN      0.137000
     23 HAO        -0.4560    1.3150    2.9890 ha        1 5NN      0.141500
     24 HAH        -2.2110   -0.2910    3.3360 ha        1 5NN      0.146000
     25 HAJ        -2.3150    0.5600   -0.7630 hn        1 5NN      0.334500
     26 HAM1       -3.4400   -0.9970    4.8250 hn        1 5NN      0.387300
     27 HAM2       -4.9040   -0.9560    5.6010 hn        1 5NN      0.387300
     28 HAC        -6.9670   -0.4390    4.5560 ha        1 5NN      0.133000
     29 HAB        -8.1540    0.0830    2.4580 ha        1 5NN      0.137000
     30 HAA        -6.8670    0.4860    0.3380 ha        1 5NN      0.160000
@<TRIPOS>BOND
     1    1    2 ar  
     2    1    6 ar  
     3    1   19 1   
     4    2    3 ar  
     5    2   20 1   
     6    3    4 ar  
     7    3   21 1   
     8    4    5 ar  
     9    4   22 1   
    10    5    6 ar  
    11    5   23 1   
    12    6    7 1   
    13    7    8 2   
    14    7   18 1   
    15    8    9 1   
    16    8   24 1   
    17    9   10 ar  
    18    9   15 ar  
    19   10   11 1   
    20   10   12 ar  
    21   11   26 1   
    22   11   27 1   
    23   12   13 ar  
    24   12   28 1   
    25   13   14 ar  
    26   13   29 1   
    27   14   15 ar  
    28   14   30 1   
    29   15   16 1   
    30   16   17 2   
    31   16   18 1   
    32   18   25 1   
@<TRIPOS>SUBSTRUCTURE
     1 5NN         1 TEMP              0 ****  ****    0 ROOT
