@<TRIPOS>MOLECULE
5NN
   30    32     1     0     0
SMALL
bcc


@<TRIPOS>ATOM
      1 CAN         0.0190   -0.6080    0.2030 ca        1 5NN     -0.110500
      2 CAR         1.4120   -0.6340    0.1890 ca        1 5NN     -0.130500
      3 CAQ         2.1370    0.0360    1.1750 ca        1 5NN     -0.117000
      4 CAP         1.4660    0.7330    2.1790 ca        1 5NN     -0.130500
      5 CAO         0.0730    0.7620    2.2010 ca        1 5NN     -0.110500
      6 CAL        -0.6580    0.0900    1.2120 ca        1 5NN     -0.076800
      7 CAI        -2.1310    0.1170    1.2530 cc        1 5NN      0.100400
      8 CAH        -2.8040   -0.0980    2.4290 cd        1 5NN     -0.193200
      9 CAE        -4.2420   -0.0690    2.4730 ca        1 5NN     -0.030800
     10 CAD        -4.9850   -0.2990    3.6730 ca        1 5NN      0.125600
     11 NAM        -4.3420   -0.5070    4.9000 nv        1 5NN     -0.811200
     12 CAC        -6.3910   -0.2320    3.6200 ca        1 5NN     -0.167000
     13 CAB        -7.0570    0.0540    2.4280 ca        1 5NN     -0.115000
     14 CAA        -6.3450    0.2670    1.2580 ca        1 5NN     -0.106000
     15 CAF        -4.9450    0.2020    1.2820 ca        1 5NN     -0.121600
     16 CAG        -4.2090    0.4280    0.0210 c         1 5NN      0.704100
     17 OAK        -4.7510    0.6660   -1.0770 o         1 5NN     -0.640500
     18 NAJ        -2.8130    0.3650    0.0680 ns        1 5NN     -0.449100
     19 HAN        -0.5440   -1.1500   -0.5720 ha        1 5NN      0.141500
     20 HAR         1.9400   -1.1860   -0.6030 ha        1 5NN      0.137000
     21 HAQ         3.2370    0.0150    1.1590 ha        1 5NN      0.136000
     22 HAP         2.0350    1.2640    2.9570 ha        1 5NN      0.137000
     23 HAO        -0.4570    1.3170    2.9900 ha        1 5NN      0.141500
     24 HAH        -2.2200   -0.2790    3.3400 ha        1 5NN      0.146000
     25 HAJ        -2.2960    0.5340   -0.7660 hn        1 5NN      0.334500
     26 HAM1       -4.9290   -0.9140    5.5950 hn        1 5NN      0.387300
     27 HAM2       -3.4610   -0.9670    4.8290 hn        1 5NN      0.387300
     28 HAC        -6.9840   -0.4000    4.5330 ha        1 5NN      0.133000
     29 HAB        -8.1560    0.1060    2.4220 ha        1 5NN      0.137000
     30 HAA        -6.8550    0.4860    0.3070 ha        1 5NN      0.160000
@<TRIPOS>BOND
     1    1    2 ar  
     2    1    6 ar  
     3    1   19 1   
     4    2    3 ar  
     5    2   20 1   
     6    3    4 ar  
     7    3   21 1   
     8    4    5 ar  
     9    4   22 1   
    10    5    6 ar  
    11    5   23 1   
    12    6    7 1   
    13    7    8 2   
    14    7   18 1   
    15    8    9 1   
    16    8   24 1   
    17    9   10 ar  
    18    9   15 ar  
    19   10   11 1   
    20   10   12 ar  
    21   11   26 1   
    22   11   27 1   
    23   12   13 ar  
    24   12   28 1   
    25   13   14 ar  
    26   13   29 1   
    27   14   15 ar  
    28   14   30 1   
    29   15   16 1   
    30   16   17 2   
    31   16   18 1   
    32   18   25 1   
@<TRIPOS>SUBSTRUCTURE
     1 5NN         1 TEMP              0 ****  ****    0 ROOT
