@<TRIPOS>MOLECULE
5NS
   23    19     1     0     0
SMALL
bcc


@<TRIPOS>ATOM
      1 C1         -0.4850    0.0180   -2.3350 c1        1 5NS     -0.004500
      2 C2          0.9060    0.0180   -2.3350 c1        1 5NS     -0.094250
      3 C3          1.6010    0.0180   -1.1330 c1        1 5NS     -0.094250
      4 C4          0.8980    0.0180    0.0870 cg        1 5NS     -0.075000
      5 C5         -0.4770    0.0180    0.0870 cg        1 5NS      0.061000
      6 C6         -1.1800    0.0180   -1.1330 c1        1 5NS     -0.275200
      7 C9         -0.4850    0.0180    2.5090 c1        1 5NS     -0.094250
      8 C10        -1.1800    0.0180    1.3060 c1        1 5NS     -0.057500
      9 O14        -3.4090   -1.4850   -1.3590 o         1 5NS     -0.742200
     10 S11        -2.9120   -0.0670   -1.5020 s6        1 5NS      1.496800
     11 O12        -3.7040    0.8810   -0.6330 o         1 5NS     -0.742200
     12 O13        -3.2060    0.4810   -2.8780 o         1 5NS     -0.742200
     13 C8          0.9060    0.0180    2.5090 c1        1 5NS     -0.094250
     14 C7          1.6010    0.0180    1.3060 c1        1 5NS      0.078800
     15 N15         2.9880   -0.0030    1.6060 n3        1 5NS     -0.776400
     16 H1         -0.9730   -0.0170   -3.1800 ha        1 5NS      0.100500
     17 H2          1.3940    0.0180   -3.1810 ha        1 5NS      0.053250
     18 H3          2.5770    0.0180   -1.1330 ha        1 5NS      0.053250
     19 H9         -0.9730    0.0180    3.3540 ha        1 5NS      0.053250
     20 H10        -2.1560    0.0180    1.3070 ha        1 5NS      0.116500
     21 H8          1.3940   -0.0330    3.3530 ha        1 5NS      0.053250
     22 HN15        3.3590    0.6710    2.0950 hn        1 5NS      0.362300
     23 HN1A        3.5140   -0.6730    1.2810 hn        1 5NS      0.362300
@<TRIPOS>BOND
     1    1    6 3   
     2    1   16 1   
     3    2    3 3   
     4    2   17 1   
     5    3   18 1   
     6    4    5 1   
     7    4   14 3   
     8    5    8 3   
     9    6   10 1   
    10    7   13 3   
    11    7   19 1   
    12    8   20 1   
    13    9   10 1   
    14   10   11 1   
    15   10   12 1   
    16   13   21 1   
    17   14   15 1   
    18   15   22 1   
    19   15   23 1   
@<TRIPOS>SUBSTRUCTURE
     1 5NS         1 TEMP              0 ****  ****    0 ROOT
