@<TRIPOS>MOLECULE
5NS
   23    24     1     0     0
SMALL
bcc


@<TRIPOS>ATOM
      1 C1          0.6810    1.9490   -0.0690 ca        1 5NS     -0.062000
      2 C2         -0.5540    2.6320   -0.1100 ca        1 5NS     -0.155000
      3 C3         -1.7340    1.9280   -0.0970 ca        1 5NS     -0.120000
      4 C4         -1.7290    0.5080   -0.0450 ca        1 5NS     -0.075000
      5 C5         -0.4780   -0.1660   -0.0320 ca        1 5NS      0.061000
      6 C6          0.7370    0.5760   -0.0310 ca        1 5NS     -0.232500
      7 C9         -1.6230   -2.3080   -0.0100 ca        1 5NS     -0.126000
      8 C10        -0.4560   -1.5920   -0.0210 ca        1 5NS     -0.115000
      9 O14         2.3740   -0.9060    1.2530 o         1 5NS     -0.742200
     10 S11         2.3550   -0.1970    0.0320 s6        1 5NS      1.454100
     11 O12         2.4120   -1.0390   -1.1010 o         1 5NS     -0.742200
     12 O13         3.2600    0.8890   -0.0140 o         1 5NS     -0.742200
     13 C8         -2.8720   -1.6540    0.0080 ca        1 5NS     -0.206000
     14 C7         -2.9480   -0.2660   -0.0090 ca        1 5NS      0.104600
     15 N15        -4.2080    0.3710   -0.0520 nh        1 5NS     -0.802200
     16 H1          1.6210    2.5310   -0.0720 ha        1 5NS      0.158000
     17 H2         -0.5600    3.7300   -0.1540 ha        1 5NS      0.110000
     18 H3         -2.6810    2.4830   -0.1470 ha        1 5NS      0.106000
     19 H9         -1.6030   -3.4070   -0.0080 ha        1 5NS      0.117000
     20 H10         0.5270   -2.0990   -0.0240 ha        1 5NS      0.174000
     21 H8         -3.7840   -2.2680    0.0310 ha        1 5NS      0.110000
     22 HN15       -4.2090    1.2510    0.4200 hn        1 5NS      0.362300
     23 HN1A       -4.9360   -0.2170    0.2960 hn        1 5NS      0.362300
@<TRIPOS>BOND
     1    1    2 ar  
     2    1    6 ar  
     3    1   16 1   
     4    2    3 ar  
     5    2   17 1   
     6    3    4 ar  
     7    3   18 1   
     8    4    5 ar  
     9    4   14 ar  
    10    5    6 ar  
    11    5    8 ar  
    12    6   10 1   
    13    7    8 ar  
    14    7   13 ar  
    15    7   19 1   
    16    8   20 1   
    17    9   10 1   
    18   10   11 1   
    19   10   12 1   
    20   13   14 ar  
    21   13   21 1   
    22   14   15 1   
    23   15   22 1   
    24   15   23 1   
@<TRIPOS>SUBSTRUCTURE
     1 5NS         1 TEMP              0 ****  ****    0 ROOT
