@<TRIPOS>MOLECULE
5NS
   23    24     1     0     0
SMALL
bcc


@<TRIPOS>ATOM
      1 C1          0.0080    0.0490    0.0260 ca        1 5NS     -0.071000
      2 C2          1.4200    0.0750    0.0260 ca        1 5NS     -0.140000
      3 C3          2.1110    0.0510    1.2120 ca        1 5NS     -0.140000
      4 C4          1.4180   -0.0000    2.4520 ca        1 5NS     -0.078000
      5 C5         -0.0020   -0.0260    2.4360 ca        1 5NS      0.042000
      6 C6         -0.7060   -0.0010    1.2000 ca        1 5NS     -0.220500
      7 C9         -0.0210   -0.1040    4.8650 ca        1 5NS     -0.159000
      8 C10        -0.7030   -0.0790    3.6770 ca        1 5NS     -0.082000
      9 O14        -2.8800   -1.2380    1.7240 o         1 5NS     -0.741533
     10 S11        -2.4990   -0.0310    1.0980 s6        1 5NS      1.454100
     11 O12        -2.9250    1.1170    1.8000 o         1 5NS     -0.741533
     12 O13        -2.7680    0.0090   -0.2900 o         1 5NS     -0.741533
     13 C8          1.3910   -0.0770    4.8910 ca        1 5NS     -0.109000
     14 C7          2.1170   -0.0260    3.7120 ca        1 5NS      0.041600
     15 N15         3.5440    0.0010    3.7850 nv        1 5NS     -0.788200
     16 H1         -0.5330    0.0700   -0.9380 ha        1 5NS      0.159000
     17 H2          1.9570    0.1150   -0.9320 ha        1 5NS      0.111000
     18 H3          3.2110    0.0710    1.1960 ha        1 5NS      0.099000
     19 H9         -0.5650   -0.1440    5.8190 ha        1 5NS      0.121000
     20 H10        -1.8080   -0.0990    3.6510 ha        1 5NS      0.174000
     21 H8          1.9040   -0.0980    5.8650 ha        1 5NS      0.125000
     22 HN15        3.8830    0.8220    3.3170 hn        1 5NS      0.343800
     23 HN1A        3.9140   -0.8030    3.3100 hn        1 5NS      0.343800
@<TRIPOS>BOND
     1    1    2 ar  
     2    1    6 ar  
     3    1   16 1   
     4    2    3 ar  
     5    2   17 1   
     6    3    4 ar  
     7    3   18 1   
     8    4    5 ar  
     9    4   14 ar  
    10    5    6 ar  
    11    5    8 ar  
    12    6   10 1   
    13    7    8 ar  
    14    7   13 ar  
    15    7   19 1   
    16    8   20 1   
    17    9   10 1   
    18   10   11 1   
    19   10   12 1   
    20   13   14 ar  
    21   13   21 1   
    22   14   15 1   
    23   15   22 1   
    24   15   23 1   
@<TRIPOS>SUBSTRUCTURE
     1 5NS         1 TEMP              0 ****  ****    0 ROOT
