@<TRIPOS>MOLECULE
5NS
   23    24     1     0     0
SMALL
bcc


@<TRIPOS>ATOM
      1 C1          0.0070    0.0580    0.0260 ca        1 5NS     -0.071000
      2 C2          1.4190    0.0780    0.0260 ca        1 5NS     -0.140000
      3 C3          2.1110    0.0480    1.2120 ca        1 5NS     -0.140000
      4 C4          1.4180   -0.0030    2.4510 ca        1 5NS     -0.078000
      5 C5         -0.0020   -0.0240    2.4360 ca        1 5NS      0.042000
      6 C6         -0.7070    0.0080    1.2010 ca        1 5NS     -0.220500
      7 C9         -0.0200   -0.1080    4.8650 ca        1 5NS     -0.159000
      8 C10        -0.7020   -0.0770    3.6770 ca        1 5NS     -0.082000
      9 O14        -2.8850   -1.2230    1.7220 o         1 5NS     -0.741533
     10 S11        -2.5000   -0.0160    1.0990 s6        1 5NS      1.454100
     11 O12        -2.9210    1.1320    1.8050 o         1 5NS     -0.741533
     12 O13        -2.7700    0.0290   -0.2880 o         1 5NS     -0.741533
     13 C8          1.3920   -0.0870    4.8910 ca        1 5NS     -0.109000
     14 C7          2.1170   -0.0350    3.7120 ca        1 5NS      0.041600
     15 N15         3.5450   -0.0120    3.7840 nh        1 5NS     -0.788200
     16 H1         -0.5340    0.0830   -0.9370 ha        1 5NS      0.159000
     17 H2          1.9560    0.1180   -0.9330 ha        1 5NS      0.111000
     18 H3          3.2100    0.0630    1.1950 ha        1 5NS      0.099000
     19 H9         -0.5640   -0.1500    5.8190 ha        1 5NS      0.121000
     20 H10        -1.8080   -0.0930    3.6520 ha        1 5NS      0.174000
     21 H8          1.9050   -0.1120    5.8640 ha        1 5NS      0.125000
     22 HN15        3.9110   -0.8230    3.3180 hn        1 5NS      0.343800
     23 HN1A        3.8870    0.8020    3.3060 hn        1 5NS      0.343800
@<TRIPOS>BOND
     1    1    2 ar  
     2    1    6 ar  
     3    1   16 1   
     4    2    3 ar  
     5    2   17 1   
     6    3    4 ar  
     7    3   18 1   
     8    4    5 ar  
     9    4   14 ar  
    10    5    6 ar  
    11    5    8 ar  
    12    6   10 1   
    13    7    8 ar  
    14    7   13 ar  
    15    7   19 1   
    16    8   20 1   
    17    9   10 1   
    18   10   11 1   
    19   10   12 1   
    20   13   14 ar  
    21   13   21 1   
    22   14   15 1   
    23   15   22 1   
    24   15   23 1   
@<TRIPOS>SUBSTRUCTURE
     1 5NS         1 TEMP              0 ****  ****    0 ROOT
