@<TRIPOS>MOLECULE
5NS
   24    25     1     0     0
SMALL
bcc


@<TRIPOS>ATOM
      1 C1         -0.0140    0.0280   -0.0110 ca        1 5NS     -0.075000
      2 C2          1.3980    0.0490   -0.0200 ca        1 5NS     -0.066000
      3 C3          2.1040    0.0340    1.1620 ca        1 5NS     -0.205000
      4 C4          1.4160   -0.0030    2.4020 ca        1 5NS     -0.021000
      5 C5         -0.0090   -0.0240    2.4030 ca        1 5NS      0.026000
      6 C6         -0.7130   -0.0080    1.1710 ca        1 5NS     -0.154500
      7 C9         -0.0240   -0.0760    4.8430 ca        1 5NS     -0.171000
      8 C10        -0.7050   -0.0610    3.6420 ca        1 5NS      0.012000
      9 O14        -2.8630   -1.2260    1.7800 o         1 5NS     -0.724533
     10 S11        -2.5600   -0.0340    1.1050 s6        1 5NS      1.459100
     11 O12        -2.8230   -0.0080   -0.2680 o         1 5NS     -0.724533
     12 O13        -2.8970    1.1190    1.8300 o         1 5NS     -0.724533
     13 C8          1.3780   -0.0560    4.8690 ca        1 5NS     -0.070000
     14 C7          2.0790   -0.0200    3.6700 ca        1 5NS     -0.122400
     15 N15         3.5410    0.0020    3.6880 n4        1 5NS     -0.688000
     16 H1         -0.5690    0.0410   -0.9700 ha        1 5NS      0.184000
     17 H2          1.9310    0.0780   -0.9840 ha        1 5NS      0.135000
     18 H3          3.2010    0.0510    1.1210 ha        1 5NS      0.089000
     19 H9         -0.5760   -0.1050    5.7950 ha        1 5NS      0.158000
     20 H10        -1.8160   -0.0770    3.6220 ha        1 5NS      0.210000
     21 H8          1.8940   -0.0690    5.8430 ha        1 5NS      0.130000
     22 HN15        3.8930   -0.8170    3.1810 hn        1 5NS      0.448467
     23 HN1A        3.8680    0.8510    3.2160 hn        1 5NS      0.448467
     24 H153        3.8850   -0.0140    4.6500 hn        1 5NS      0.448467
@<TRIPOS>BOND
     1    1    2 ar  
     2    1    6 ar  
     3    1   16 1   
     4    2    3 ar  
     5    2   17 1   
     6    3    4 ar  
     7    3   18 1   
     8    4    5 ar  
     9    4   14 ar  
    10    5    6 ar  
    11    5    8 ar  
    12    6   10 1   
    13    7    8 ar  
    14    7   13 ar  
    15    7   19 1   
    16    8   20 1   
    17    9   10 1   
    18   10   11 1   
    19   10   12 1   
    20   13   14 ar  
    21   13   21 1   
    22   14   15 1   
    23   15   22 1   
    24   15   23 1   
    25   15   24 1   
@<TRIPOS>SUBSTRUCTURE
     1 5NS         1 TEMP              0 ****  ****    0 ROOT
