@<TRIPOS>MOLECULE
5NU
   14    11     1     0     0
SMALL
bcc


@<TRIPOS>ATOM
      1 O4         -2.3950   -0.0370    0.4700 o         1 5NU     -0.268000
      2 C4         -1.1800   -0.0370    0.4700 c1        1 5NU      0.373000
      3 N3         -0.4700   -0.0370    1.6990 n         1 5NU     -0.363000
      4 C2          0.9910   -0.0370    1.6990 c2        1 5NU      0.394000
      5 O2          1.5980   -0.1610    2.7430 o         1 5NU     -0.328000
      6 N1          1.7220   -0.0370    0.4340 n         1 5NU     -0.296000
      7 C6          1.0140   -0.0370   -0.7960 c2        1 5NU      0.141000
      8 C5         -0.4420   -0.0370   -0.8020 c1        1 5NU     -0.331000
      9 N51        -1.1350    0.1600   -2.0240 n1        1 5NU      0.603000
     10 O53        -1.3570    1.2930   -2.4260 o         1 5NU     -0.300000
     11 O52        -1.5570   -0.9170   -2.7500 os        1 5NU     -0.393000
     12 H1         -0.9260   -0.0440    2.4890 hn        1 5NU      0.280000
     13 H2          1.5040   -0.0370   -1.6400 h4        1 5NU      0.204000
     14 H4          2.6340   -0.0370    0.4340 hn        1 5NU      0.283000
@<TRIPOS>BOND
     1    1    2 1   
     2    2    3 1   
     3    3    4 1   
     4    3   12 1   
     5    4    5 1   
     6    4    6 1   
     7    6    7 1   
     8    6   14 1   
     9    7    8 1   
    10    7   13 1   
    11    9   10 1   
@<TRIPOS>SUBSTRUCTURE
     1 5NU         1 TEMP              0 ****  ****    0 ROOT
