@<TRIPOS>MOLECULE
5NU
   14    14     1     0     0
SMALL
bcc


@<TRIPOS>ATOM
      1 O4         -0.5040   -2.1820   -0.0020 o         1 5NU     -0.543500
      2 C4          0.0560   -1.0810   -0.0010 c         1 5NU      0.734700
      3 N3          1.4670   -1.0420   -0.0010 n         1 5NU     -0.583500
      4 C2          2.2100    0.1400    0.0000 c         1 5NU      0.803500
      5 O2          3.4540    0.1580    0.0000 o         1 5NU     -0.603500
      6 N1          1.4950    1.3750    0.0020 n         1 5NU     -0.452100
      7 C6          0.1340    1.4050    0.0020 cc        1 5NU      0.143600
      8 C5         -0.6090    0.2390    0.0010 cd        1 5NU     -0.377300
      9 N51        -2.0780    0.3090    0.0010 no        1 5NU      0.330100
     10 O53        -2.5810    1.4080    0.0020 o         1 5NU     -0.196500
     11 O52        -2.7280   -0.6940    0.0000 o         1 5NU     -0.196500
     12 H1          1.9760   -1.9030   -0.0020 hn        1 5NU      0.366500
     13 H2         -0.3520    2.4060    0.0030 h4        1 5NU      0.204000
     14 H4          2.0370    2.2130    0.0030 hn        1 5NU      0.369500
@<TRIPOS>BOND
     1    1    2 2   
     2    2    3 1   
     3    2    8 1   
     4    3    4 1   
     5    3   12 1   
     6    4    5 2   
     7    4    6 1   
     8    6    7 1   
     9    6   14 1   
    10    7    8 2   
    11    7   13 1   
    12    8    9 1   
    13    9   10 1   
    14    9   11 1   
@<TRIPOS>SUBSTRUCTURE
     1 5NU         1 TEMP              0 ****  ****    0 ROOT
