@<TRIPOS>MOLECULE
5NU
   14    14     1     0     0
SMALL
bcc


@<TRIPOS>ATOM
      1 O4         -0.1190   -0.0040    0.0830 o         1 5NU     -0.543500
      2 C4          1.1130   -0.0030   -0.0030 c         1 5NU      0.734700
      3 N3          1.8730    0.0000    1.1860 n         1 5NU     -0.583500
      4 C2          3.2680    0.0020    1.2140 c         1 5NU      0.803500
      5 O2          3.9250    0.0040    2.2720 o         1 5NU     -0.603500
      6 N1          3.9590   -0.0000   -0.0340 n         1 5NU     -0.452100
      7 C6          3.2840   -0.0030   -1.2160 cc        1 5NU      0.143600
      8 C5          1.9030   -0.0050   -1.2530 cd        1 5NU     -0.377300
      9 N51         1.2060   -0.0080   -2.5490 no        1 5NU      0.330100
     10 O53         1.8890   -0.0090   -3.5450 o         1 5NU     -0.196500
     11 O52         0.0120   -0.0090   -2.5900 o         1 5NU     -0.196500
     12 H1          1.3970    0.0010    2.0650 hn        1 5NU      0.366500
     13 H2          3.8930   -0.0040   -2.1490 h4        1 5NU      0.204000
     14 H4          4.9570    0.0010   -0.0010 hn        1 5NU      0.369500
@<TRIPOS>BOND
     1    1    2 2   
     2    2    3 1   
     3    2    8 1   
     4    3    4 1   
     5    3   12 1   
     6    4    5 2   
     7    4    6 1   
     8    6    7 1   
     9    6   14 1   
    10    7    8 2   
    11    7   13 1   
    12    8    9 1   
    13    9   10 1   
    14    9   11 1   
@<TRIPOS>SUBSTRUCTURE
     1 5NU         1 TEMP              0 ****  ****    0 ROOT
