@<TRIPOS>MOLECULE
5NY
   65    71     1     0     0
SMALL
bcc


@<TRIPOS>ATOM
      1 Cl          4.6210   -1.6510   -1.0570 cl        1 5NY     -0.059400
      2 C25         3.6930   -0.4140   -0.3510 ca        1 5NY      0.076400
      3 C24         4.2250    0.2520    0.7490 ca        1 5NY     -0.160000
      4 C23         3.4810    1.2670    1.4030 ca        1 5NY      0.123800
      5 N2          4.0140    1.9420    2.4950 na        1 5NY     -0.313800
      6 C27         3.4760    3.0700    3.1770 cc        1 5NY      0.386400
      7 N4          4.3170    3.4110    4.1730 nd        1 5NY     -0.305500
      8 N3          5.3590    2.5780    4.1840 nd        1 5NY     -0.305500
      9 C26         5.2260    1.6730    3.1930 cc        1 5NY      0.386400
     10 C22         2.1840    1.5710    0.9200 ca        1 5NY     -0.165000
     11 C21         1.6660    0.8950   -0.1730 ca        1 5NY     -0.013000
     12 C20         2.4140   -0.0920   -0.8370 ca        1 5NY     -0.231600
     13 C19         1.7580   -0.7790   -1.9580 c         1 5NY      0.587700
     14 O           0.6090   -1.1940   -1.9850 o         1 5NY     -0.410100
     15 N1          2.6040   -0.9820   -3.1950 ny        1 5NY     -0.673800
     16 C10         1.9580   -0.5590   -4.5160 c3        1 5NY      0.214500
     17 C9          3.0570   -0.5850   -5.6390 c3        1 5NY      0.021300
     18 N           3.5850   -1.9060   -5.8060 na        1 5NY     -0.109400
     19 C4          4.7240   -2.2450   -6.5690 ca        1 5NY     -0.048200
     20 C3          5.8270   -1.4720   -6.9500 ca        1 5NY     -0.134000
     21 C2          6.8550   -2.1040   -7.6340 ca        1 5NY     -0.097000
     22 C13         1.4480    0.8530   -4.4010 ca        1 5NY     -0.170300
     23 C18         2.3630    1.8970   -4.1850 ca        1 5NY     -0.108000
     24 C17         1.9250    3.2170   -4.1220 ca        1 5NY     -0.118500
     25 C16         0.5690    3.5130   -4.2750 ca        1 5NY     -0.085000
     26 C15        -0.3440    2.4810   -4.4830 ca        1 5NY     -0.118500
     27 C14         0.0900    1.1560   -4.5440 ca        1 5NY     -0.108000
     28 C11         0.8760   -1.5760   -4.9290 c3        1 5NY     -0.106400
     29 C12         1.4060   -2.9860   -5.1180 c3        1 5NY     -0.049200
     30 C8          2.7370   -3.0390   -5.7650 cc        1 5NY     -0.045300
     31 C7          3.3800   -4.1250   -6.3640 cd        1 5NY     -0.157000
     32 C5          4.6530   -3.6510   -6.8870 ca        1 5NY     -0.068800
     33 C6          5.7150   -4.2540   -7.5560 ca        1 5NY     -0.091000
     34 C1          6.8130   -3.4810   -7.9330 ca        1 5NY     -0.065300
     35 C           7.9500   -4.0940   -8.6600 c3        1 5NY     -0.063800
     36 C28         2.8550   -5.4580   -6.3960 cd        1 5NY      0.465300
     37 N8          3.2160   -6.4930   -7.2820 na        1 5NY     -0.168400
     38 N7          2.4850   -7.5740   -6.9750 nd        1 5NY     -0.172800
     39 N6          1.7260   -7.2670   -5.9860 nc        1 5NY     -0.035000
     40 N5          1.8910   -6.0120   -5.5830 nc        1 5NY     -0.396000
     41 H20         5.2300   -0.0270    1.1110 ha        1 5NY      0.180000
     42 H22         2.5350    3.5590    2.9090 h5        1 5NY      0.084100
     43 H21         5.9080    0.8540    2.9500 h5        1 5NY      0.084100
     44 H19         1.5640    2.3370    1.4150 ha        1 5NY      0.173000
     45 H18         0.6440    1.1280   -0.5240 ha        1 5NY      0.172000
     46 H17         3.4760   -0.4520   -3.0900 hn        1 5NY      0.463800
     47 H7          2.5550   -0.2060   -6.5780 h1        1 5NY      0.088700
     48 H6          3.9080    0.1120   -5.3970 h1        1 5NY      0.088700
     49 H4          5.8780   -0.3980   -6.7230 ha        1 5NY      0.137000
     50 H3          7.7320   -1.5180   -7.9540 ha        1 5NY      0.151000
     51 H16         3.4380    1.6900   -4.0740 ha        1 5NY      0.139000
     52 H15         2.6520    4.0290   -3.9620 ha        1 5NY      0.159500
     53 H14         0.2240    4.5590   -4.2360 ha        1 5NY      0.162000
     54 H13        -1.4160    2.7080   -4.6070 ha        1 5NY      0.159500
     55 H12        -0.6580    0.3640   -4.7090 ha        1 5NY      0.139000
     56 H9          0.0460   -1.5990   -4.1730 hc        1 5NY      0.097200
     57 H8          0.4450   -1.2070   -5.9000 hc        1 5NY      0.097200
     58 H11         0.6710   -3.5610   -5.7520 hc        1 5NY      0.100700
     59 H10         1.4520   -3.5320   -4.1340 hc        1 5NY      0.100700
     60 H5          5.7050   -5.3310   -7.7790 ha        1 5NY      0.139000
     61 H2          8.9170   -3.8380   -8.1590 hc        1 5NY      0.057033
     62 H1          7.8580   -5.2070   -8.7010 hc        1 5NY      0.057033
     63 H           7.9880   -3.7050   -9.7100 hc        1 5NY      0.057033
     64 H23         3.8680   -6.4780   -8.0320 hn        1 5NY      0.341700
     65 H121        2.8330   -1.9850   -3.2610 hn        1 5NY      0.463800
@<TRIPOS>BOND
     1    1    2 1   
     2    2    3 ar  
     3    2   12 ar  
     4    3    4 ar  
     5    3   41 1   
     6    4    5 1   
     7    4   10 ar  
     8    5    6 1   
     9    5    9 1   
    10    6    7 2   
    11    6   42 1   
    12    7    8 1   
    13    8    9 2   
    14    9   43 1   
    15   10   11 ar  
    16   10   44 1   
    17   11   12 ar  
    18   11   45 1   
    19   12   13 1   
    20   13   14 2   
    21   13   15 1   
    22   15   16 1   
    23   15   46 1   
    24   15   65 1   
    25   16   17 1   
    26   16   22 1   
    27   16   28 1   
    28   17   18 1   
    29   17   47 1   
    30   17   48 1   
    31   18   19 1   
    32   18   30 1   
    33   19   20 ar  
    34   19   32 ar  
    35   20   21 ar  
    36   20   49 1   
    37   21   34 ar  
    38   21   50 1   
    39   22   23 ar  
    40   22   27 ar  
    41   23   24 ar  
    42   23   51 1   
    43   24   25 ar  
    44   24   52 1   
    45   25   26 ar  
    46   25   53 1   
    47   26   27 ar  
    48   26   54 1   
    49   27   55 1   
    50   28   29 1   
    51   28   56 1   
    52   28   57 1   
    53   29   30 1   
    54   29   58 1   
    55   29   59 1   
    56   30   31 2   
    57   31   32 1   
    58   31   36 1   
    59   32   33 ar  
    60   33   34 ar  
    61   33   60 1   
    62   34   35 1   
    63   35   61 1   
    64   35   62 1   
    65   35   63 1   
    66   36   37 1   
    67   36   40 2   
    68   37   38 1   
    69   37   64 1   
    70   38   39 2   
    71   39   40 1   
@<TRIPOS>SUBSTRUCTURE
     1 5NY         1 TEMP              0 ****  ****    0 ROOT
