@<TRIPOS>MOLECULE
5NY
   65    71     1     0     0
SMALL
bcc


@<TRIPOS>ATOM
      1 CL          4.6220   -1.6610   -1.0530 cl        1 5NY     -0.059400
      2 C25         3.6920   -0.4260   -0.3440 ca        1 5NY      0.076400
      3 C24         4.2220    0.2360    0.7590 ca        1 5NY     -0.160000
      4 C23         3.4770    1.2480    1.4160 ca        1 5NY      0.123800
      5 N2          4.0090    1.9200    2.5110 na        1 5NY     -0.313800
      6 C27         3.4680    3.0440    3.1970 cc        1 5NY      0.386400
      7 N4          4.3090    3.3830    4.1950 nd        1 5NY     -0.305500
      8 N3          5.3520    2.5520    4.2020 nd        1 5NY     -0.305500
      9 C26         5.2210    1.6510    3.2080 cc        1 5NY      0.386400
     10 C22         2.1810    1.5530    0.9320 ca        1 5NY     -0.165000
     11 C21         1.6640    0.8800   -0.1630 ca        1 5NY     -0.013000
     12 C20         2.4130   -0.1040   -0.8300 ca        1 5NY     -0.231600
     13 C19         1.7590   -0.7880   -1.9530 c         1 5NY      0.587700
     14 O           0.6100   -1.2040   -1.9830 o         1 5NY     -0.410100
     15 N1          2.6050   -0.9870   -3.1900 n4        1 5NY     -0.673800
     16 C10         1.9600   -0.5600   -4.5110 c3        1 5NY      0.214500
     17 C9          3.0600   -0.5830   -5.6330 c3        1 5NY      0.021300
     18 N           3.5890   -1.9020   -5.8040 na        1 5NY     -0.109400
     19 C4          4.7290   -2.2390   -6.5660 ca        1 5NY     -0.048200
     20 C3          5.8310   -1.4630   -6.9440 ca        1 5NY     -0.134000
     21 C2          6.8610   -2.0930   -7.6290 ca        1 5NY     -0.097000
     22 C13         1.4490    0.8510   -4.3920 ca        1 5NY     -0.170300
     23 C18         2.3630    1.8950   -4.1720 ca        1 5NY     -0.108000
     24 C17         1.9250    3.2140   -4.1060 ca        1 5NY     -0.118500
     25 C16         0.5680    3.5100   -4.2590 ca        1 5NY     -0.085000
     26 C15        -0.3440    2.4780   -4.4710 ca        1 5NY     -0.118500
     27 C14         0.0910    1.1530   -4.5350 ca        1 5NY     -0.108000
     28 C11         0.8800   -1.5770   -4.9270 c3        1 5NY     -0.106400
     29 C12         1.4110   -2.9850   -5.1200 c3        1 5NY     -0.049200
     30 C8          2.7420   -3.0360   -5.7670 cc        1 5NY     -0.045300
     31 C7          3.3860   -4.1200   -6.3680 cd        1 5NY     -0.157000
     32 C5          4.6590   -3.6440   -6.8890 ca        1 5NY     -0.068800
     33 C6          5.7220   -4.2440   -7.5590 ca        1 5NY     -0.091000
     34 C1          6.8200   -3.4690   -7.9340 ca        1 5NY     -0.065300
     35 C           7.9570   -4.0780   -8.6620 c3        1 5NY     -0.063800
     36 C28         2.8620   -5.4530   -6.4040 cd        1 5NY      0.465300
     37 N8          3.2240   -6.4850   -7.2930 na        1 5NY     -0.168400
     38 N7          2.4940   -7.5680   -6.9900 nd        1 5NY     -0.172800
     39 N6          1.7340   -7.2640   -6.0000 nc        1 5NY     -0.035000
     40 N5          1.8980   -6.0100   -5.5940 nc        1 5NY     -0.396000
     41 H20         5.2270   -0.0440    1.1200 ha        1 5NY      0.180000
     42 H22         2.5260    3.5320    2.9310 h5        1 5NY      0.084100
     43 H21         5.9050    0.8340    2.9610 h5        1 5NY      0.084100
     44 H19         1.5600    2.3170    1.4290 ha        1 5NY      0.173000
     45 H18         0.6420    1.1130   -0.5140 ha        1 5NY      0.172000
     46 H17         3.4770   -0.4560   -3.0830 hn        1 5NY      0.463800
     47 H7          2.5580   -0.2010   -6.5710 h1        1 5NY      0.088700
     48 H6          3.9100    0.1150   -5.3880 h1        1 5NY      0.088700
     49 H4          5.8820   -0.3900   -6.7150 ha        1 5NY      0.137000
     50 H3          7.7380   -1.5050   -7.9470 ha        1 5NY      0.151000
     51 H16         3.4390    1.6880   -4.0610 ha        1 5NY      0.139000
     52 H15         2.6510    4.0270   -3.9420 ha        1 5NY      0.159500
     53 H14         0.2230    4.5560   -4.2170 ha        1 5NY      0.162000
     54 H13        -1.4160    2.7050   -4.5950 ha        1 5NY      0.159500
     55 H12        -0.6560    0.3610   -4.7030 ha        1 5NY      0.139000
     56 H9          0.0480   -1.6020   -4.1720 hc        1 5NY      0.097200
     57 H8          0.4490   -1.2050   -5.8970 hc        1 5NY      0.097200
     58 H11         1.4560   -3.5340   -4.1380 hc        1 5NY      0.100700
     59 H10         0.6770   -3.5600   -5.7560 hc        1 5NY      0.100700
     60 H5          5.7130   -5.3200   -7.7850 ha        1 5NY      0.139000
     61 H2          7.8660   -5.1910   -8.7050 hc        1 5NY      0.057033
     62 H1          7.9950   -3.6870   -9.7100 hc        1 5NY      0.057033
     63 H           8.9240   -3.8230   -8.1590 hc        1 5NY      0.057033
     64 H23         3.8770   -6.4670   -8.0430 hn        1 5NY      0.341700
     65 H121        2.8360   -1.9890   -3.2600 hn        1 5NY      0.463800
@<TRIPOS>BOND
     1    1    2 1   
     2    2    3 ar  
     3    2   12 ar  
     4    3    4 ar  
     5    3   41 1   
     6    4    5 1   
     7    4   10 ar  
     8    5    6 1   
     9    5    9 1   
    10    6    7 2   
    11    6   42 1   
    12    7    8 1   
    13    8    9 2   
    14    9   43 1   
    15   10   11 ar  
    16   10   44 1   
    17   11   12 ar  
    18   11   45 1   
    19   12   13 1   
    20   13   14 2   
    21   13   15 1   
    22   15   16 1   
    23   15   46 1   
    24   15   65 1   
    25   16   17 1   
    26   16   22 1   
    27   16   28 1   
    28   17   18 1   
    29   17   47 1   
    30   17   48 1   
    31   18   19 1   
    32   18   30 1   
    33   19   20 ar  
    34   19   32 ar  
    35   20   21 ar  
    36   20   49 1   
    37   21   34 ar  
    38   21   50 1   
    39   22   23 ar  
    40   22   27 ar  
    41   23   24 ar  
    42   23   51 1   
    43   24   25 ar  
    44   24   52 1   
    45   25   26 ar  
    46   25   53 1   
    47   26   27 ar  
    48   26   54 1   
    49   27   55 1   
    50   28   29 1   
    51   28   56 1   
    52   28   57 1   
    53   29   30 1   
    54   29   58 1   
    55   29   59 1   
    56   30   31 2   
    57   31   32 1   
    58   31   36 1   
    59   32   33 ar  
    60   33   34 ar  
    61   33   60 1   
    62   34   35 1   
    63   35   61 1   
    64   35   62 1   
    65   35   63 1   
    66   36   37 1   
    67   36   40 2   
    68   37   38 1   
    69   37   64 1   
    70   38   39 2   
    71   39   40 1   
@<TRIPOS>SUBSTRUCTURE
     1 5NY         1 TEMP              0 ****  ****    0 ROOT
