@<TRIPOS>MOLECULE
5OB
   19    15     1     0     0
SMALL
bcc


@<TRIPOS>ATOM
      1 N3          1.0180   -0.1040   -2.5590 ne        1 5OB     -0.463900
      2 N1          2.8380   -0.1110   -1.2920 ne        1 5OB     -0.463900
      3 C2          2.3910   -0.1390   -2.5840 c1        1 5OB      0.398800
      4 C7A         1.7370   -0.0580   -0.4590 cg        1 5OB      0.000500
      5 C3A         0.6170   -0.0540   -1.2410 cg        1 5OB      0.000500
      6 C4         -0.6590   -0.0430   -0.6460 c1        1 5OB     -0.046500
      7 C5         -0.7790   -0.0370    0.7320 c1        1 5OB      0.126600
      8 C6          0.3540   -0.0410    1.5220 c1        1 5OB     -0.162500
      9 C7          1.6170   -0.0510    0.9300 c1        1 5OB     -0.046500
     10 O10        -2.0480   -0.5730    1.0640 os        1 5OB     -0.313400
     11 C11        -2.8120    0.2500    1.9580 c3        1 5OB      0.114700
     12 H31N        0.4590   -0.1110   -3.3000 DU        1 5OB      0.227000
     13 H21         2.9590   -0.0990   -3.3950 DU        1 5OB      0.227000
     14 H41        -1.4670   -0.0400   -1.2130 ha        1 5OB      0.093500
     15 H61         0.2710   -0.0350    2.4860 ha        1 5OB      0.081500
     16 H71         2.4220   -0.0550    1.4920 ha        1 5OB      0.093500
     17 H111       -3.7270    0.1320    1.7850 h1        1 5OB      0.044367
     18 H112       -2.5760    1.1790    1.8240 h1        1 5OB      0.044367
     19 H113       -2.6160   -0.0090    2.8970 h1        1 5OB      0.044367
@<TRIPOS>BOND
     1    1    3 2   
     2    1    5 1   
     3    2    3 2   
     4    2    4 1   
     5    4    9 3   
     6    5    6 3   
     7    6   14 1   
     8    7    8 3   
     9    7   10 1   
    10    8   15 1   
    11    9   16 1   
    12   10   11 1   
    13   11   17 1   
    14   11   18 1   
    15   11   19 1   
@<TRIPOS>SUBSTRUCTURE
     1 5OB         1 TEMP              0 ****  ****    0 ROOT
