@<TRIPOS>MOLECULE
5OB
   19    20     1     0     0
SMALL
bcc


@<TRIPOS>ATOM
      1 N3         -0.0510   -0.0010   -0.0310 na        1 5OB     -0.295300
      2 N1          1.9330    0.0060    1.1310 nc        1 5OB     -0.558100
      3 C2          1.3590    0.0030   -0.0790 cd        1 5OB      0.413700
      4 C7A         0.8630    0.0020    2.0530 ca        1 5OB      0.031400
      5 C3A        -0.3970   -0.0020    1.3230 ca        1 5OB     -0.040200
      6 C4         -1.6280   -0.0060    1.9800 ca        1 5OB     -0.175000
      7 C5         -1.5900   -0.0050    3.3810 ca        1 5OB      0.143100
      8 C6         -0.3780   -0.0010    4.1050 ca        1 5OB     -0.220000
      9 C7          0.8450    0.0030    3.4510 ca        1 5OB     -0.033000
     10 O10        -2.8390   -0.0090    3.9770 os        1 5OB     -0.329900
     11 C11        -2.8620   -0.0080    5.3980 c3        1 5OB      0.114700
     12 H31N       -0.6730   -0.0040   -0.7920 hn        1 5OB      0.306700
     13 H21         1.8970    0.0050   -1.0350 h5        1 5OB      0.067800
     14 H41        -2.5860   -0.0090    1.4460 ha        1 5OB      0.153000
     15 H61        -0.3950   -0.0010    5.2040 ha        1 5OB      0.139000
     16 H71         1.7870    0.0060    4.0190 ha        1 5OB      0.149000
     17 H111       -3.9560   -0.0110    5.6390 h1        1 5OB      0.044367
     18 H112       -2.3680   -0.9240    5.8030 h1        1 5OB      0.044367
     19 H113       -2.3740    0.9120    5.8020 h1        1 5OB      0.044367
@<TRIPOS>BOND
     1    1    3 1   
     2    1    5 1   
     3    1   12 1   
     4    2    3 2   
     5    2    4 1   
     6    3   13 1   
     7    4    5 ar  
     8    4    9 ar  
     9    5    6 ar  
    10    6    7 ar  
    11    6   14 1   
    12    7    8 ar  
    13    7   10 1   
    14    8    9 ar  
    15    8   15 1   
    16    9   16 1   
    17   10   11 1   
    18   11   17 1   
    19   11   18 1   
    20   11   19 1   
@<TRIPOS>SUBSTRUCTURE
     1 5OB         1 TEMP              0 ****  ****    0 ROOT
