@<TRIPOS>MOLECULE
5OB
   19    20     1     0     0
SMALL
bcc


@<TRIPOS>ATOM
      1 N3         -1.2500   -0.0010   -2.2180 na        1 5OB     -0.295300
      2 N1          1.0140    0.0000   -2.6260 nc        1 5OB     -0.558100
      3 C2         -0.2090   -0.0000   -3.1710 cd        1 5OB      0.413700
      4 C7A         0.8000    0.0000   -1.2290 ca        1 5OB      0.031400
      5 C3A        -0.6320   -0.0010   -0.9640 ca        1 5OB     -0.040200
      6 C4         -1.1400   -0.0010    0.3350 ca        1 5OB     -0.174000
      7 C5         -0.2010   -0.0010    1.3740 ca        1 5OB      0.143100
      8 C6          1.1910   -0.0000    1.1370 ca        1 5OB     -0.220000
      9 C7          1.6960    0.0000   -0.1550 ca        1 5OB     -0.033000
     10 O10        -0.7620   -0.0010    2.6390 os        1 5OB     -0.329900
     11 C11         0.1450   -0.0010    3.7350 c3        1 5OB      0.114700
     12 H31N       -2.2170   -0.0010   -2.3920 hn        1 5OB      0.306700
     13 H21        -0.4220   -0.0000   -4.2470 h5        1 5OB      0.067800
     14 H41        -2.2150   -0.0020    0.5520 ha        1 5OB      0.153000
     15 H61         1.8930    0.0000    1.9830 ha        1 5OB      0.139000
     16 H71         2.7800    0.0010   -0.3360 ha        1 5OB      0.149000
     17 H111       -0.5300   -0.0020    4.6280 h1        1 5OB      0.044367
     18 H112        0.7810   -0.9190    3.7220 h1        1 5OB      0.044367
     19 H113        0.7800    0.9180    3.7230 h1        1 5OB      0.044367
@<TRIPOS>BOND
     1    1    3 1   
     2    1    5 1   
     3    1   12 1   
     4    2    3 2   
     5    2    4 1   
     6    3   13 1   
     7    4    5 ar  
     8    4    9 ar  
     9    5    6 ar  
    10    6    7 ar  
    11    6   14 1   
    12    7    8 ar  
    13    7   10 1   
    14    8    9 ar  
    15    8   15 1   
    16    9   16 1   
    17   10   11 1   
    18   11   17 1   
    19   11   18 1   
    20   11   19 1   
@<TRIPOS>SUBSTRUCTURE
     1 5OB         1 TEMP              0 ****  ****    0 ROOT
