@<TRIPOS>MOLECULE
5OC
   33    32     1     0     0
SMALL
bcc


@<TRIPOS>ATOM
      1 P          -3.5900   -1.9050    0.6900 p3        1 5OC      2.548000
      2 N1          1.2940   -0.0930   -0.2720 n         1 5OC     -0.255000
      3 C2          1.0480   -1.3960   -0.8930 c2        1 5OC      0.336000
      4 O2          0.9480   -2.3890   -0.1990 o         1 5OC     -0.428000
      5 N3          1.0190   -1.5190   -2.3560 n2        1 5OC     -0.326000
      6 C4          1.3540   -0.4040   -3.1700 c1        1 5OC      0.174000
      7 N4          1.4650   -0.5590   -4.5870 n2        1 5OC     -0.328000
      8 C5          1.6030    0.9060   -2.5520 c2        1 5OC     -0.108000
      9 O5          2.0030    1.9980   -3.3510 oh        1 5OC     -0.320000
     10 C6          1.5180    1.0530   -1.0910 c2        1 5OC     -0.023000
     11 C1'         1.4990   -0.0060    1.1490 c3        1 5OC      0.146000
     12 C2'         0.9480    1.3650    1.6990 c3        1 5OC     -0.196000
     13 C3'        -0.3280    1.0150    2.4610 c3        1 5OC     -0.009000
     14 O3'        -0.1010    1.1280    3.9180 oh        1 5OC     -0.375000
     15 C4'        -0.5900   -0.2490    2.1290 c3        1 5OC     -0.047000
     16 O4'         0.8150   -0.9170    1.7590 os        1 5OC     -0.299000
     17 C5'        -1.5120   -0.2930    0.9430 c3        1 5OC      0.066000
     18 O5'        -1.9920   -1.6510    0.7540 o         1 5OC     -0.733000
     19 OP1        -3.8640   -3.2480    0.0300 o         1 5OC     -1.248667
     20 OP3        -4.1580   -1.9070    2.0910 o         1 5OC     -1.248667
     21 HN4         1.5940    0.1800   -5.1220 hn        1 5OC      0.194500
     22 HN4A        1.4260   -1.3940   -4.9600 hn        1 5OC      0.194500
     23 H6          1.6830    1.9240   -0.6770 h4        1 5OC      0.283000
     24 H1'         2.4540   -0.0990    1.3620 h2        1 5OC      0.131000
     25 H2'         0.7440    1.9700    0.9570 hc        1 5OC      0.090000
     26 H2'A        1.6030    1.7760    2.3030 hc        1 5OC      0.090000
     27 H3'        -1.0600    1.5980    2.1840 h1        1 5OC      0.186000
     28 HO3'       -0.6030    1.7840    4.2470 ho        1 5OC      0.266000
     29 H4'        -0.9930   -0.7160    2.8830 h1        1 5OC      0.087000
     30 H5'        -2.2710    0.3040    1.0970 h1        1 5OC      0.039500
     31 H5'A       -1.0300   -0.0060    0.1470 h1        1 5OC      0.039500
     32 OP2        -4.2420   -0.8060   -0.1150 o         1 5OC     -1.248667
     33 H13         1.3160    2.5560   -3.4560 ho        1 5OC      0.322000
@<TRIPOS>BOND
     1    1   19 1   
     2    1   20 1   
     3    1   32 1   
     4    2    3 1   
     5    2   10 1   
     6    2   11 1   
     7    3    4 1   
     8    3    5 1   
     9    5    6 1   
    10    6    8 1   
    11    7   21 1   
    12    7   22 1   
    13    8    9 1   
    14    8   10 1   
    15    9   33 1   
    16   10   23 1   
    17   11   12 1   
    18   11   16 1   
    19   11   24 1   
    20   12   13 1   
    21   12   25 1   
    22   12   26 1   
    23   13   14 1   
    24   13   15 1   
    25   13   27 1   
    26   14   28 1   
    27   15   16 1   
    28   15   17 1   
    29   15   29 1   
    30   17   18 1   
    31   17   30 1   
    32   17   31 1   
@<TRIPOS>SUBSTRUCTURE
     1 5OC         1 TEMP              0 ****  ****    0 ROOT
