@<TRIPOS>MOLECULE
5OC
   33    34     1     0     0
SMALL
bcc


@<TRIPOS>ATOM
      1 P           2.1340   -1.3100   -0.2350 p5        1 5OC      1.355900
      2 N1         -2.2850    1.2010    0.2300 n         1 5OC     -0.362000
      3 C2         -3.7050    1.3520    0.3020 c         1 5OC      0.817900
      4 O2         -4.2010    2.5020    0.1690 o         1 5OC     -0.707500
      5 N3         -4.5310    0.2470    0.5580 nc        1 5OC     -0.757100
      6 C4         -3.9740   -0.9730    0.6870 cd        1 5OC      0.704500
      7 N4         -4.7910   -2.1020    0.8180 nh        1 5OC     -0.895800
      8 C5         -2.5310   -1.1510    0.6510 cd        1 5OC     -0.155500
      9 O5         -2.0060   -2.4020    0.8660 oh        1 5OC     -0.567100
     10 C6         -1.7360   -0.0430    0.4230 cc        1 5OC     -0.020400
     11 C1'        -1.4290    2.3250   -0.1670 c3        1 5OC      0.295500
     12 C2'        -0.2700    2.5910    0.8190 c3        1 5OC     -0.118400
     13 C3'         0.9210    1.8590    0.1950 c3        1 5OC      0.103100
     14 O3'         2.1080    2.6030    0.3700 oh        1 5OC     -0.645800
     15 C4'         0.5610    1.7100   -1.2990 c3        1 5OC      0.064100
     16 O4'        -0.8270    2.0930   -1.4460 os        1 5OC     -0.441600
     17 C5'         0.7450    0.2830   -1.8690 c3        1 5OC      0.217400
     18 O5'         1.9720   -0.2520   -1.5900 os        1 5OC     -0.572200
     19 OP1         2.7810   -0.3260    0.7050 o         1 5OC     -0.927833
     20 OP3         0.6840   -1.5720    0.1470 o         1 5OC     -0.927833
     21 HN4        -5.7010   -1.9520    1.1870 hn        1 5OC      0.402300
     22 HN4A       -4.3090   -2.8960    1.1770 hn        1 5OC      0.402300
     23 H6         -0.6110   -0.1860    0.3830 h4        1 5OC      0.289000
     24 H1'        -2.1000    3.2220   -0.3060 h2        1 5OC      0.092700
     25 H2'        -0.0780    3.6900    0.8700 hc        1 5OC      0.050200
     26 H2'A       -0.4780    2.2170    1.8470 hc        1 5OC      0.050200
     27 H3'         1.0710    0.8260    0.6520 h1        1 5OC      0.146700
     28 HO3'        2.8060    1.9240    0.4630 ho        1 5OC      0.466000
     29 H4'         1.1410    2.4490   -1.9120 h1        1 5OC      0.044700
     30 H5'        -0.0860   -0.3790   -1.4970 h1        1 5OC      0.001700
     31 H5'A        0.6380    0.3790   -2.9900 h1        1 5OC      0.001700
     32 OP2         2.9070   -2.4780   -0.7480 o         1 5OC     -0.927833
     33 H13        -1.0450   -2.3670    0.6180 ho        1 5OC      0.523000
@<TRIPOS>BOND
     1    1   18 1   
     2    1   19 1   
     3    1   20 1   
     4    1   32 1   
     5    2    3 1   
     6    2   10 1   
     7    2   11 1   
     8    3    4 2   
     9    3    5 1   
    10    5    6 2   
    11    6    7 1   
    12    6    8 1   
    13    7   21 1   
    14    7   22 1   
    15    8    9 1   
    16    8   10 2   
    17    9   33 1   
    18   10   23 1   
    19   11   12 1   
    20   11   16 1   
    21   11   24 1   
    22   12   13 1   
    23   12   25 1   
    24   12   26 1   
    25   13   14 1   
    26   13   15 1   
    27   13   27 1   
    28   14   28 1   
    29   15   16 1   
    30   15   17 1   
    31   15   29 1   
    32   17   18 1   
    33   17   30 1   
    34   17   31 1   
@<TRIPOS>SUBSTRUCTURE
     1 5OC         1 TEMP              0 ****  ****    0 ROOT
