@<TRIPOS>MOLECULE
5OF
   22    23     1     0     0
SMALL
bcc


@<TRIPOS>ATOM
      1 C10         0.0430    0.0100    0.2610 c2        1 5OF     -0.118000
      2 C13         0.9490   -0.6460   -2.3900 c1        1 5OF     -0.132000
      3 C15         1.3270   -0.3950    0.0970 c2        1 5OF     -0.089000
      4 O01         3.5350   -1.3070    2.7930 os        1 5OF     -0.179000
      5 C02         4.1390   -0.0510    2.5200 c2        1 5OF      0.270000
      6 O03         5.1230    0.2390    3.1800 o         1 5OF     -0.286000
      7 C05         2.3060   -0.5010    1.1710 c2        1 5OF     -0.056000
      8 N06         2.4900   -1.5220    1.9930 n2        1 5OF      0.035000
      9 N07         0.0130    1.1640    2.4660 n2        1 5OF     -0.480000
     10 C08        -0.6290    0.4180    1.5890 c2        1 5OF      0.247000
     11 O09        -1.8290   -0.0010    1.6860 o         1 5OF     -0.532000
     12 C11        -0.8290    0.0620   -0.8930 c2        1 5OF      0.044000
     13 C12        -0.3770   -0.2290   -2.1500 c2        1 5OF     -0.278000
     14 C14         1.8480   -0.7840   -1.2470 c3        1 5OF     -0.180000
     15 H1          2.1550   -1.8720   -1.2230 hc        1 5OF      0.137500
     16 H3          2.8820    1.5540    1.7420 hc        1 5OF      0.154000
     17 H4          3.9730    0.7740    0.5020 hc        1 5OF      0.154000
     18 H5          0.9380    1.3860    2.1710 hn        1 5OF      0.058000
     19 H6         -1.8790    0.3400   -0.6810 ha        1 5OF      0.163000
     20 H7         -1.0540   -0.1570   -3.0150 ha        1 5OF      0.127000
     21 H8          2.7810   -0.1930   -1.4780 hc        1 5OF      0.137500
     22 C04         3.3460    0.5940    1.4070 c3        1 5OF     -0.197000
@<TRIPOS>BOND
     1    1    3 1   
     2    1   10 1   
     3    1   12 1   
     4    2   13 1   
     5    2   14 1   
     6    3    7 1   
     7    3   14 1   
     8    4    5 1   
     9    4    8 1   
    10    5    6 1   
    11    5   22 1   
    12    7    8 1   
    13    7   22 1   
    14    9   10 1   
    15    9   18 1   
    16   10   11 1   
    17   12   13 1   
    18   12   19 1   
    19   13   20 1   
    20   14   15 1   
    21   14   21 1   
    22   16   22 1   
    23   17   22 1   
@<TRIPOS>SUBSTRUCTURE
     1 5OF         1 TEMP              0 ****  ****    0 ROOT
