@<TRIPOS>MOLECULE
5OF
   22    23     1     0     0
SMALL
bcc


@<TRIPOS>ATOM
      1 C10         0.0000    0.1390   -0.0170 ca        1 5OF     -0.147600
      2 C13         1.4110   -0.2380   -2.3850 ca        1 5OF     -0.117000
      3 C15         1.4010   -0.0260    0.0270 ca        1 5OF     -0.100900
      4 O01         4.3280   -1.2220    3.3820 o         1 5OF     -0.832300
      5 C02         4.1950   -0.1260    2.7720 c         1 5OF      0.928600
      6 O03         4.6010    0.9920    3.1900 o         1 5OF     -0.832300
      7 C05         2.0640    0.0090    1.3400 cc        1 5OF      0.408900
      8 N06         1.3760    0.1900    2.4570 nd        1 5OF     -0.397300
      9 N07         0.0570    0.3440    2.4060 n         1 5OF     -0.297900
     10 C08        -0.7330    0.3380    1.2500 c         1 5OF      0.676100
     11 O09        -1.9700    0.4950    1.3410 o         1 5OF     -0.673500
     12 C11        -0.6850    0.1150   -1.2390 ca        1 5OF     -0.079000
     13 C12         0.0200   -0.0730   -2.4190 ca        1 5OF     -0.158000
     14 C14         2.0970   -0.2150   -1.1800 ca        1 5OF     -0.119000
     15 H1          1.9620   -0.3860   -3.3260 ha        1 5OF      0.123000
     16 H3          4.0030    0.6480    0.7470 hc        1 5OF      0.043700
     17 H4          3.7850   -1.1610    0.9020 hc        1 5OF      0.043700
     18 H5         -0.3750    0.4740    3.3000 hn        1 5OF      0.351500
     19 H6         -1.7790    0.2470   -1.2390 ha        1 5OF      0.148000
     20 H7         -0.5100   -0.0930   -3.3820 ha        1 5OF      0.123000
     21 H8          3.1910   -0.3450   -1.1580 ha        1 5OF      0.152000
     22 C04         3.5470   -0.1680    1.3650 c3        1 5OF     -0.244700
@<TRIPOS>BOND
     1    1    3 ar  
     2    1   10 1   
     3    1   12 ar  
     4    2   13 ar  
     5    2   14 ar  
     6    2   15 1   
     7    3    7 1   
     8    3   14 ar  
     9    4    5 1   
    10    5    6 1   
    11    5   22 1   
    12    7    8 2   
    13    7   22 1   
    14    8    9 1   
    15    9   10 1   
    16    9   18 1   
    17   10   11 2   
    18   12   13 ar  
    19   12   19 1   
    20   13   20 1   
    21   14   21 1   
    22   16   22 1   
    23   17   22 1   
@<TRIPOS>SUBSTRUCTURE
     1 5OF         1 TEMP              0 ****  ****    0 ROOT
