@<TRIPOS>MOLECULE
5OH
   24    24     1     0     0
SMALL
bcc


@<TRIPOS>ATOM
      1 C           2.5430    0.0950   -0.0310 c         1 5OH      0.890600
      2 N           1.1690    2.1390    0.5080 n3        1 5OH     -0.909800
      3 O           3.3490    0.8230   -0.6740 o         1 5OH     -0.831800
      4 CA          1.1330    0.6980    0.2970 c3        1 5OH     -0.018500
      5 CB          0.1740    0.2890   -0.8610 c3        1 5OH      0.201500
      6 NP         -1.0480    1.0800   -0.9760 nh        1 5OH     -0.795200
      7 CQ         -2.0550    0.7620   -0.0140 c2        1 5OH      0.768100
      8 NQ         -3.0270    1.7890    0.2530 nh        1 5OH     -0.882800
      9 CR         -0.1470   -1.2050   -0.7460 c3        1 5OH     -0.107400
     10 NR         -2.2070   -0.4190    0.5550 n2        1 5OH     -0.782900
     11 CS         -1.2660   -1.4830    0.2730 c3        1 5OH      0.349300
     12 OS         -1.9380   -2.6500   -0.2290 oh        1 5OH     -0.617800
     13 OXT         2.7870   -1.0710    0.3810 o         1 5OH     -0.831800
     14 HN          1.6980    2.3120    1.3430 hn        1 5OH      0.338800
     15 HNA         1.6910    2.5480   -0.2520 hn        1 5OH      0.338800
     16 HA          0.7600    0.2170    1.2450 h1        1 5OH      0.050700
     17 HP          0.7340    0.4590   -1.8300 h1        1 5OH      0.075700
     18 HNP        -0.8590    2.0590   -1.0600 hn        1 5OH      0.397800
     19 HNQ        -2.5890    2.6440    0.5290 hn        1 5OH      0.377800
     20 HNQA       -3.7080    1.5020    0.9270 hn        1 5OH      0.377800
     21 HR         -0.4630   -1.5990   -1.7460 hc        1 5OH      0.085200
     22 HRA         0.7860   -1.7460   -0.4290 hc        1 5OH      0.085200
     23 HS         -0.8060   -1.7590    1.2730 h2        1 5OH      0.046700
     24 HOS        -2.7210   -2.7950    0.3130 ho        1 5OH      0.394000
@<TRIPOS>BOND
     1    1    3 1   
     2    1    4 1   
     3    1   13 1   
     4    2    4 1   
     5    2   14 1   
     6    2   15 1   
     7    4    5 1   
     8    4   16 1   
     9    5    6 1   
    10    5    9 1   
    11    5   17 1   
    12    6    7 1   
    13    6   18 1   
    14    7    8 1   
    15    7   10 2   
    16    8   19 1   
    17    8   20 1   
    18    9   11 1   
    19    9   21 1   
    20    9   22 1   
    21   10   11 1   
    22   11   12 1   
    23   11   23 1   
    24   12   24 1   
@<TRIPOS>SUBSTRUCTURE
     1 5OH         1 TEMP              0 ****  ****    0 ROOT
