@<TRIPOS>MOLECULE
5OP
   54    54     1     0     0
SMALL
bcc


@<TRIPOS>ATOM
      1 C1          1.3630   -1.7120    0.8980 c3        1 5OP     -0.109100
      2 C2          2.4910   -0.7640    0.5760 c3        1 5OP     -0.059400
      3 C3          3.4570   -0.6750    1.7380 c3        1 5OP     -0.104400
      4 C4          4.6600    0.1780    1.4010 c3        1 5OP     -0.064400
      5 C5          5.6520    0.1680    2.5460 c3        1 5OP     -0.185400
      6 C6          6.8990    0.9370    2.2220 c         1 5OP      0.570300
      7 C7          7.3280    1.9370    3.2240 ce        1 5OP     -0.247200
      8 C8          7.8160    1.6870    4.4400 c2        1 5OP     -0.112200
      9 C9          8.0180    0.3370    5.0320 c3        1 5OP     -0.037500
     10 C10         8.0730    0.3710    6.5770 c3        1 5OP      0.144100
     11 O1          7.3760    1.5070    7.0590 oh        1 5OP     -0.589800
     12 C11         9.5570    0.4210    6.9660 c3        1 5OP     -0.231400
     13 C12        10.3250    0.0020    5.7390 c         1 5OP      0.581100
     14 O2         11.5500   -0.0980    5.6830 o         1 5OP     -0.533100
     15 C13         9.3660   -0.2700    4.5980 c3        1 5OP     -0.160700
     16 C14         9.2820   -1.7740    4.3640 c3        1 5OP     -0.023200
     17 C15         8.2880   -2.1340    3.3260 c2        1 5OP     -0.248200
     18 C16         7.4390   -3.1610    3.4580 c2        1 5OP     -0.113200
     19 C17         6.4230   -3.5320    2.4500 c3        1 5OP     -0.087200
     20 C18         6.2500   -5.0340    2.3240 c3        1 5OP     -0.043400
     21 C19         5.0070   -5.3780    1.5340 c3        1 5OP     -0.197400
     22 C20         3.7240   -5.0680    2.3230 c         1 5OP      0.909600
     23 O3          3.0620   -6.0340    2.7920 o         1 5OP     -0.854800
     24 O4          7.5350    0.7770    1.1720 o         1 5OP     -0.543100
     25 O5          3.3770   -3.8540    2.4610 o         1 5OP     -0.854800
     26 H11         0.7060   -1.2820    1.6920 hc        1 5OP      0.044367
     27 H12         1.7750   -2.6870    1.2760 hc        1 5OP      0.044367
     28 H13A        0.7420   -1.9030   -0.0090 hc        1 5OP      0.044367
     29 H21         3.0380   -1.1310   -0.3330 hc        1 5OP      0.016200
     30 H22         2.0880    0.2540    0.3310 hc        1 5OP      0.016200
     31 H31         3.7830   -1.7200    2.0170 hc        1 5OP      0.074700
     32 H32         2.9290   -0.2470    2.6300 hc        1 5OP      0.074700
     33 H41         4.3380    1.2310    1.1880 hc        1 5OP      0.036700
     34 H42         5.1610   -0.2120    0.4760 hc        1 5OP      0.036700
     35 H51         5.9530   -0.8990    2.7620 hc        1 5OP      0.077200
     36 H52         5.1730    0.5800    3.4710 hc        1 5OP      0.077200
     37 H7          7.2220    2.9780    2.8700 ha        1 5OP      0.139000
     38 H8          8.0970    2.5290    5.0980 ha        1 5OP      0.134000
     39 H9          7.1760   -0.3380    4.7090 hc        1 5OP      0.095700
     40 H10         7.5990   -0.5660    6.9810 h1        1 5OP      0.048700
     41 HO1         7.2850    1.3860    8.0110 ho        1 5OP      0.399000
     42 H111        9.8520    1.4600    7.2630 hc        1 5OP      0.077700
     43 H112        9.7830   -0.2640    7.8190 hc        1 5OP      0.077700
     44 H13         9.7320    0.2270    3.6590 hc        1 5OP      0.095700
     45 H141        9.0390   -2.2850    5.3340 hc        1 5OP      0.045700
     46 H142       10.3000   -2.1320    4.0430 hc        1 5OP      0.045700
     47 H15         8.2960   -1.5060    2.4200 ha        1 5OP      0.133000
     48 H16         7.4440   -3.7840    4.3700 ha        1 5OP      0.113000
     49 H171        5.4210   -3.1000    2.7580 hc        1 5OP      0.080200
     50 H172        6.6750   -3.0950    1.4480 hc        1 5OP      0.080200
     51 H181        6.1740   -5.4940    3.3440 hc        1 5OP      0.018200
     52 H182        7.1550   -5.4730    1.8260 hc        1 5OP      0.018200
     53 H191        4.9900   -4.7970    0.5790 hc        1 5OP      0.026200
     54 H192        5.0200   -6.4680    1.2830 hc        1 5OP      0.026200
@<TRIPOS>BOND
     1    1    2 1   
     2    1   26 1   
     3    1   27 1   
     4    1   28 1   
     5    2    3 1   
     6    2   29 1   
     7    2   30 1   
     8    3    4 1   
     9    3   31 1   
    10    3   32 1   
    11    4    5 1   
    12    4   33 1   
    13    4   34 1   
    14    5    6 1   
    15    5   35 1   
    16    5   36 1   
    17    6    7 1   
    18    6   24 2   
    19    7    8 2   
    20    7   37 1   
    21    8    9 1   
    22    8   38 1   
    23    9   10 1   
    24    9   15 1   
    25    9   39 1   
    26   10   11 1   
    27   10   12 1   
    28   10   40 1   
    29   11   41 1   
    30   12   13 1   
    31   12   42 1   
    32   12   43 1   
    33   13   14 2   
    34   13   15 1   
    35   15   16 1   
    36   15   44 1   
    37   16   17 1   
    38   16   45 1   
    39   16   46 1   
    40   17   18 2   
    41   17   47 1   
    42   18   19 1   
    43   18   48 1   
    44   19   20 1   
    45   19   49 1   
    46   19   50 1   
    47   20   21 1   
    48   20   51 1   
    49   20   52 1   
    50   21   22 1   
    51   21   53 1   
    52   21   54 1   
    53   22   23 1   
    54   22   25 1   
@<TRIPOS>SUBSTRUCTURE
     1 5OP         1 TEMP              0 ****  ****    0 ROOT
