@<TRIPOS>MOLECULE
5OP
   54    52     1     0     0
SMALL
bcc


@<TRIPOS>ATOM
      1 C1          2.8620    4.0790   -6.3310 c3        1 5OP     -0.210000
      2 C2          1.6640    3.2840   -5.8140 c3        1 5OP     -0.159000
      3 C3          2.1520    2.1630   -4.8920 c3        1 5OP     -0.158000
      4 C4          0.9410    1.5290   -4.1670 c3        1 5OP     -0.151000
      5 C5          1.3800    0.2050   -3.4840 c3        1 5OP     -0.208000
      6 C6          0.3580   -0.1710   -2.3800 c2        1 5OP      0.256000
      7 C7         -0.6850   -1.2740   -2.6410 c2        1 5OP     -0.260000
      8 C8         -0.9710   -2.1950   -1.6620 c1        1 5OP     -0.043000
      9 C9         -0.2710   -2.1280   -0.3460 c2        1 5OP     -0.092000
     10 C10         0.3770   -3.2630   -0.1340 c3        1 5OP      0.032000
     11 O1          0.8260   -3.8080   -1.3970 oh        1 5OP     -0.328000
     12 C11        -0.6440   -4.3190    0.5880 c3        1 5OP     -0.260000
     13 C12        -1.3290   -3.5850    1.4440 c2        1 5OP      0.246000
     14 O2         -1.7520   -3.9480    2.5200 o         1 5OP     -0.287000
     15 C13        -1.3820   -2.1190    0.8660 c3        1 5OP     -0.137000
     16 C14        -1.1550   -1.0840    1.8660 c3        1 5OP     -0.114000
     17 C15        -0.7260   -1.7320    3.1820 c2        1 5OP     -0.230000
     18 C16        -0.8190   -1.0250    4.3630 c1        1 5OP     -0.113000
     19 C17        -1.3510    0.4080    4.3560 c2        1 5OP     -0.147000
     20 C18        -1.3180    0.9740    5.7880 c3        1 5OP     -0.143000
     21 C19        -1.4300    2.4960    5.7380 c3        1 5OP     -0.224000
     22 C20        -1.1200    3.0750    7.1210 c2        1 5OP      0.328000
     23 O3         -2.0630    3.4440    7.8770 o         1 5OP     -0.587500
     24 O4          0.3970    0.3880   -1.2970 o         1 5OP     -0.288000
     25 O5          0.0750    3.1480    7.5220 o         1 5OP     -0.587500
     26 H11         3.4820    3.4750   -6.7870 hc        1 5OP      0.071000
     27 H12         3.3180    4.5090   -5.5800 hc        1 5OP      0.071000
     28 H13A        2.5520    4.7640   -6.9590 hc        1 5OP      0.071000
     29 H21         1.0670    3.8800   -5.3160 hc        1 5OP      0.079500
     30 H22         1.1790    2.8940   -6.5730 hc        1 5OP      0.079500
     31 H31         2.7700    2.5300   -4.2320 hc        1 5OP      0.080000
     32 H32         2.6080    1.4820   -5.4210 hc        1 5OP      0.080000
     33 H41         0.6040    2.1510   -3.4870 hc        1 5OP      0.086500
     34 H42         0.2340    1.3410   -4.8180 hc        1 5OP      0.086500
     35 H51         2.2670    0.3230   -3.0820 hc        1 5OP      0.103000
     36 H52         1.4170   -0.5090   -4.1510 hc        1 5OP      0.103000
     37 H7         -1.1420   -1.3180   -3.4980 ha        1 5OP      0.129000
     38 H8         -1.6310   -2.8930   -1.8270 ha        1 5OP      0.133000
     39 H9          0.2660   -1.3240   -0.4620 ha        1 5OP      0.147000
     40 H10         1.1470   -3.0990    0.4460 h1        1 5OP      0.091000
     41 HO1         1.6400   -4.1610   -1.2970 ho        1 5OP      0.199000
     42 H111       -0.2350   -5.0780    1.0670 hc        1 5OP      0.118500
     43 H112       -1.1880   -4.7760   -0.0840 hc        1 5OP      0.118500
     44 H13        -2.2780   -1.8860    0.5400 hc        1 5OP      0.120000
     45 H141       -1.9820   -0.5780    2.0070 hc        1 5OP      0.109500
     46 H142       -0.4540   -0.4820    1.5580 hc        1 5OP      0.109500
     47 H15        -0.3850   -2.6490    3.1870 ha        1 5OP      0.098000
     48 H16        -0.5450   -1.4400    5.2030 ha        1 5OP      0.123000
     49 H171       -0.7920    0.9610    3.7740 ha        1 5OP      0.084000
     50 H172       -2.2700    0.4120    4.0260 ha        1 5OP      0.084000
     51 H181       -0.4720    0.7230    6.2190 hc        1 5OP      0.085500
     52 H182       -2.0680    0.6080    6.3020 hc        1 5OP      0.085500
     53 H191       -2.3350    2.7470    5.4750 hc        1 5OP      0.060000
     54 H192       -0.7890    2.8500    5.0850 hc        1 5OP      0.060000
@<TRIPOS>BOND
     1    1    2 1   
     2    1   26 1   
     3    1   27 1   
     4    1   28 1   
     5    2    3 1   
     6    2   29 1   
     7    2   30 1   
     8    3    4 1   
     9    3   31 1   
    10    3   32 1   
    11    4    5 1   
    12    4   33 1   
    13    4   34 1   
    14    5    6 1   
    15    5   35 1   
    16    5   36 1   
    17    6    7 1   
    18    6   24 1   
    19    7    8 1   
    20    7   37 1   
    21    8   38 1   
    22    9   10 1   
    23    9   15 1   
    24    9   39 1   
    25   10   11 1   
    26   10   12 1   
    27   10   40 1   
    28   11   41 1   
    29   12   13 1   
    30   12   42 1   
    31   12   43 1   
    32   13   14 1   
    33   13   15 1   
    34   15   16 1   
    35   15   44 1   
    36   16   17 1   
    37   16   45 1   
    38   16   46 1   
    39   17   18 1   
    40   17   47 1   
    41   18   48 1   
    42   19   20 1   
    43   19   49 1   
    44   19   50 1   
    45   20   21 1   
    46   20   51 1   
    47   20   52 1   
    48   21   22 1   
    49   21   53 1   
    50   21   54 1   
    51   22   23 1   
    52   22   25 1   
@<TRIPOS>SUBSTRUCTURE
     1 5OP         1 TEMP              0 ****  ****    0 ROOT
