@<TRIPOS>MOLECULE
5OP
   54    54     1     0     0
SMALL
bcc


@<TRIPOS>ATOM
      1 C1          2.2380   -0.7530   -1.4780 c3        1 5OP     -0.089100
      2 C2          3.2580    0.0800   -0.7460 c3        1 5OP     -0.073400
      3 C3          3.3030   -0.2690    0.7260 c3        1 5OP     -0.096400
      4 C4          4.2940    0.6020    1.4700 c3        1 5OP     -0.050400
      5 C5          4.5470    0.0280    2.8450 c3        1 5OP     -0.217400
      6 C6          5.5280    0.8040    3.6540 c         1 5OP      0.595300
      7 C7          5.6410    0.3500    5.0560 ce        1 5OP     -0.245200
      8 C8          6.7060   -0.0160    5.7720 c2        1 5OP     -0.091200
      9 C9          8.1500   -0.1040    5.4400 c3        1 5OP     -0.062500
     10 C10         8.8340    1.2350    5.0660 c3        1 5OP      0.163100
     11 O1          8.1010    2.3900    5.3950 oh        1 5OP     -0.612800
     12 C11         9.1890    1.1470    3.5800 c3        1 5OP     -0.235400
     13 C12         9.2100   -0.3210    3.2490 c         1 5OP      0.587100
     14 O2          9.7860   -0.8020    2.2740 o         1 5OP     -0.537100
     15 C13         8.4640   -1.1020    4.3100 c3        1 5OP     -0.174700
     16 C14         9.3220   -2.2710    4.7780 c3        1 5OP     -0.022200
     17 C15         8.7070   -3.0630    5.8700 c2        1 5OP     -0.199200
     18 C16         7.9000   -4.1170    5.7080 c2        1 5OP     -0.131200
     19 C17         7.4400   -4.6490    4.4050 c3        1 5OP     -0.079200
     20 C18         5.9790   -5.0590    4.4450 c3        1 5OP     -0.044400
     21 C19         5.3420   -4.9800    3.0740 c3        1 5OP     -0.185400
     22 C20         5.0900   -3.5330    2.6470 c         1 5OP      0.904600
     23 O3          6.0730   -2.7300    2.5580 o         1 5OP     -0.858800
     24 O4          6.1640    1.7810    3.2230 o         1 5OP     -0.600100
     25 O5          3.9070   -3.1660    2.3890 o         1 5OP     -0.858800
     26 H11         1.2130   -0.5660   -1.0740 hc        1 5OP      0.025700
     27 H12         2.4660   -1.8400   -1.3590 hc        1 5OP      0.025700
     28 H13A        2.2380   -0.5060   -2.5670 hc        1 5OP      0.025700
     29 H21         4.2710   -0.0860   -1.1980 hc        1 5OP      0.026700
     30 H22         3.0160    1.1690   -0.8710 hc        1 5OP      0.026700
     31 H31         3.5860   -1.3530    0.8640 hc        1 5OP      0.068200
     32 H32         2.2830   -0.1400    1.1730 hc        1 5OP      0.068200
     33 H41         5.2640    0.6500    0.9080 hc        1 5OP      0.030200
     34 H42         3.9090    1.6520    1.5510 hc        1 5OP      0.030200
     35 H51         4.9440   -1.0380    2.7300 hc        1 5OP      0.124700
     36 H52         3.5830   -0.0590    3.4120 hc        1 5OP      0.124700
     37 H7          4.6450    0.2830    5.5380 ha        1 5OP      0.131000
     38 H8          6.5050   -0.3500    6.8110 ha        1 5OP      0.108000
     39 H9          8.6660   -0.4690    6.3760 hc        1 5OP      0.050700
     40 H10         9.7760    1.3400    5.6790 h1        1 5OP      0.055700
     41 HO1         7.2820    2.3800    4.8780 ho        1 5OP      0.431000
     42 H111       10.1730    1.6280    3.3640 hc        1 5OP      0.087700
     43 H112        8.4070    1.6570    2.9560 hc        1 5OP      0.087700
     44 H13         7.5110   -1.5130    3.8500 hc        1 5OP      0.162700
     45 H141       10.3150   -1.8790    5.1310 hc        1 5OP      0.046200
     46 H142        9.5220   -2.9230    3.8830 hc        1 5OP      0.046200
     47 H15         8.9720   -2.7310    6.8870 ha        1 5OP      0.096000
     48 H16         7.5100   -4.6470    6.5950 ha        1 5OP      0.098000
     49 H171        8.0750   -5.5320    4.1250 hc        1 5OP      0.072700
     50 H172        7.5660   -3.8690    3.5970 hc        1 5OP      0.072700
     51 H181        5.8920   -6.1030    4.8480 hc        1 5OP      0.016700
     52 H182        5.4160   -4.3860    5.1440 hc        1 5OP      0.016700
     53 H191        4.3650   -5.5280    3.0840 hc        1 5OP      0.029700
     54 H192        6.0060   -5.4640    2.3140 hc        1 5OP      0.029700
@<TRIPOS>BOND
     1    1    2 1   
     2    1   26 1   
     3    1   27 1   
     4    1   28 1   
     5    2    3 1   
     6    2   29 1   
     7    2   30 1   
     8    3    4 1   
     9    3   31 1   
    10    3   32 1   
    11    4    5 1   
    12    4   33 1   
    13    4   34 1   
    14    5    6 1   
    15    5   35 1   
    16    5   36 1   
    17    6    7 1   
    18    6   24 2   
    19    7    8 2   
    20    7   37 1   
    21    8    9 1   
    22    8   38 1   
    23    9   10 1   
    24    9   15 1   
    25    9   39 1   
    26   10   11 1   
    27   10   12 1   
    28   10   40 1   
    29   11   41 1   
    30   12   13 1   
    31   12   42 1   
    32   12   43 1   
    33   13   14 2   
    34   13   15 1   
    35   15   16 1   
    36   15   44 1   
    37   16   17 1   
    38   16   45 1   
    39   16   46 1   
    40   17   18 2   
    41   17   47 1   
    42   18   19 1   
    43   18   48 1   
    44   19   20 1   
    45   19   49 1   
    46   19   50 1   
    47   20   21 1   
    48   20   51 1   
    49   20   52 1   
    50   21   22 1   
    51   21   53 1   
    52   21   54 1   
    53   22   23 1   
    54   22   25 1   
@<TRIPOS>SUBSTRUCTURE
     1 5OP         1 TEMP              0 ****  ****    0 ROOT
