@<TRIPOS>MOLECULE
5OP
   54    54     1     0     0
SMALL
bcc


@<TRIPOS>ATOM
      1 C1         -0.5510    8.3510   -0.3050 c3        1 5OP     -0.089100
      2 C2         -0.2190    7.0300    0.3390 c3        1 5OP     -0.079400
      3 C3         -0.7290    5.8660   -0.4830 c3        1 5OP     -0.081400
      4 C4         -0.3980    4.5410    0.1700 c3        1 5OP     -0.059400
      5 C5         -0.8860    3.3900   -0.6740 c3        1 5OP     -0.217400
      6 C6         -0.5740    2.0530   -0.0850 c         1 5OP      0.575300
      7 C7         -1.0350    0.9180   -0.9160 ce        1 5OP     -0.215200
      8 C8         -0.8260   -0.3580   -0.5750 c2        1 5OP     -0.166200
      9 C9         -1.2700   -1.5070   -1.4100 c3        1 5OP     -0.066500
     10 C10        -2.1390   -2.5110   -0.6160 c3        1 5OP      0.152100
     11 O1         -2.5500   -2.0670    0.6650 oh        1 5OP     -0.608800
     12 C11        -1.3080   -3.7820   -0.4100 c3        1 5OP     -0.194400
     13 C12        -0.0930   -3.6510   -1.2840 c         1 5OP      0.578100
     14 O2          0.7570   -4.5310   -1.4330 o         1 5OP     -0.549100
     15 C13        -0.0590   -2.2910   -1.9470 c3        1 5OP     -0.156700
     16 C14        -0.0800   -2.4450   -3.4620 c3        1 5OP     -0.028200
     17 C15        -0.1130   -1.1270   -4.1400 c2        1 5OP     -0.194200
     18 C16        -0.9150   -0.8430   -5.1700 c2        1 5OP     -0.145200
     19 C17        -0.9870    0.5020   -5.7920 c3        1 5OP     -0.066200
     20 C18        -2.4030    1.0550   -5.7390 c3        1 5OP     -0.051400
     21 C19        -2.4170    2.5330   -5.4150 c3        1 5OP     -0.186400
     22 C20        -1.9140    2.7760   -3.9890 c         1 5OP      0.903600
     23 O3         -2.7180    2.6210   -3.0200 o         1 5OP     -0.860300
     24 O4          0.0150    1.8920    0.9970 o         1 5OP     -0.595100
     25 O5         -0.7030    3.1080   -3.8180 o         1 5OP     -0.860300
     26 H11        -0.1640    9.1970    0.3130 hc        1 5OP      0.026033
     27 H12        -1.6560    8.4690   -0.4130 hc        1 5OP      0.026033
     28 H13A       -0.0930    8.4170   -1.3220 hc        1 5OP      0.026033
     29 H21        -0.6690    6.9890    1.3660 hc        1 5OP      0.030200
     30 H22         0.8920    6.9410    0.4640 hc        1 5OP      0.030200
     31 H31        -0.2760    5.8980   -1.5100 hc        1 5OP      0.050700
     32 H32        -1.8400    5.9520   -0.6130 hc        1 5OP      0.050700
     33 H41         0.7110    4.4550    0.3170 hc        1 5OP      0.030700
     34 H42        -0.8650    4.4900    1.1890 hc        1 5OP      0.030700
     35 H51        -1.9980    3.4510   -0.8480 hc        1 5OP      0.130200
     36 H52        -0.4500    3.4300   -1.7220 hc        1 5OP      0.130200
     37 H7         -1.5590    1.2250   -1.8510 ha        1 5OP      0.212000
     38 H8         -0.2980   -0.6210    0.3580 ha        1 5OP      0.132000
     39 H9         -1.8740   -1.1210   -2.2790 hc        1 5OP      0.090700
     40 H10        -3.0650   -2.7450   -1.2140 h1        1 5OP      0.036700
     41 HO1        -2.7440   -1.1230    0.5950 ho        1 5OP      0.421000
     42 H111       -1.8920   -4.6950   -0.6810 hc        1 5OP      0.082200
     43 H112       -0.9990   -3.8750    0.6640 hc        1 5OP      0.082200
     44 H13         0.8940   -1.7710   -1.6530 hc        1 5OP      0.091700
     45 H141       -0.9650   -3.0670   -3.7630 hc        1 5OP      0.044200
     46 H142        0.8440   -3.0070   -3.7710 hc        1 5OP      0.044200
     47 H15         0.5590   -0.3610   -3.7170 ha        1 5OP      0.142000
     48 H16        -1.5990   -1.5980   -5.5910 ha        1 5OP      0.100000
     49 H171       -0.6430    0.4350   -6.8580 hc        1 5OP      0.060700
     50 H172       -0.2960    1.2180   -5.2590 hc        1 5OP      0.060700
     51 H181       -2.9130    0.8740   -6.7210 hc        1 5OP      0.022700
     52 H182       -2.9970    0.5170   -4.9520 hc        1 5OP      0.022700
     53 H191       -3.4630    2.9220   -5.5010 hc        1 5OP      0.028200
     54 H192       -1.7700    3.0920   -6.1360 hc        1 5OP      0.028200
@<TRIPOS>BOND
     1    1    2 1   
     2    1   26 1   
     3    1   27 1   
     4    1   28 1   
     5    2    3 1   
     6    2   29 1   
     7    2   30 1   
     8    3    4 1   
     9    3   31 1   
    10    3   32 1   
    11    4    5 1   
    12    4   33 1   
    13    4   34 1   
    14    5    6 1   
    15    5   35 1   
    16    5   36 1   
    17    6    7 1   
    18    6   24 2   
    19    7    8 2   
    20    7   37 1   
    21    8    9 1   
    22    8   38 1   
    23    9   10 1   
    24    9   15 1   
    25    9   39 1   
    26   10   11 1   
    27   10   12 1   
    28   10   40 1   
    29   11   41 1   
    30   12   13 1   
    31   12   42 1   
    32   12   43 1   
    33   13   14 2   
    34   13   15 1   
    35   15   16 1   
    36   15   44 1   
    37   16   17 1   
    38   16   45 1   
    39   16   46 1   
    40   17   18 2   
    41   17   47 1   
    42   18   19 1   
    43   18   48 1   
    44   19   20 1   
    45   19   49 1   
    46   19   50 1   
    47   20   21 1   
    48   20   51 1   
    49   20   52 1   
    50   21   22 1   
    51   21   53 1   
    52   21   54 1   
    53   22   23 1   
    54   22   25 1   
@<TRIPOS>SUBSTRUCTURE
     1 5OP         1 TEMP              0 ****  ****    0 ROOT
