@<TRIPOS>MOLECULE
5OX
   59    58     1     0     0
SMALL
bcc


@<TRIPOS>ATOM
      1 O24        -0.6090   -3.4820   -2.0290 o         1 5OX     -0.848800
      2 C23         0.5930   -3.4220   -1.6380 c         1 5OX      0.909600
      3 O25         1.0830   -4.1640   -0.7410 o         1 5OX     -0.848800
      4 C22         1.5150   -2.3610   -2.2710 c3        1 5OX     -0.198400
      5 C21         1.2610   -2.2300   -3.7530 c3        1 5OX     -0.067400
      6 C20         1.7500   -0.9000   -4.2900 c3        1 5OX     -0.180400
      7 C19         1.4990   -0.7330   -5.7580 c         1 5OX      0.581100
      8 O26         2.3960   -0.3980   -6.5450 o         1 5OX     -0.572100
      9 C18         0.1020   -0.9910   -6.2670 c3        1 5OX     -0.159200
     10 C17        -0.9230   -0.2290   -5.5180 c2        1 5OX     -0.149200
     11 C16        -1.7360    0.6940   -6.0410 c2        1 5OX     -0.189200
     12 C15        -1.7280    1.1300   -7.4580 c3        1 5OX     -0.045200
     13 C14        -2.7730    2.1960   -7.7250 c3        1 5OX     -0.050200
     14 C13        -2.7730    2.6410   -9.1380 c2        1 5OX     -0.161200
     15 C12        -3.7160    3.4270   -9.6710 c2        1 5OX     -0.184200
     16 C11        -4.8830    3.9310   -8.9090 c3        1 5OX     -0.019000
     17 C10        -5.6950    4.9280   -9.6470 c2        1 5OX     -0.164200
     18 C9         -6.8510    5.4230   -9.1910 c2        1 5OX     -0.178200
     19 C8         -7.4570    5.0210   -7.8990 c3        1 5OX     -0.020000
     20 C7         -8.6830    5.7780   -7.5510 c2        1 5OX     -0.171200
     21 C6         -9.3660    5.5950   -6.4140 c2        1 5OX     -0.171200
     22 C5         -8.9720    4.6160   -5.3730 c3        1 5OX     -0.020000
     23 C4         -9.9090    4.5520   -4.2260 c2        1 5OX     -0.177200
     24 C3         -9.7260    3.7530   -3.1690 c2        1 5OX     -0.169200
     25 C2         -8.5690    2.8390   -3.0150 c3        1 5OX     -0.052200
     26 C1         -8.6270    2.0410   -1.7370 c3        1 5OX     -0.092100
     27 H2          2.5820   -2.6310   -2.0760 hc        1 5OX      0.023700
     28 H3          1.3070   -1.3890   -1.7550 hc        1 5OX      0.023700
     29 H4          1.7710   -3.0660   -4.3000 hc        1 5OX      0.050700
     30 H5          0.1550   -2.3380   -3.9300 hc        1 5OX      0.050700
     31 H6          1.2210   -0.0640   -3.7550 hc        1 5OX      0.059700
     32 H7          2.8480   -0.7900   -4.0850 hc        1 5OX      0.059700
     33 H8         -0.1020   -2.0930   -6.1420 hc        1 5OX      0.073200
     34 H9          0.0620   -0.7590   -7.3650 hc        1 5OX      0.073200
     35 H10        -1.0020   -0.4970   -4.4470 ha        1 5OX      0.153000
     36 H11        -2.4830    1.1860   -5.3960 ha        1 5OX      0.118000
     37 H12        -0.7110    1.5270   -7.7260 hc        1 5OX      0.050200
     38 H13        -1.9200    0.2470   -8.1270 hc        1 5OX      0.050200
     39 H14        -2.5830    3.0830   -7.0600 hc        1 5OX      0.048200
     40 H15        -3.7900    1.8000   -7.4530 hc        1 5OX      0.048200
     41 H16        -1.9290    2.2890   -9.7550 ha        1 5OX      0.124000
     42 H17        -3.6570    3.7270  -10.7300 ha        1 5OX      0.118000
     43 H18        -5.5370    3.0580   -8.6200 hc        1 5OX      0.057200
     44 H19        -4.5290    4.3890   -7.9410 hc        1 5OX      0.057200
     45 H20        -5.2940    5.2620  -10.6180 ha        1 5OX      0.121000
     46 H21        -7.4080    6.1670   -9.7830 ha        1 5OX      0.119000
     47 H22        -7.7000    3.9190   -7.9320 hc        1 5OX      0.058200
     48 H23        -6.6960    5.1470   -7.0750 hc        1 5OX      0.058200
     49 H24        -9.0240    6.5240   -8.2870 ha        1 5OX      0.120000
     50 H25       -10.2720    6.1890   -6.2110 ha        1 5OX      0.120000
     51 H26        -8.8860    3.5920   -5.8380 hc        1 5OX      0.058200
     52 H27        -7.9400    4.8730   -4.9950 hc        1 5OX      0.058200
     53 H28       -10.7930    5.2090   -4.2790 ha        1 5OX      0.118000
     54 H29       -10.4580    3.7460   -2.3450 ha        1 5OX      0.120000
     55 H30        -7.6180    3.4390   -3.0420 hc        1 5OX      0.048700
     56 H31        -8.5300    2.1390   -3.8950 hc        1 5OX      0.048700
     57 H32        -9.5490    1.4130   -1.7050 hc        1 5OX      0.036367
     58 H33        -7.7380    1.3690   -1.6640 hc        1 5OX      0.036367
     59 H34        -8.6320    2.7180   -0.8490 hc        1 5OX      0.036367
@<TRIPOS>BOND
     1    1    2 1   
     2    2    3 1   
     3    2    4 1   
     4    4    5 1   
     5    4   27 1   
     6    4   28 1   
     7    5    6 1   
     8    5   29 1   
     9    5   30 1   
    10    6    7 1   
    11    6   31 1   
    12    6   32 1   
    13    7    8 2   
    14    7    9 1   
    15    9   10 1   
    16    9   33 1   
    17    9   34 1   
    18   10   11 2   
    19   10   35 1   
    20   11   12 1   
    21   11   36 1   
    22   12   13 1   
    23   12   37 1   
    24   12   38 1   
    25   13   14 1   
    26   13   39 1   
    27   13   40 1   
    28   14   15 2   
    29   14   41 1   
    30   15   16 1   
    31   15   42 1   
    32   16   17 1   
    33   16   43 1   
    34   16   44 1   
    35   17   18 2   
    36   17   45 1   
    37   18   19 1   
    38   18   46 1   
    39   19   20 1   
    40   19   47 1   
    41   19   48 1   
    42   20   21 2   
    43   20   49 1   
    44   21   22 1   
    45   21   50 1   
    46   22   23 1   
    47   22   51 1   
    48   22   52 1   
    49   23   24 2   
    50   23   53 1   
    51   24   25 1   
    52   24   54 1   
    53   25   26 1   
    54   25   55 1   
    55   25   56 1   
    56   26   57 1   
    57   26   58 1   
    58   26   59 1   
@<TRIPOS>SUBSTRUCTURE
     1 5OX         1 TEMP              0 ****  ****    0 ROOT
