@<TRIPOS>MOLECULE
5P3
   25    26     1     0     0
SMALL
bcc


@<TRIPOS>ATOM
      1 C1          1.4290    0.8880    0.2440 ca        1 5P3     -0.220600
      2 C2          0.0410    0.9790    0.2470 ca        1 5P3     -0.045000
      3 C3         -0.7730   -0.1320   -0.0240 cp        1 5P3     -0.128000
      4 C4         -0.1660   -1.3610   -0.3040 ca        1 5P3     -0.090000
      5 C5          1.2220   -1.4770   -0.3120 ca        1 5P3     -0.060600
      6 C6          2.0390   -0.3550   -0.0370 ca        1 5P3      0.207100
      7 C7          2.2280    2.1470    0.5400 c         1 5P3      0.919200
      8 O8          3.4950    2.0660    0.5780 o         1 5P3     -0.825800
      9 O9          1.5950    3.2190    0.7350 o         1 5P3     -0.825800
     10 O10         3.3870   -0.5470   -0.0620 oh        1 5P3     -0.532100
     11 CL11        1.8930   -3.0100   -0.6670 cl        1 5P3     -0.131400
     12 C12        -2.2270   -0.0090   -0.0200 cp        1 5P3      0.010000
     13 C13        -3.0360   -1.0570    0.4440 ca        1 5P3     -0.130500
     14 C14        -4.4240   -0.9360    0.4410 ca        1 5P3     -0.135000
     15 C15        -5.0260    0.2330   -0.0220 ca        1 5P3     -0.153000
     16 C16        -4.2310    1.2830   -0.4820 ca        1 5P3     -0.135000
     17 C17        -2.8430    1.1650   -0.4830 ca        1 5P3     -0.130500
     18 H2         -0.4060    1.9620    0.4800 ha        1 5P3      0.162000
     19 H4         -0.7870   -2.2410   -0.5310 ha        1 5P3      0.126000
     20 HO10        3.8390    0.3020    0.1510 ho        1 5P3      0.490000
     21 H13        -2.5670   -1.9780    0.8230 ha        1 5P3      0.139000
     22 H14        -5.0450   -1.7640    0.8100 ha        1 5P3      0.118000
     23 H15        -6.1200    0.3280   -0.0230 ha        1 5P3      0.115000
     24 H16        -4.7000    2.2080   -0.8460 ha        1 5P3      0.118000
     25 H17        -2.2190    1.9960   -0.8470 ha        1 5P3      0.139000
@<TRIPOS>BOND
     1    1    2 ar  
     2    1    6 ar  
     3    1    7 1   
     4    2    3 ar  
     5    2   18 1   
     6    3    4 ar  
     7    3   12 1   
     8    4    5 ar  
     9    4   19 1   
    10    5    6 ar  
    11    5   11 1   
    12    6   10 1   
    13    7    8 1   
    14    7    9 1   
    15   10   20 1   
    16   12   13 ar  
    17   12   17 ar  
    18   13   14 ar  
    19   13   21 1   
    20   14   15 ar  
    21   14   22 1   
    22   15   16 ar  
    23   15   23 1   
    24   16   17 ar  
    25   16   24 1   
    26   17   25 1   
@<TRIPOS>SUBSTRUCTURE
     1 5P3         1 TEMP              0 ****  ****    0 ROOT
