@<TRIPOS>MOLECULE
5P3
   25    19     1     0     0
SMALL
bcc


@<TRIPOS>ATOM
      1 C1         -2.2090   -0.0880   -0.9710 c1        1 5P3     -0.200000
      2 C2         -0.8260   -0.0080   -0.9560 c1        1 5P3     -0.085000
      3 C3         -0.1460    0.0140    0.2510 c1        1 5P3     -0.059000
      4 C4         -0.8490   -0.0440    1.4430 c1        1 5P3     -0.090000
      5 C5         -2.2330   -0.1240    1.4280 c1        1 5P3     -0.139000
      6 C6         -2.9120   -0.1460    0.2220 c1        1 5P3      0.162000
      7 C7         -2.9480   -0.1590   -2.2880 c2        1 5P3      0.368000
      8 O8         -3.3170    0.9000   -2.8600 o         1 5P3     -0.560500
      9 O9         -3.1860   -1.2760   -2.8170 o         1 5P3     -0.560500
     10 O10        -4.3170   -0.2370    0.2070 oh        1 5P3     -0.286000
     11 CL11       -3.1180   -0.1810    2.9280 cl        1 5P3     -0.053000
     12 C12         1.2410    0.0440    0.2650 c1        1 5P3     -0.059000
     13 C13         1.9080    1.2580    0.2130 c1        1 5P3     -0.139750
     14 C14         3.2940    1.2860    0.1790 c1        1 5P3     -0.139750
     15 C15         4.0120    0.1000    0.1960 c1        1 5P3     -0.139750
     16 C16         3.3450   -1.1140    0.2480 c1        1 5P3     -0.139750
     17 C17         1.9590   -1.1420    0.2820 c1        1 5P3     -0.085000
     18 H2         -0.3310    0.0330   -1.7950 ha        1 5P3      0.154500
     19 H4         -0.3700   -0.0290    2.2930 ha        1 5P3      0.126000
     20 HO10       -4.6680    0.5710    0.3300 ho        1 5P3      0.289000
     21 H13         1.4030    2.0920    0.1900 ha        1 5P3      0.120500
     22 H14         3.7630    2.1390    0.1470 ha        1 5P3      0.120500
     23 H15         4.9870    0.1200    0.1570 ha        1 5P3      0.120500
     24 H16         3.8500   -1.9490    0.2490 ha        1 5P3      0.120500
     25 H17         1.6700   -2.0580    0.4590 ha        1 5P3      0.154500
@<TRIPOS>BOND
     1    1    6 1   
     2    1    7 1   
     3    2    3 1   
     4    2   18 1   
     5    4    5 1   
     6    4   19 1   
     7    5   11 1   
     8    6   10 1   
     9    7    8 1   
    10    7    9 1   
    11   10   20 1   
    12   12   17 1   
    13   13   14 1   
    14   13   21 1   
    15   14   22 1   
    16   15   16 1   
    17   15   23 1   
    18   16   24 1   
    19   17   25 1   
@<TRIPOS>SUBSTRUCTURE
     1 5P3         1 TEMP              0 ****  ****    0 ROOT
