@<TRIPOS>MOLECULE
5P3
   25    26     1     0     0
SMALL
bcc


@<TRIPOS>ATOM
      1 C1         -0.0200   -0.2520    0.1070 ca        1 5P3     -0.220600
      2 C2          1.3720   -0.2570    0.1070 ca        1 5P3     -0.045000
      3 C3          2.1110    0.0280    1.2650 cp        1 5P3     -0.128000
      4 C4          1.4250    0.3240    2.4490 ca        1 5P3     -0.090000
      5 C5          0.0320    0.3340    2.4730 ca        1 5P3     -0.060600
      6 C6         -0.7090    0.0450    1.3040 ca        1 5P3      0.207100
      7 C7         -0.7350   -0.5640   -1.1980 c         1 5P3      0.919200
      8 O8         -2.0040   -0.6000   -1.2000 o         1 5P3     -0.825800
      9 O9         -0.0330   -0.7720   -2.2230 o         1 5P3     -0.825800
     10 O10        -2.0670    0.0720    1.4060 oh        1 5P3     -0.532100
     11 CL11       -0.7380    0.7080    3.9540 cl        1 5P3     -0.131400
     12 C12         3.5700    0.0220    1.2380 cp        1 5P3      0.010000
     13 C13         4.3080   -0.4290    2.3430 ca        1 5P3     -0.130500
     14 C14         5.7010   -0.4280    2.3130 ca        1 5P3     -0.135000
     15 C15         6.3790    0.0210    1.1800 ca        1 5P3     -0.153000
     16 C16         5.6540    0.4670    0.0750 ca        1 5P3     -0.135000
     17 C17         4.2620    0.4700    0.1010 ca        1 5P3     -0.130500
     18 H2          1.8820   -0.5020   -0.8420 ha        1 5P3      0.162000
     19 H4          1.9880    0.5610    3.3640 ha        1 5P3      0.126000
     20 HO10       -2.4620   -0.1510    0.5330 ho        1 5P3      0.490000
     21 H13         3.7800   -0.7950    3.2360 ha        1 5P3      0.139000
     22 H14         6.2660   -0.7860    3.1850 ha        1 5P3      0.118000
     23 H15         7.4770    0.0200    1.1570 ha        1 5P3      0.115000
     24 H16         6.1840    0.8190   -0.8220 ha        1 5P3      0.118000
     25 H17         3.6940    0.8240   -0.7740 ha        1 5P3      0.139000
@<TRIPOS>BOND
     1    1    2 ar  
     2    1    6 ar  
     3    1    7 1   
     4    2    3 ar  
     5    2   18 1   
     6    3    4 ar  
     7    3   12 1   
     8    4    5 ar  
     9    4   19 1   
    10    5    6 ar  
    11    5   11 1   
    12    6   10 1   
    13    7    8 1   
    14    7    9 1   
    15   10   20 1   
    16   12   13 ar  
    17   12   17 ar  
    18   13   14 ar  
    19   13   21 1   
    20   14   15 ar  
    21   14   22 1   
    22   15   16 ar  
    23   15   23 1   
    24   16   17 ar  
    25   16   24 1   
    26   17   25 1   
@<TRIPOS>SUBSTRUCTURE
     1 5P3         1 TEMP              0 ****  ****    0 ROOT
