@<TRIPOS>MOLECULE
5P3
   25    26     1     0     0
SMALL
bcc


@<TRIPOS>ATOM
      1 C1         -0.0170   -0.2700    0.1050 ca        1 5P3     -0.220600
      2 C2          1.3740   -0.2590    0.1050 ca        1 5P3     -0.045000
      3 C3          2.1110    0.0240    1.2660 cp        1 5P3     -0.128000
      4 C4          1.4220    0.3010    2.4520 ca        1 5P3     -0.090000
      5 C5          0.0280    0.2950    2.4760 ca        1 5P3     -0.060600
      6 C6         -0.7100    0.0080    1.3040 ca        1 5P3      0.207100
      7 C7         -0.7290   -0.5790   -1.2020 c         1 5P3      0.919200
      8 O8         -1.9980   -0.6280   -1.2050 o         1 5P3     -0.825800
      9 O9         -0.0250   -0.7700   -2.2290 o         1 5P3     -0.825800
     10 O10        -2.0680    0.0190    1.4070 oh        1 5P3     -0.532100
     11 Cl11       -0.7460    0.6470    3.9610 cl        1 5P3     -0.131400
     12 C12         3.5690    0.0350    1.2390 cp        1 5P3      0.010000
     13 C13         4.3130   -0.4190    2.3400 ca        1 5P3     -0.130500
     14 C14         5.7050   -0.4020    2.3090 ca        1 5P3     -0.135000
     15 C15         6.3780    0.0650    1.1810 ca        1 5P3     -0.153000
     16 C16         5.6490    0.5130    0.0800 ca        1 5P3     -0.135000
     17 C17         4.2560    0.5000    0.1050 ca        1 5P3     -0.130500
     18 H2          1.8870   -0.4910   -0.8460 ha        1 5P3      0.162000
     19 H4          1.9810    0.5370    3.3690 ha        1 5P3      0.126000
     20 HO10       -2.4610   -0.2000    0.5310 ho        1 5P3      0.490000
     21 H13         3.7880   -0.7990    3.2290 ha        1 5P3      0.139000
     22 H14         6.2750   -0.7610    3.1780 ha        1 5P3      0.118000
     23 H15         7.4760    0.0770    1.1580 ha        1 5P3      0.115000
     24 H16         6.1740    0.8790   -0.8140 ha        1 5P3      0.118000
     25 H17         3.6840    0.8560   -0.7660 ha        1 5P3      0.139000
@<TRIPOS>BOND
     1    1    2 ar  
     2    1    6 ar  
     3    1    7 1   
     4    2    3 ar  
     5    2   18 1   
     6    3    4 ar  
     7    3   12 1   
     8    4    5 ar  
     9    4   19 1   
    10    5    6 ar  
    11    5   11 1   
    12    6   10 1   
    13    7    8 1   
    14    7    9 1   
    15   10   20 1   
    16   12   13 ar  
    17   12   17 ar  
    18   13   14 ar  
    19   13   21 1   
    20   14   15 ar  
    21   14   22 1   
    22   15   16 ar  
    23   15   23 1   
    24   16   17 ar  
    25   16   24 1   
    26   17   25 1   
@<TRIPOS>SUBSTRUCTURE
     1 5P3         1 TEMP              0 ****  ****    0 ROOT
