@<TRIPOS>MOLECULE
5P5
   64    62     1     0     0
SMALL
bcc


@<TRIPOS>ATOM
      1 C1          1.2120    4.1690    0.0370 c3        1 5P5      0.033000
      2 O1          0.7800    2.9850    0.2170 os        1 5P5     -0.740000
      3 P1         -0.3140    2.3770   -0.8520 p5        1 5P5      1.909000
      4 C2          2.8070    4.2270    0.2070 c3        1 5P5     -0.006000
      5 O2          3.3670    3.2930   -0.6300 oh        1 5P5     -0.350000
      6 C3          3.3010    3.9640    1.6270 c3        1 5P5     -0.004000
      7 O3          4.7600    4.1550    1.6570 oh        1 5P5     -0.360000
      8 C4          2.7030    4.8240    2.6170 c3        1 5P5      0.003000
      9 O4          3.2200    6.2260    2.4000 oh        1 5P5     -0.425000
     10 C5          1.2540    4.8620    2.5800 c3        1 5P5      0.055000
     11 O5          0.7460    3.5640    3.0180 os        1 5P5     -0.728000
     12 P5          0.0800    3.4630    4.4220 p5        1 5P5      1.557500
     13 C6          0.6870    5.1610    1.2030 c3        1 5P5      0.014000
     14 O6          1.0270    6.4600    0.8600 oh        1 5P5     -0.394000
     15 C7         -0.7820    0.1020   -2.0710 c3        1 5P5      0.059000
     16 C8         -0.8210   -1.3460   -1.7530 c3        1 5P5     -0.026000
     17 C9         -2.0060   -1.6380   -0.8560 c3        1 5P5     -0.074000
     18 C10        -2.8220   -3.2570    0.6980 c1        1 5P5      0.305000
     19 C11        -2.6240   -4.3650    1.7150 c2        1 5P5     -0.158000
     20 O11        -1.7250    2.6190   -0.3290 o         1 5P5     -0.836500
     21 C12        -3.9100   -4.5960    2.4630 c3        1 5P5     -0.163000
     22 O12        -0.1480    3.0640   -2.1900 o         1 5P5     -0.836500
     23 C13        -3.7380   -5.7570    3.4130 c3        1 5P5     -0.206000
     24 O13        -0.0710    0.8010   -1.0260 os        1 5P5     -0.725000
     25 C14         0.1710   -3.0210   -3.2260 c1        1 5P5      0.313000
     26 O14        -0.9450   -2.1030   -2.9750 o         1 5P5     -0.269000
     27 C15         0.3110   -3.7070   -4.5980 c3        1 5P5     -0.164000
     28 O15        -1.6930   -2.7220   -0.0050 os        1 5P5     -0.248000
     29 C16         0.7520   -5.1690   -4.3950 c3        1 5P5     -0.159000
     30 O16        -3.9260   -2.7660    0.5420 o         1 5P5     -0.401000
     31 C17         0.7660   -5.9030   -5.7530 c3        1 5P5     -0.207000
     32 O17         0.9550   -3.2770   -2.3390 o         1 5P5     -0.389000
     33 O51        -1.3040    4.1260    4.3790 o         1 5P5     -0.923500
     34 O52        -0.0690    2.0000    4.8070 o         1 5P5     -0.923500
     35 O53         0.9440    4.1670    5.4420 o         1 5P5     -0.923500
     36 H1          0.9520    4.4980   -0.8290 h1        1 5P5      0.117000
     37 H2          3.1140    5.1120   -0.0670 h1        1 5P5      0.117000
     38 HO2         3.9310    3.7010   -1.1970 ho        1 5P5      0.207000
     39 H3          3.1040    3.0450    1.8560 h1        1 5P5      0.102000
     40 HO3         5.1530    3.4100    1.9720 ho        1 5P5      0.211000
     41 H4          2.9810    4.5260    3.4910 h1        1 5P5      0.068000
     42 HO4         3.5390    6.5530    3.1770 ho        1 5P5      0.297000
     43 H5          0.9380    5.5550    3.2110 h1        1 5P5      0.090000
     44 H6         -0.2860    5.0960    1.2470 h1        1 5P5      0.082000
     45 HO6         0.2780    6.9510    0.7610 ho        1 5P5      0.280000
     46 H7         -0.3210    0.2360   -2.9300 h1        1 5P5      0.073000
     47 H7A        -1.7010    0.4500   -2.1340 h1        1 5P5      0.073000
     48 H8          0.0340   -1.6090   -1.2790 h1        1 5P5      0.130000
     49 H9         -2.7900   -1.8700   -1.4120 h1        1 5P5      0.169000
     50 H9A        -2.2170   -0.8260   -0.3000 h1        1 5P5      0.169000
     51 H11        -2.3600   -5.1930    1.2520 ha        1 5P5      0.100000
     52 H11A       -1.9360   -4.1110    2.3330 ha        1 5P5      0.100000
     53 H12        -4.1470   -3.7770    2.9780 hc        1 5P5      0.105000
     54 H13        -3.0640   -5.5320    4.0830 hc        1 5P5      0.064000
     55 H13A       -3.4490   -6.5490    2.9120 hc        1 5P5      0.064000
     56 H15        -0.5420   -3.6870   -5.0580 hc        1 5P5      0.112500
     57 H15A        0.9710   -3.2410   -5.1240 hc        1 5P5      0.112500
     58 H16         1.6300   -5.1860   -4.0140 hc        1 5P5      0.092500
     59 H17         1.2640   -5.3640   -6.4140 hc        1 5P5      0.064333
     60 H17A        1.2040   -6.7820   -5.6470 hc        1 5P5      0.064333
     61 H12A       -4.6260   -4.8000    1.8250 hc        1 5P5      0.105000
     62 H13B       -4.5910   -5.9450    3.8580 hc        1 5P5      0.064000
     63 H16A        0.1340   -5.6110   -3.7980 hc        1 5P5      0.092500
     64 H17B       -0.1380   -6.0300   -6.0590 hc        1 5P5      0.064333
@<TRIPOS>BOND
     1    1    2 1   
     2    1    4 1   
     3    1   13 1   
     4    1   36 1   
     5    2    3 1   
     6    3   20 1   
     7    3   22 1   
     8    3   24 1   
     9    4    5 1   
    10    4    6 1   
    11    4   37 1   
    12    5   38 1   
    13    6    7 1   
    14    6    8 1   
    15    6   39 1   
    16    7   40 1   
    17    8    9 1   
    18    8   10 1   
    19    8   41 1   
    20    9   42 1   
    21   10   11 1   
    22   10   13 1   
    23   10   43 1   
    24   11   12 1   
    25   12   33 1   
    26   12   34 1   
    27   12   35 1   
    28   13   14 1   
    29   13   44 1   
    30   14   45 1   
    31   15   16 1   
    32   15   24 1   
    33   15   46 1   
    34   15   47 1   
    35   16   17 1   
    36   16   26 1   
    37   16   48 1   
    38   17   28 1   
    39   17   49 1   
    40   17   50 1   
    41   18   28 1   
    42   18   30 1   
    43   19   21 1   
    44   19   51 1   
    45   19   52 1   
    46   21   23 1   
    47   21   53 1   
    48   21   61 1   
    49   23   54 1   
    50   23   55 1   
    51   23   62 1   
    52   25   27 1   
    53   25   32 1   
    54   27   29 1   
    55   27   56 1   
    56   27   57 1   
    57   29   31 1   
    58   29   58 1   
    59   29   63 1   
    60   31   59 1   
    61   31   60 1   
    62   31   64 1   
@<TRIPOS>SUBSTRUCTURE
     1 5P5         1 TEMP              0 ****  ****    0 ROOT
