@<TRIPOS>MOLECULE
5P5
   64    59     1     0     0
SMALL
bcc


@<TRIPOS>ATOM
      1 C1        111.2630 -140.9120  333.9470 c2        1 5P5     -0.304000
      2 O1        -76.7250   93.2750 -225.0160 o         1 5P5     -1.152333
      3 P1        -76.8800   91.8870 -225.4980 p3        1 5P5      2.461000
      4 C2        111.8180 -139.6480  333.4820 c2        1 5P5      0.020000
      5 O2        115.7820 -138.6820  332.8120 oh        1 5P5     -0.430500
      6 C3        113.0310 -139.3700  333.9620 c1        1 5P5     -0.402000
      7 O3        117.3390 -137.8300  334.7570 oh        1 5P5     -0.430500
      8 C4        113.6800 -139.9730  334.9720 c2        1 5P5      0.127000
      9 O4        115.0330 -140.0400  335.0520 oh        1 5P5     -0.261000
     10 C5        112.7820 -140.6660  335.9890 c3        1 5P5      0.084000
     11 O5        113.5600 -141.5290  336.7460 os        1 5P5     -0.735000
     12 P5        113.2480 -141.6110  338.3920 p5        1 5P5      1.902000
     13 C6        111.6970 -141.3850  335.1560 c2        1 5P5      0.105000
     14 O6        111.0880 -142.4750  335.6850 oh        1 5P5     -0.266000
     15 C7        -76.9480   89.7250 -222.5930 c3        1 5P5      0.005000
     16 C8        -75.8310   88.9820 -221.8460 c3        1 5P5      0.148000
     17 C9        -76.3250   87.8800 -221.0810 c2        1 5P5     -0.579000
     18 C10       -75.8780   87.7700 -218.7620 c2        1 5P5      0.236000
     19 C11       -74.8420   87.3020 -217.7660 c3        1 5P5     -0.177000
     20 O11       -75.6790   91.1100 -225.8870 o         1 5P5     -1.152333
     21 C12       -75.4700   86.8820 -216.4570 c3        1 5P5     -0.157000
     22 O12       -78.2190   91.4170 -225.8990 o         1 5P5     -1.152333
     23 C13       -74.4300   86.5850 -215.4080 c3        1 5P5     -0.205000
     24 O13       -76.4640   90.5660 -223.6310 oh        1 5P5     -0.431000
     25 O14       -74.9740   88.4630 -222.9880 os        1 5P5     -0.344000
     26 C15       -73.3190   88.8970 -224.6350 c3        1 5P5     -0.254000
     27 O15       -75.5610   87.4130 -220.0380 os        1 5P5     -0.131000
     28 C16       -75.8900   96.0650 -223.6560 c2        1 5P5     -0.237000
     29 O16       -76.9250   88.3550 -218.4500 o         1 5P5     -0.422000
     30 C17       -76.1190   97.3260 -224.0000 c2        1 5P5     -0.237000
     31 O17       -73.0790   89.4510 -222.2770 o         1 5P5     -0.440000
     32 O51       113.3310 -140.0170  338.6980 oh        1 5P5     -0.823000
     33 O52       111.8450 -142.0660  338.4040 o         1 5P5     -0.814500
     34 O53       114.4390 -142.1690  339.0450 o         1 5P5     -0.814500
     35 H1        111.2240 -138.9960  332.8350 ha        1 5P5      0.128000
     36 H2        110.4760 -141.4170  333.3800 ha        1 5P5      0.138000
     37 HO2       114.9000 -138.4260  333.1160 ho        1 5P5      0.213000
     38 H3        115.8330 -139.6130  333.0490 ho        1 5P5      0.213000
     39 HO3       117.3290 -137.6750  333.8070 ho        1 5P5      0.213000
     40 H4        116.5460 -138.3570  334.9050 ho        1 5P5      0.213000
     41 HO4       115.2650 -140.5640  335.8410 ho        1 5P5      0.261000
     42 H5        114.1450 -139.7600  339.1180 ho        1 5P5      0.241000
     43 H6        112.2480 -139.9260  336.6580 h1        1 5P5      0.134000
     44 HO6       111.4000 -142.5950  336.6140 ho        1 5P5      0.288000
     45 H7        -75.7880   90.0720 -224.1320 ho        1 5P5      0.257000
     46 H7A       -77.4790   90.4090 -221.8820 h1        1 5P5      0.075500
     47 H8        -77.6740   88.9920 -223.0350 h1        1 5P5      0.075500
     48 H9        -75.1680   89.6810 -221.2740 h1        1 5P5      0.087000
     49 H9A       -77.2770   87.3880 -221.2320 h4        1 5P5      0.109000
     50 H11       -74.2580   86.4560 -218.2110 hc        1 5P5      0.092500
     51 H11A      -74.1330   88.1560 -217.6010 hc        1 5P5      0.092500
     52 H12       -73.8120   87.4910 -215.1980 hc        1 5P5      0.056667
     53 H13       -74.9150   86.2610 -214.4550 hc        1 5P5      0.056667
     54 H13A      -73.7470   85.7700 -215.7500 hc        1 5P5      0.056667
     55 H15       -72.2300   89.1140 -224.7180 hc        1 5P5      0.103667
     56 H15A      -73.5370   87.8870 -225.0540 hc        1 5P5      0.103667
     57 H16       -73.9060   89.6620 -225.2170 hc        1 5P5      0.103667
     58 H17       -76.2660   95.1880 -224.2250 ha        1 5P5      0.117250
     59 H17A      -76.7090   97.5970 -224.8850 ha        1 5P5      0.117250
     60 H12A      -76.1070   85.9740 -216.6260 hc        1 5P5      0.085000
     61 H13B      -76.1540   87.6990 -216.1020 hc        1 5P5      0.085000
     62 H16A      -75.2990   95.8040 -222.7670 ha        1 5P5      0.117250
     63 H17B      -75.7410   98.1830 -223.4280 ha        1 5P5      0.117250
     64 C14       -73.7550   88.9700 -223.2020 c2        1 5P5      0.312000
@<TRIPOS>BOND
     1    1    4 1   
     2    1   13 1   
     3    1   36 1   
     4    2    3 1   
     5    3   20 1   
     6    3   22 1   
     7    4    6 1   
     8    4   35 1   
     9    5   37 1   
    10    5   38 1   
    11    6    8 1   
    12    7   39 1   
    13    7   40 1   
    14    8    9 1   
    15    8   10 1   
    16    9   41 1   
    17   10   11 1   
    18   10   13 1   
    19   10   43 1   
    20   11   12 1   
    21   12   32 1   
    22   12   33 1   
    23   12   34 1   
    24   13   14 1   
    25   14   44 1   
    26   15   16 1   
    27   15   24 1   
    28   15   46 1   
    29   15   47 1   
    30   16   17 1   
    31   16   25 1   
    32   16   48 1   
    33   17   27 1   
    34   17   49 1   
    35   18   19 1   
    36   18   27 1   
    37   18   29 1   
    38   19   21 1   
    39   19   50 1   
    40   19   51 1   
    41   21   23 1   
    42   21   60 1   
    43   21   61 1   
    44   23   52 1   
    45   23   53 1   
    46   23   54 1   
    47   24   45 1   
    48   25   64 1   
    49   26   55 1   
    50   26   56 1   
    51   26   57 1   
    52   26   64 1   
    53   28   30 1   
    54   28   58 1   
    55   28   62 1   
    56   30   59 1   
    57   30   63 1   
    58   31   64 1   
    59   32   42 1   
@<TRIPOS>SUBSTRUCTURE
     1 5P5         1 TEMP              0 ****  ****    0 ROOT
