@<TRIPOS>MOLECULE
5P5
   64    64     1     0     0
SMALL
bcc


@<TRIPOS>ATOM
      1 C1          1.7240    0.0320    0.4100 c3        1 5P5      0.148100
      2 O1          0.5980   -0.7380    0.0460 os        1 5P5     -0.575200
      3 P1         -0.2010   -1.5770    1.1900 p5        1 5P5      1.442800
      4 C2          1.3000    1.5140    0.3180 c3        1 5P5      0.100100
      5 O2          0.5530    1.7940   -0.8650 oh        1 5P5     -0.647800
      6 C3          2.4970    2.4710    0.3790 c3        1 5P5      0.109100
      7 O3          2.0160    3.8100    0.3270 oh        1 5P5     -0.622800
      8 C4          3.4770    2.1600   -0.7600 c3        1 5P5      0.115100
      9 O4          4.4980    3.1320   -0.7670 oh        1 5P5     -0.678800
     10 C5          4.0260    0.7280   -0.5860 c3        1 5P5      0.169100
     11 O5          4.8760    0.4390   -1.6310 os        1 5P5     -0.564200
     12 P5          6.5090    0.1350   -1.1400 p5        1 5P5      1.320900
     13 C6          2.8770   -0.3110   -0.5670 c3        1 5P5      0.131100
     14 O6          3.3790   -1.5800   -0.1940 oh        1 5P5     -0.660800
     15 C7         -2.6600   -0.9850    1.8030 c3        1 5P5      0.204400
     16 C8         -3.8370   -0.5700    0.8910 c3        1 5P5      0.124100
     17 C9         -5.1590   -1.0370    1.4980 c3        1 5P5      0.128400
     18 C10        -7.3560   -1.4690    0.6460 c         1 5P5      0.632100
     19 C11        -8.1600   -1.6770   -0.6050 c3        1 5P5     -0.134400
     20 O11         0.4380   -1.5110    2.5170 o         1 5P5     -0.836000
     21 C12        -9.3460   -2.5810   -0.3510 c3        1 5P5     -0.079400
     22 O12        -0.8360   -2.7900    0.6330 o         1 5P5     -0.836000
     23 C13       -10.2260   -2.6790   -1.5710 c3        1 5P5     -0.090100
     24 O13        -1.4830   -0.4830    1.2910 os        1 5P5     -0.564200
     25 O14        -3.8670    0.8670    0.8670 os        1 5P5     -0.467900
     26 C15        -2.4990    2.5860   -0.0830 c3        1 5P5     -0.155400
     27 O15        -6.0380   -1.3050    0.3860 os        1 5P5     -0.412900
     28 C16        -2.5080    3.5990   -1.2050 c3        1 5P5     -0.063400
     29 O16        -7.7680   -1.4240    1.8110 o         1 5P5     -0.583000
     30 C17        -1.3430    4.5470   -1.0700 c3        1 5P5     -0.102100
     31 O17        -3.9540    1.0540   -1.3570 o         1 5P5     -0.566000
     32 O51         6.8040    1.4580   -0.4710 o         1 5P5     -0.922500
     33 O52         6.2690   -1.0250   -0.2090 o         1 5P5     -0.922500
     34 O53         7.2550   -0.1460   -2.4100 o         1 5P5     -0.922500
     35 H1          2.0270   -0.2140    1.4660 h1        1 5P5      0.084700
     36 H2          0.6000    1.7610    1.1680 h1        1 5P5      0.039700
     37 HO2         0.5620    0.9930   -1.4050 ho        1 5P5      0.427000
     38 H3          3.0080    2.3880    1.3760 h1        1 5P5      0.072700
     39 HO3         1.8890    4.0110   -0.6070 ho        1 5P5      0.393000
     40 H4          2.9290    2.2430   -1.7420 h1        1 5P5      0.021700
     41 HO4         5.3660    2.6530   -0.7280 ho        1 5P5      0.493000
     42 H5          4.5770    0.6740    0.4020 h1        1 5P5      0.056700
     43 H6          2.4430   -0.4040   -1.6020 h1        1 5P5      0.028700
     44 HO6         4.3650   -1.5360   -0.2370 ho        1 5P5      0.482000
     45 H7         -2.8520   -0.5490    2.8260 h1        1 5P5      0.022700
     46 H7A        -2.6340   -2.1100    1.8590 h1        1 5P5      0.022700
     47 H8         -3.7000   -0.9810   -0.1450 h1        1 5P5      0.101700
     48 H9         -5.0280   -1.9930    2.0670 h1        1 5P5      0.057200
     49 H9A        -5.6150   -0.2540    2.1550 h1        1 5P5      0.057200
     50 H11        -8.5020   -0.6660   -0.9530 hc        1 5P5      0.078200
     51 H11A       -7.4980   -2.1040   -1.4040 hc        1 5P5      0.078200
     52 H12        -8.9800   -3.6020   -0.0640 hc        1 5P5      0.051200
     53 H13        -9.6500   -3.0780   -2.4410 hc        1 5P5      0.028033
     54 H13A      -11.0870   -3.3610   -1.3730 hc        1 5P5      0.028033
     55 H15        -2.7040    3.0750    0.9030 hc        1 5P5      0.112700
     56 H15A       -1.4750    2.0950   -0.0090 hc        1 5P5      0.112700
     57 H16        -2.4460    3.0580   -2.1870 hc        1 5P5      0.029700
     58 H17        -1.4420    5.1650   -0.1450 hc        1 5P5      0.040367
     59 H17A       -0.3820    3.9710   -1.0040 hc        1 5P5      0.040367
     60 H12A       -9.9340   -2.1860    0.5190 hc        1 5P5      0.051200
     61 H13B      -10.6280   -1.6750   -1.8490 hc        1 5P5      0.028033
     62 H16A       -3.4750    4.1680   -1.2000 hc        1 5P5      0.029700
     63 H17B       -1.2960    5.2320   -1.9500 hc        1 5P5      0.040367
     64 C14        -3.4640    1.4720   -0.3050 c         1 5P5      0.673100
@<TRIPOS>BOND
     1    1    2 1   
     2    1    4 1   
     3    1   13 1   
     4    1   35 1   
     5    2    3 1   
     6    3   20 1   
     7    3   22 1   
     8    3   24 1   
     9    4    5 1   
    10    4    6 1   
    11    4   36 1   
    12    5   37 1   
    13    6    7 1   
    14    6    8 1   
    15    6   38 1   
    16    7   39 1   
    17    8    9 1   
    18    8   10 1   
    19    8   40 1   
    20    9   41 1   
    21   10   11 1   
    22   10   13 1   
    23   10   42 1   
    24   11   12 1   
    25   12   32 1   
    26   12   33 1   
    27   12   34 1   
    28   13   14 1   
    29   13   43 1   
    30   14   44 1   
    31   15   16 1   
    32   15   24 1   
    33   15   45 1   
    34   15   46 1   
    35   16   17 1   
    36   16   25 1   
    37   16   47 1   
    38   17   27 1   
    39   17   48 1   
    40   17   49 1   
    41   18   19 1   
    42   18   27 1   
    43   18   29 2   
    44   19   21 1   
    45   19   50 1   
    46   19   51 1   
    47   21   23 1   
    48   21   52 1   
    49   21   60 1   
    50   23   53 1   
    51   23   54 1   
    52   23   61 1   
    53   25   64 1   
    54   26   28 1   
    55   26   55 1   
    56   26   56 1   
    57   26   64 1   
    58   28   30 1   
    59   28   57 1   
    60   28   62 1   
    61   30   58 1   
    62   30   59 1   
    63   30   63 1   
    64   31   64 2   
@<TRIPOS>SUBSTRUCTURE
     1 5P5         1 TEMP              0 ****  ****    0 ROOT
