@<TRIPOS>MOLECULE
5P8
   51    54     1     0     0
SMALL
bcc


@<TRIPOS>ATOM
      1 C12        -0.1920    0.1460   -0.0600 ca        1 5P8     -0.075000
      2 C13         1.1770    0.3250   -0.1220 ca        1 5P8     -0.135000
      3 C6         -3.8930   -0.2270    3.6100 ca        1 5P8     -0.160000
      4 C15         1.2580    0.0590    2.2990 ca        1 5P8     -0.182000
      5 C4         -5.1430    0.8770    5.3270 ca        1 5P8      0.437200
      6 C19        -7.0010    1.8770    3.0220 cc        1 5P8      0.039700
      7 C5         -4.9970    0.5630    3.9380 ca        1 5P8     -0.017300
      8 C18        -5.8300    1.0780    2.8920 cd        1 5P8     -0.180300
      9 C11        -0.8570   -0.0840    1.1660 ca        1 5P8     -0.200600
     10 C10        -0.1380   -0.1040    2.3720 ca        1 5P8     -0.002300
     11 C1         -2.8750   -0.4770    4.5390 ca        1 5P8      0.054800
     12 C14         1.9210    0.2640    1.0770 ca        1 5P8      0.221900
     13 C22        -5.5980    1.0280    1.4510 cd        1 5P8      0.246600
     14 C2         -3.1630   -0.1940    5.8970 ca        1 5P8      0.406200
     15 C27        -2.2630   -0.4870    0.9940 c         1 5P8      0.574700
     16 C28        -4.6940    0.1910    0.6070 c3        1 5P8      0.086500
     17 C8         -0.6120   -0.1500    3.8110 c3        1 5P8      0.174400
     18 C9         -0.8350    1.2700    4.2960 c3        1 5P8     -0.133100
     19 N24        -8.3720    2.5350    5.1000 n1        1 5P8     -0.228800
     20 N3         -4.2960    0.4740    6.2750 nb        1 5P8     -0.606000
     21 N21        -6.5510    1.7870    0.8140 nc        1 5P8     -0.436800
     22 N20        -7.3770    2.2730    1.7270 na        1 5P8      0.177400
     23 N26        -3.2450    0.6110    0.5260 n4        1 5P8     -0.599200
     24 N17        -2.2620   -0.6620    6.9630 n4        1 5P8     -0.808300
     25 O30        -2.7080   -1.6220    1.0510 o         1 5P8     -0.389100
     26 O7         -1.6990   -1.0620    4.1120 os        1 5P8     -0.336900
     27 F16         3.2570    0.4070    1.0540 f         1 5P8     -0.078900
     28 H1         -0.7640    0.1500   -1.0040 ha        1 5P8      0.151000
     29 H2          1.6930    0.4950   -1.0830 ha        1 5P8      0.199000
     30 H3         -3.8320   -0.7360    2.6460 ha        1 5P8      0.169000
     31 H4          1.8730    0.0270    3.2170 ha        1 5P8      0.177000
     32 H5         -6.0040    1.4650    5.7070 h4        1 5P8      0.081100
     33 H6         -4.7600   -0.8830    0.9630 hx        1 5P8      0.135700
     34 H7         -5.0800    0.1910   -0.4620 hx        1 5P8      0.135700
     35 H8          0.2240   -0.6340    4.4160 h1        1 5P8      0.100700
     36 H9         -1.6850    1.7530    3.7560 hc        1 5P8      0.063367
     37 H10        -1.0470    1.2880    5.3910 hc        1 5P8      0.063367
     38 H11         0.0900    1.8740    4.1120 hc        1 5P8      0.063367
     39 H12        -9.3050    2.9570    2.2110 h1        1 5P8      0.101033
     40 H13        -8.1950    4.1920    1.4130 h1        1 5P8      0.101033
     41 H14        -8.9440    2.8480    0.4120 h1        1 5P8      0.101033
     42 H15        -1.9020    2.1780    1.0810 hx        1 5P8      0.106033
     43 H16        -3.6200    2.7020    0.7000 hx        1 5P8      0.106033
     44 H17        -3.2610    1.8370    2.2720 hx        1 5P8      0.106033
     45 H18        -1.4450   -1.1100    6.5280 hn        1 5P8      0.481133
     46 H19        -1.9630    0.1220    7.5570 hn        1 5P8      0.481133
     47 C25        -8.5250    3.1180    1.4200 c3        1 5P8      0.011600
     48 C29        -2.9880    1.9090    1.1860 c3        1 5P8      0.088100
     49 H261       -3.0310    0.7340   -0.4760 hn        1 5P8      0.460800
     50 H173       -2.7590   -1.3500    7.5500 hn        1 5P8      0.481133
     51 C23        -7.7400    2.2360    4.1700 cg        1 5P8      0.191800
@<TRIPOS>BOND
     1    1    2 ar  
     2    1    9 ar  
     3    1   28 1   
     4    2   12 ar  
     5    2   29 1   
     6    3    7 ar  
     7    3   11 ar  
     8    3   30 1   
     9    4   10 ar  
    10    4   12 ar  
    11    4   31 1   
    12    5    7 ar  
    13    5   20 ar  
    14    5   32 1   
    15    6    8 2   
    16    6   22 1   
    17    6   51 1   
    18    7    8 1   
    19    8   13 1   
    20    9   10 ar  
    21    9   15 1   
    22   10   17 1   
    23   11   14 ar  
    24   11   26 1   
    25   12   27 1   
    26   13   16 1   
    27   13   21 2   
    28   14   20 ar  
    29   14   24 1   
    30   15   23 1   
    31   15   25 2   
    32   16   23 1   
    33   16   33 1   
    34   16   34 1   
    35   17   18 1   
    36   17   26 1   
    37   17   35 1   
    38   18   36 1   
    39   18   37 1   
    40   18   38 1   
    41   19   51 3   
    42   21   22 1   
    43   22   47 1   
    44   23   48 1   
    45   23   49 1   
    46   24   45 1   
    47   24   46 1   
    48   24   50 1   
    49   39   47 1   
    50   40   47 1   
    51   41   47 1   
    52   42   48 1   
    53   43   48 1   
    54   44   48 1   
@<TRIPOS>SUBSTRUCTURE
     1 5P8         1 TEMP              0 ****  ****    0 ROOT
