@<TRIPOS>MOLECULE
5PA
   36    37     1     0     0
SMALL
bcc


@<TRIPOS>ATOM
      1 C4          0.9800   -0.2060   -0.4600 ca        1 5PA     -0.156300
      2 C4A        -0.3260   -0.5780   -1.1030 c3        1 5PA      0.196100
      3 P          -0.3120   -0.4110    4.5110 p5        1 5PA      1.315900
      4 O1P        -0.4080   -1.8240    3.9950 o         1 5PA     -0.931833
      5 O2P         0.7940   -0.1400    5.4930 o         1 5PA     -0.931833
      6 O3P        -1.6300    0.2570    4.7950 o         1 5PA     -0.931833
      7 O4P         0.2570    0.4620    3.1080 os        1 5PA     -0.568200
      8 C5A        -0.0510   -0.0700    1.8850 c3        1 5PA      0.241700
      9 C5          1.1070    0.0070    0.9170 ca        1 5PA     -0.113600
     10 N1          3.5020    0.4290    0.6700 nb        1 5PA     -0.687000
     11 C6          2.4000    0.3180    1.4190 ca        1 5PA      0.361200
     12 C2          3.3820    0.2320   -0.6690 ca        1 5PA      0.279600
     13 C2A         4.5800    0.3410   -1.5510 c3        1 5PA     -0.102400
     14 C3          2.1340   -0.0840   -1.2670 ca        1 5PA      0.048800
     15 O3          2.1550   -0.2660   -2.6260 oh        1 5PA     -0.546100
     16 N          -0.9140    0.5420   -1.8270 n3        1 5PA     -0.778200
     17 C8         -1.9250    0.1630   -2.7760 cx        1 5PA      0.049200
     18 C7         -1.4080   -0.4170   -4.1140 c         1 5PA      0.951600
     19 O7         -2.1180   -0.2230   -5.1470 o         1 5PA     -0.852800
     20 O8         -0.3340   -1.0830   -4.1400 o         1 5PA     -0.852800
     21 C9         -3.2820   -0.3920   -2.3400 cx        1 5PA     -0.161900
     22 C10        -3.1920    1.0010   -2.8820 cx        1 5PA     -0.161900
     23 H4A1       -0.1480   -1.4150   -1.8420 h1        1 5PA      0.056700
     24 H4A2       -1.0230   -0.9780   -0.3080 h1        1 5PA      0.056700
     25 H5A1       -0.8980    0.5100    1.3990 h1        1 5PA      0.022700
     26 H5A2       -0.3610   -1.1560    1.9900 h1        1 5PA      0.022700
     27 H6          2.5050    0.4870    2.5110 h4        1 5PA      0.067100
     28 H2A1        4.8460   -0.6720   -1.9450 hc        1 5PA      0.018033
     29 H2A2        4.3380    0.9970   -2.4240 hc        1 5PA      0.018033
     30 H2A3        5.4670    0.7610   -1.0170 hc        1 5PA      0.018033
     31 HO3         1.2430   -0.3990   -2.9590 ho        1 5PA      0.482000
     32 HN         -1.2860    1.2020   -1.1680 hn        1 5PA      0.345800
     33 H91        -3.7370   -1.1770   -2.9670 hc        1 5PA      0.056950
     34 H92        -3.4860   -0.5360   -1.2650 hc        1 5PA      0.056950
     35 H101       -3.3470    1.8510   -2.1960 hc        1 5PA      0.056950
     36 H102       -3.5640    1.2000   -3.9040 hc        1 5PA      0.056950
@<TRIPOS>BOND
     1    1    2 1   
     2    1    9 ar  
     3    1   14 ar  
     4    2   16 1   
     5    2   23 1   
     6    2   24 1   
     7    3    4 1   
     8    3    5 1   
     9    3    6 1   
    10    3    7 1   
    11    7    8 1   
    12    8    9 1   
    13    8   25 1   
    14    8   26 1   
    15    9   11 ar  
    16   10   11 ar  
    17   10   12 ar  
    18   11   27 1   
    19   12   13 1   
    20   12   14 ar  
    21   13   28 1   
    22   13   29 1   
    23   13   30 1   
    24   14   15 1   
    25   15   31 1   
    26   16   17 1   
    27   16   32 1   
    28   17   18 1   
    29   17   21 1   
    30   17   22 1   
    31   18   19 1   
    32   18   20 1   
    33   21   22 1   
    34   21   33 1   
    35   21   34 1   
    36   22   35 1   
    37   22   36 1   
@<TRIPOS>SUBSTRUCTURE
     1 5PA         1 TEMP              0 ****  ****    0 ROOT
