@<TRIPOS>MOLECULE
5PA
   37    38     1     0     0
SMALL
bcc


@<TRIPOS>ATOM
      1 C4          0.0770   -0.1030   -0.0720 ca        1 5PA     -0.130300
      2 C4A        -0.6500   -0.0750   -1.3850 c3        1 5PA      0.191100
      3 P           4.7270    0.2050   -2.1180 p5        1 5PA      1.428800
      4 O1P         6.1030    0.1620   -1.5910 o         1 5PA     -0.840500
      5 O2P         4.4120   -1.1180   -3.0290 oh        1 5PA     -0.786400
      6 O3P         4.1270    1.2870   -2.9310 o         1 5PA     -0.840500
      7 O4P         3.7010   -0.1060   -0.8630 os        1 5PA     -0.574200
      8 C5A         2.3460   -0.0620   -1.2070 c3        1 5PA      0.209700
      9 C5          1.4760   -0.0890    0.0100 ca        1 5PA     -0.132600
     10 N1          1.3910   -0.1180    2.4460 nb        1 5PA     -0.674000
     11 C6          2.0720   -0.0970    1.2920 ca        1 5PA      0.364200
     12 C2          0.0400   -0.1250    2.3820 ca        1 5PA      0.328600
     13 C2A        -0.7730   -0.1530    3.6340 c3        1 5PA     -0.118400
     14 C3         -0.6520   -0.1170    1.1370 ca        1 5PA      0.032800
     15 O3         -2.0160   -0.1390    1.2280 oh        1 5PA     -0.533100
     16 N          -1.3430   -1.3230   -1.6930 n7        1 5PA     -0.769200
     17 C8         -2.3650   -1.1450   -2.7040 cx        1 5PA     -0.006800
     18 C7         -3.6790   -0.4640   -2.2700 c         1 5PA      0.922600
     19 O7         -3.7530    0.0200   -1.0990 o         1 5PA     -0.848300
     20 O8         -4.6310   -0.4130   -3.0960 o         1 5PA     -0.848300
     21 C9         -1.9550   -0.9030   -4.1480 cx        1 5PA     -0.118900
     22 C10        -2.5160   -2.2350   -3.7580 cx        1 5PA     -0.118900
     23 H4A1       -1.3630    0.8060   -1.3640 h1        1 5PA      0.053200
     24 H4A2        0.0760    0.1050   -2.2280 h1        1 5PA      0.053200
     25 H5A1        2.1520    0.8800   -1.8000 h1        1 5PA      0.048700
     26 H5A2        2.1150   -0.9550   -1.8570 h1        1 5PA      0.048700
     27 H6          3.1770   -0.0900    1.3710 h4        1 5PA      0.046100
     28 H2A1       -1.5360    0.6640    3.5920 hc        1 5PA      0.034367
     29 H2A2       -1.3160   -1.1290    3.6950 hc        1 5PA      0.034367
     30 H2A3       -0.1500   -0.0260    4.5500 hc        1 5PA      0.034367
     31 HO3        -2.4220    0.0360    0.3510 ho        1 5PA      0.485000
     32 HN          3.7900   -0.9270   -3.7210 ho        1 5PA      0.423000
     33 H91        -2.5890   -0.2130   -4.7330 hc        1 5PA      0.060950
     34 H92        -0.8840   -0.8260   -4.4020 hc        1 5PA      0.060950
     35 H101       -1.8470   -3.1120   -3.7340 hc        1 5PA      0.060950
     36 H102       -3.5490   -2.4840   -4.0620 hc        1 5PA      0.060950
     37 HN3        -1.8020   -1.6620   -0.8620 hn        1 5PA      0.357800
@<TRIPOS>BOND
     1    1    2 1   
     2    1    9 ar  
     3    1   14 ar  
     4    2   16 1   
     5    2   23 1   
     6    2   24 1   
     7    3    4 1   
     8    3    5 1   
     9    3    6 1   
    10    3    7 1   
    11    5   32 1   
    12    7    8 1   
    13    8    9 1   
    14    8   25 1   
    15    8   26 1   
    16    9   11 ar  
    17   10   11 ar  
    18   10   12 ar  
    19   11   27 1   
    20   12   13 1   
    21   12   14 ar  
    22   13   28 1   
    23   13   29 1   
    24   13   30 1   
    25   14   15 1   
    26   15   31 1   
    27   16   17 1   
    28   16   37 1   
    29   17   18 1   
    30   17   21 1   
    31   17   22 1   
    32   18   19 1   
    33   18   20 1   
    34   21   22 1   
    35   21   33 1   
    36   21   34 1   
    37   22   35 1   
    38   22   36 1   
@<TRIPOS>SUBSTRUCTURE
     1 5PA         1 TEMP              0 ****  ****    0 ROOT
