@<TRIPOS>MOLECULE
5PA
   37    38     1     0     0
SMALL
bcc


@<TRIPOS>ATOM
      1 C4          0.0660   -0.0420   -0.1630 ca        1 5PA     -0.124300
      2 C4A        -0.6970    0.0460   -1.4530 c3        1 5PA      0.190100
      3 P           4.7600    0.0660   -1.9600 p5        1 5PA      1.430800
      4 O1P         6.0590    0.6330   -1.5560 o         1 5PA     -0.839000
      5 O2P         4.6330   -1.4880   -1.4720 oh        1 5PA     -0.784400
      6 O3P         4.2000    0.0170   -3.3280 o         1 5PA     -0.839000
      7 O4P         3.6020    0.7370   -0.9860 os        1 5PA     -0.579200
      8 C5A         2.2690    0.4890   -1.3120 c3        1 5PA      0.238700
      9 C5          1.4520    0.1600   -0.0970 ca        1 5PA     -0.153600
     10 N1          1.4420   -0.1830    2.3170 nb        1 5PA     -0.675000
     11 C6          2.0790    0.0790    1.1680 ca        1 5PA      0.370200
     12 C2          0.1020   -0.3670    2.2700 ca        1 5PA      0.332600
     13 C2A        -0.6600   -0.6660    3.5180 c3        1 5PA     -0.119400
     14 C3         -0.6200   -0.2970    1.0440 ca        1 5PA      0.027800
     15 O3         -1.9680   -0.5120    1.1440 oh        1 5PA     -0.537100
     16 N          -1.3340   -1.2060   -1.8490 n3        1 5PA     -0.770200
     17 C8         -2.4020   -0.9960   -2.8040 cx        1 5PA     -0.006800
     18 C7         -3.7120   -0.3710   -2.2840 c         1 5PA      0.922600
     19 O7         -3.7590    0.0320   -1.0810 o         1 5PA     -0.849800
     20 O8         -4.6900   -0.2800   -3.0760 o         1 5PA     -0.849800
     21 C9         -2.0530   -0.6630   -4.2470 cx        1 5PA     -0.118900
     22 C10        -2.5720   -2.0270   -3.9130 cx        1 5PA     -0.118900
     23 H4A1       -1.4540    0.8840   -1.3410 h1        1 5PA      0.054700
     24 H4A2       -0.0070    0.3290   -2.2980 h1        1 5PA      0.054700
     25 H5A1        2.2050   -0.3500   -2.0620 h1        1 5PA      0.039700
     26 H5A2        1.8310    1.4240   -1.7750 h1        1 5PA      0.039700
     27 H6          3.1720    0.2380    1.2400 h4        1 5PA      0.045100
     28 H2A1       -0.0540   -0.4880    4.4390 hc        1 5PA      0.034700
     29 H2A2       -0.9860   -1.7360    3.5010 hc        1 5PA      0.034700
     30 H2A3       -1.5760   -0.0250    3.5500 hc        1 5PA      0.034700
     31 HO3        -2.4250   -0.1690    0.3450 ho        1 5PA      0.485000
     32 HN          4.0440   -1.9870   -2.0260 ho        1 5PA      0.425000
     33 H91        -2.7240    0.0440   -4.7670 hc        1 5PA      0.061450
     34 H92        -0.9950   -0.5480   -4.5360 hc        1 5PA      0.061450
     35 H101       -3.6110   -2.2820   -4.1920 hc        1 5PA      0.061450
     36 H102       -1.8850   -2.8880   -3.9650 hc        1 5PA      0.061450
     37 HN3        -1.7390   -1.6490   -1.0400 hn        1 5PA      0.357800
@<TRIPOS>BOND
     1    1    2 1   
     2    1    9 ar  
     3    1   14 ar  
     4    2   16 1   
     5    2   23 1   
     6    2   24 1   
     7    3    4 1   
     8    3    5 1   
     9    3    6 1   
    10    3    7 1   
    11    5   32 1   
    12    7    8 1   
    13    8    9 1   
    14    8   25 1   
    15    8   26 1   
    16    9   11 ar  
    17   10   11 ar  
    18   10   12 ar  
    19   11   27 1   
    20   12   13 1   
    21   12   14 ar  
    22   13   28 1   
    23   13   29 1   
    24   13   30 1   
    25   14   15 1   
    26   15   31 1   
    27   16   17 1   
    28   16   37 1   
    29   17   18 1   
    30   17   21 1   
    31   17   22 1   
    32   18   19 1   
    33   18   20 1   
    34   21   22 1   
    35   21   33 1   
    36   21   34 1   
    37   22   35 1   
    38   22   36 1   
@<TRIPOS>SUBSTRUCTURE
     1 5PA         1 TEMP              0 ****  ****    0 ROOT
