@<TRIPOS>MOLECULE
5PA
   37    38     1     0     0
SMALL
bcc


@<TRIPOS>ATOM
      1 C4          0.0730   -0.1550   -0.1080 ca        1 5PA     -0.133300
      2 C4A        -0.6640   -0.1310   -1.4150 c3        1 5PA      0.192100
      3 P           4.7710    0.2880   -1.8910 p5        1 5PA      1.429800
      4 O1P         6.0900    0.1380   -1.2500 o         1 5PA     -0.838500
      5 O2P         4.6640   -0.6500   -3.2290 oh        1 5PA     -0.784400
      6 O3P         4.1510    1.5480   -2.3580 o         1 5PA     -0.838500
      7 O4P         3.6680   -0.5120   -0.9560 os        1 5PA     -0.577200
      8 C5A         2.3190   -0.3440   -1.2710 c3        1 5PA      0.217700
      9 C5          1.4720   -0.2400   -0.0390 ca        1 5PA     -0.135600
     10 N1          1.4110   -0.1610    2.3960 nb        1 5PA     -0.672000
     11 C6          2.0800   -0.2390    1.2370 ca        1 5PA      0.362200
     12 C2          0.0630   -0.0730    2.3450 ca        1 5PA      0.328600
     13 C2A        -0.7370    0.0140    3.6020 c3        1 5PA     -0.118400
     14 C3         -0.6420   -0.0700    1.1050 ca        1 5PA      0.033800
     15 O3         -2.0030    0.0110    1.2100 oh        1 5PA     -0.532100
     16 N          -1.3930   -1.3660   -1.6900 n3        1 5PA     -0.770200
     17 C8         -2.4140   -1.1840   -2.7010 cx        1 5PA     -0.006800
     18 C7         -3.7140   -0.4720   -2.2720 c         1 5PA      0.922600
     19 O7         -3.7780    0.0150   -1.1020 o         1 5PA     -0.848300
     20 O8         -4.6630   -0.4040   -3.1000 o         1 5PA     -0.848300
     21 C9         -2.0050   -0.9710   -4.1500 cx        1 5PA     -0.119400
     22 C10        -2.5900   -2.2860   -3.7390 cx        1 5PA     -0.119400
     23 H4A1        0.0580    0.0150   -2.2680 h1        1 5PA      0.051200
     24 H4A2       -1.3530    0.7700   -1.4070 h1        1 5PA      0.051200
     25 H5A1        2.1890    0.5870   -1.8990 h1        1 5PA      0.049700
     26 H5A2        1.9640   -1.2460   -1.8550 h1        1 5PA      0.049700
     27 H6          3.1810   -0.3150    1.3100 h4        1 5PA      0.043100
     28 H2A1       -0.0940    0.0850    4.5120 hc        1 5PA      0.034033
     29 H2A2       -1.3890   -0.8910    3.6850 hc        1 5PA      0.034033
     30 H2A3       -1.4000    0.9130    3.5510 hc        1 5PA      0.034033
     31 HO3        -2.4110    0.1120    0.3240 ho        1 5PA      0.484000
     32 HN          4.0790   -0.2700   -3.8740 ho        1 5PA      0.421000
     33 H91        -0.9340   -0.9180   -4.4090 hc        1 5PA      0.060450
     34 H92        -2.6280   -0.2780   -4.7440 hc        1 5PA      0.060450
     35 H101       -3.6280   -2.5190   -4.0360 hc        1 5PA      0.060450
     36 H102       -1.9380   -3.1750   -3.7040 hc        1 5PA      0.060450
     37 HN3        -1.8590   -1.6690   -0.8490 hn        1 5PA      0.358800
@<TRIPOS>BOND
     1    1    2 1   
     2    1    9 ar  
     3    1   14 ar  
     4    2   16 1   
     5    2   23 1   
     6    2   24 1   
     7    3    4 1   
     8    3    5 1   
     9    3    6 1   
    10    3    7 1   
    11    5   32 1   
    12    7    8 1   
    13    8    9 1   
    14    8   25 1   
    15    8   26 1   
    16    9   11 ar  
    17   10   11 ar  
    18   10   12 ar  
    19   11   27 1   
    20   12   13 1   
    21   12   14 ar  
    22   13   28 1   
    23   13   29 1   
    24   13   30 1   
    25   14   15 1   
    26   15   31 1   
    27   16   17 1   
    28   16   37 1   
    29   17   18 1   
    30   17   21 1   
    31   17   22 1   
    32   18   19 1   
    33   18   20 1   
    34   21   22 1   
    35   21   33 1   
    36   21   34 1   
    37   22   35 1   
    38   22   36 1   
@<TRIPOS>SUBSTRUCTURE
     1 5PA         1 TEMP              0 ****  ****    0 ROOT
