@<TRIPOS>MOLECULE
5PB
   49    52     1     0     0
SMALL
bcc


@<TRIPOS>ATOM
      1 N1          1.7770    3.2160   -0.0600 n2        1 5PB     -0.548300
      2 C2          0.8630    2.2470   -0.2800 cc        1 5PB      0.334800
      3 N3         -0.4590    2.7810   -0.2570 n         1 5PB     -0.277500
      4 C4         -0.3060    4.1750    0.0700 c         1 5PB      0.737500
      5 N5          1.1270    4.3990    0.0550 n         1 5PB     -0.241900
      6 O6         -1.1920    5.0280    0.2030 o         1 5PB     -0.590500
      7 C8         -1.6490    2.0330   -0.1470 ca        1 5PB      0.019600
      8 C9         -2.7220    2.5000    0.6470 ca        1 5PB     -0.105000
      9 C10        -3.8970    1.7710    0.7380 ca        1 5PB     -0.163000
     10 C11        -4.0230    0.5550    0.0400 ca        1 5PB      0.125100
     11 C12        -2.9740    0.0860   -0.7560 ca        1 5PB     -0.163000
     12 C13        -1.7970    0.8250   -0.8560 ca        1 5PB     -0.105000
     13 O18        -5.2330   -0.0850    0.2130 os        1 5PB     -0.322900
     14 C19        -5.3730   -1.3430   -0.4660 c3        1 5PB      0.174700
     15 C20        -6.7290   -1.8810   -0.1480 ca        1 5PB     -0.096300
     16 C23        -7.8160   -1.0290    0.0650 ca        1 5PB     -0.111000
     17 C24        -9.0790   -1.5600    0.3260 ca        1 5PB     -0.131500
     18 C25        -9.2610   -2.9420    0.3690 ca        1 5PB     -0.124000
     19 C26        -8.1770   -3.7950    0.1570 ca        1 5PB     -0.131500
     20 C27        -6.9130   -3.2680   -0.0970 ca        1 5PB     -0.111000
     21 S33         1.1710    0.6090   -0.5790 ss        1 5PB     -0.016300
     22 C34         2.9290    0.5260   -0.3970 c3        1 5PB     -0.169300
     23 C35         3.4260   -0.8780   -0.5730 c         1 5PB      0.599700
     24 O38         2.7010   -1.7960   -0.9730 o         1 5PB     -0.517100
     25 C39         4.8480   -1.1050   -0.2340 ca        1 5PB     -0.178600
     26 C40         5.3030   -2.4270   -0.1190 ca        1 5PB     -0.071500
     27 C41         6.6320   -2.6930    0.2000 ca        1 5PB     -0.139000
     28 C42         7.5180   -1.6300    0.4010 ca        1 5PB      0.046400
     29 C43         7.0780   -0.3070    0.2810 ca        1 5PB     -0.139000
     30 C44         5.7460   -0.0500   -0.0340 ca        1 5PB     -0.071500
     31 CL49        9.1400   -1.9450    0.7890 cl        1 5PB     -0.078400
     32 HN5         1.5130    5.0380    0.7250 hn        1 5PB      0.337500
     33 H9         -2.6410    3.4610    1.1830 ha        1 5PB      0.158500
     34 H10        -4.7350    2.1320    1.3520 ha        1 5PB      0.151000
     35 H12        -3.0580   -0.8570   -1.3150 ha        1 5PB      0.151000
     36 H13        -0.9930    0.4450   -1.5120 ha        1 5PB      0.158500
     37 H19        -5.2740   -1.1760   -1.5730 h1        1 5PB      0.049700
     38 H19A       -4.5680   -2.0430   -0.1160 h1        1 5PB      0.049700
     39 H23        -7.6650    0.0610    0.0350 ha        1 5PB      0.139500
     40 H24        -9.9310   -0.8860    0.4970 ha        1 5PB      0.133500
     41 H25       -10.2580   -3.3600    0.5720 ha        1 5PB      0.132000
     42 H26        -8.3190   -4.8850    0.1940 ha        1 5PB      0.133500
     43 H27        -6.0590   -3.9430   -0.2570 ha        1 5PB      0.139500
     44 H34         3.4270    1.1790   -1.1610 h1        1 5PB      0.107200
     45 H34A        3.2340    0.9000    0.6140 h1        1 5PB      0.107200
     46 H40         4.5950   -3.2560   -0.2870 ha        1 5PB      0.153000
     47 H41         6.9790   -3.7340    0.2910 ha        1 5PB      0.155000
     48 H43         7.7780    0.5280    0.4350 ha        1 5PB      0.155000
     49 H44         5.4150    0.9970   -0.1290 ha        1 5PB      0.153000
@<TRIPOS>BOND
     1    1    2 2   
     2    1    5 1   
     3    2    3 1   
     4    2   21 1   
     5    3    4 1   
     6    3    7 1   
     7    4    5 1   
     8    4    6 2   
     9    5   32 1   
    10    7    8 ar  
    11    7   12 ar  
    12    8    9 ar  
    13    8   33 1   
    14    9   10 ar  
    15    9   34 1   
    16   10   11 ar  
    17   10   13 1   
    18   11   12 ar  
    19   11   35 1   
    20   12   36 1   
    21   13   14 1   
    22   14   15 1   
    23   14   37 1   
    24   14   38 1   
    25   15   16 ar  
    26   15   20 ar  
    27   16   17 ar  
    28   16   39 1   
    29   17   18 ar  
    30   17   40 1   
    31   18   19 ar  
    32   18   41 1   
    33   19   20 ar  
    34   19   42 1   
    35   20   43 1   
    36   21   22 1   
    37   22   23 1   
    38   22   44 1   
    39   22   45 1   
    40   23   24 2   
    41   23   25 1   
    42   25   26 ar  
    43   25   30 ar  
    44   26   27 ar  
    45   26   46 1   
    46   27   28 ar  
    47   27   47 1   
    48   28   29 ar  
    49   28   31 1   
    50   29   30 ar  
    51   29   48 1   
    52   30   49 1   
@<TRIPOS>SUBSTRUCTURE
     1 5PB         1 TEMP              0 ****  ****    0 ROOT
