@<TRIPOS>MOLECULE
5PB
   49    52     1     0     0
SMALL
bcc


@<TRIPOS>ATOM
      1 N1         -0.1890    0.0590    0.0160 n2        1 5PB     -0.548300
      2 C2          1.1210   -0.2660    0.0510 cc        1 5PB      0.334800
      3 N3          1.6070   -0.2670    1.3920 n         1 5PB     -0.277500
      4 C4          0.4980    0.1590    2.2050 c         1 5PB      0.737500
      5 N5         -0.6240    0.2240    1.2880 n         1 5PB     -0.241900
      6 O6          0.4660    0.3080    3.4330 o         1 5PB     -0.590500
      7 C8          2.9640   -0.2610    1.7770 ca        1 5PB      0.019600
      8 C9          3.3950    0.5130    2.8800 ca        1 5PB     -0.105000
      9 C10         4.7260    0.5020    3.2670 ca        1 5PB     -0.163000
     10 C11         5.6560   -0.2810    2.5570 ca        1 5PB      0.125100
     11 C12         5.2420   -1.0580    1.4710 ca        1 5PB     -0.163000
     12 C13         3.9030   -1.0540    1.0890 ca        1 5PB     -0.105000
     13 O18         6.9500   -0.2060    3.0300 os        1 5PB     -0.322900
     14 C19         7.9230   -0.9740    2.3030 c3        1 5PB      0.174700
     15 C20         9.2490   -0.7570    2.9510 ca        1 5PB     -0.096300
     16 C23         9.3570   -0.5390    4.3280 ca        1 5PB     -0.111000
     17 C24        10.6120   -0.3740    4.9120 ca        1 5PB     -0.131500
     18 C25        11.7630   -0.4300    4.1270 ca        1 5PB     -0.124000
     19 C26        11.6580   -0.6460    2.7520 ca        1 5PB     -0.131500
     20 C27        10.4050   -0.8050    2.1630 ca        1 5PB     -0.111000
     21 S33         2.1070   -0.6590   -1.2680 ss        1 5PB     -0.016300
     22 C34         1.0110   -0.4070   -2.6340 c3        1 5PB     -0.169300
     23 C35         1.7060   -0.6560   -3.9400 c         1 5PB      0.599700
     24 O38         2.8400   -1.1440   -4.0080 o         1 5PB     -0.517100
     25 C39         0.9510   -0.2790   -5.1540 ca        1 5PB     -0.178600
     26 C40         1.6330   -0.2430   -6.3790 ca        1 5PB     -0.071500
     27 C41         0.9680    0.1080   -7.5510 ca        1 5PB     -0.139000
     28 C42        -0.3950    0.4200   -7.5010 ca        1 5PB      0.046400
     29 C43        -1.0880    0.3810   -6.2860 ca        1 5PB     -0.139000
     30 C44        -0.4140    0.0330   -5.1180 ca        1 5PB     -0.071500
     31 CL49       -1.2140    0.8480   -8.9240 cl        1 5PB     -0.078400
     32 HN5        -1.3010    0.9510    1.4200 hn        1 5PB      0.337500
     33 H9          2.6710    1.1150    3.4550 ha        1 5PB      0.158500
     34 H10         5.0650    1.0990    4.1260 ha        1 5PB      0.151000
     35 H12         5.9520   -1.6810    0.9100 ha        1 5PB      0.151000
     36 H13         3.5960   -1.6970    0.2440 ha        1 5PB      0.158500
     37 H19         7.9360   -0.6340    1.2320 h1        1 5PB      0.049700
     38 H19A        7.6430   -2.0620    2.3520 h1        1 5PB      0.049700
     39 H23         8.4440   -0.4910    4.9420 ha        1 5PB      0.139500
     40 H24        10.6920   -0.2010    5.9960 ha        1 5PB      0.133500
     41 H25        12.7520   -0.3030    4.5890 ha        1 5PB      0.132000
     42 H26        12.5640   -0.6880    2.1310 ha        1 5PB      0.133500
     43 H27        10.3250   -0.9680    1.0780 ha        1 5PB      0.139500
     44 H34         0.1340   -1.1010   -2.5580 h1        1 5PB      0.107200
     45 H34A        0.6120    0.6400   -2.6250 h1        1 5PB      0.107200
     46 H40         2.7060   -0.4990   -6.4050 ha        1 5PB      0.153000
     47 H41         1.5120    0.1360   -8.5070 ha        1 5PB      0.155000
     48 H43        -2.1610    0.6230   -6.2510 ha        1 5PB      0.155000
     49 H44        -0.9740    0.0030   -4.1700 ha        1 5PB      0.153000
@<TRIPOS>BOND
     1    1    2 2   
     2    1    5 1   
     3    2    3 1   
     4    2   21 1   
     5    3    4 1   
     6    3    7 1   
     7    4    5 1   
     8    4    6 2   
     9    5   32 1   
    10    7    8 ar  
    11    7   12 ar  
    12    8    9 ar  
    13    8   33 1   
    14    9   10 ar  
    15    9   34 1   
    16   10   11 ar  
    17   10   13 1   
    18   11   12 ar  
    19   11   35 1   
    20   12   36 1   
    21   13   14 1   
    22   14   15 1   
    23   14   37 1   
    24   14   38 1   
    25   15   16 ar  
    26   15   20 ar  
    27   16   17 ar  
    28   16   39 1   
    29   17   18 ar  
    30   17   40 1   
    31   18   19 ar  
    32   18   41 1   
    33   19   20 ar  
    34   19   42 1   
    35   20   43 1   
    36   21   22 1   
    37   22   23 1   
    38   22   44 1   
    39   22   45 1   
    40   23   24 2   
    41   23   25 1   
    42   25   26 ar  
    43   25   30 ar  
    44   26   27 ar  
    45   26   46 1   
    46   27   28 ar  
    47   27   47 1   
    48   28   29 ar  
    49   28   31 1   
    50   29   30 ar  
    51   29   48 1   
    52   30   49 1   
@<TRIPOS>SUBSTRUCTURE
     1 5PB         1 TEMP              0 ****  ****    0 ROOT
