@<TRIPOS>MOLECULE
5PB
   49    44     1     0     0
SMALL
bcc


@<TRIPOS>ATOM
      1 N1         -3.7570   -0.2680   -2.5800 n1        1 5PB     -0.127000
      2 C2         -2.6520   -0.5700   -1.9810 c1        1 5PB     -0.183000
      3 N3         -1.6100   -0.8260   -2.8290 n2        1 5PB     -0.210000
      4 C4         -2.2190   -0.6700   -4.2060 c2        1 5PB      0.326000
      5 N5         -3.6710   -0.2780   -3.9300 n2        1 5PB     -0.222000
      6 O6         -1.7960   -1.1340   -5.2120 o         1 5PB     -0.315000
      7 C8         -0.1950   -0.7140   -2.5080 c2        1 5PB      0.025000
      8 C9          0.3900    0.5150   -2.4200 c1        1 5PB     -0.091000
      9 C10         1.7590    0.6220   -2.1460 c1        1 5PB     -0.141000
     10 C11         2.5230   -0.5290   -1.9630 c1        1 5PB      0.081000
     11 C12         1.9300   -1.7720   -2.0520 c1        1 5PB     -0.188000
     12 C13         0.5760   -1.8740   -2.3230 c2        1 5PB     -0.118000
     13 O18         3.9050   -0.4270   -1.7160 os        1 5PB     -0.206000
     14 C19         4.2480   -0.4890   -0.3310 c3        1 5PB      0.017000
     15 C20         5.7470   -0.3090   -0.1690 c2        1 5PB     -0.088000
     16 C23         6.2820    0.9690   -0.0060 c2        1 5PB     -0.100000
     17 C24         7.6690    1.1320    0.1850 c1        1 5PB     -0.131000
     18 C25         8.5070    0.0180    0.2110 c1        1 5PB     -0.127000
     19 C26         7.9700   -1.2660    0.0470 c1        1 5PB     -0.127000
     20 C27         6.5890   -1.4310   -0.1430 c1        1 5PB     -0.123000
     21 S33        -2.3360    0.0130   -0.3060 ss        1 5PB      0.387000
     22 C34        -3.9070    0.3020    0.5500 c3        1 5PB     -0.378000
     23 C35        -3.6470    0.4620    2.0350 c2        1 5PB      0.290000
     24 O38        -2.4820    0.3310    2.4870 o         1 5PB     -0.277000
     25 C39        -4.7850    0.7590    2.9670 c2        1 5PB     -0.158000
     26 C40        -5.1500    2.0670    3.2140 c2        1 5PB     -0.063000
     27 C41        -6.2240    2.3460    4.0450 c1        1 5PB     -0.138000
     28 C42        -6.9370    1.3090    4.6310 c1        1 5PB     -0.033000
     29 C43        -6.5710   -0.0110    4.3830 c1        1 5PB     -0.138000
     30 C44        -5.4970   -0.2860    3.5530 c1        1 5PB     -0.081000
     31 CL49       -8.4050    1.6530    5.5120 cl        1 5PB      0.000000
     32 HN5        -4.3470   -0.3270   -4.5010 hn        1 5PB      0.252000
     33 H9         -0.1500    1.3260   -2.5470 ha        1 5PB      0.169000
     34 H10         2.1830    1.5160   -2.0830 ha        1 5PB      0.158000
     35 H12         2.4810   -2.6060   -1.9200 ha        1 5PB      0.144000
     36 H13         0.1650   -2.7370   -2.3850 ha        1 5PB      0.152000
     37 H19         3.9760   -1.3790    0.0380 h1        1 5PB      0.089000
     38 H19A        3.7690    0.2400    0.1650 h1        1 5PB      0.089000
     39 H23         5.6830    1.7700   -0.0250 ha        1 5PB      0.148000
     40 H24         8.0470    2.0380    0.3000 ha        1 5PB      0.134000
     41 H25         9.4870    0.1360    0.3460 ha        1 5PB      0.132500
     42 H26         8.5650   -2.0550    0.0650 ha        1 5PB      0.132500
     43 H27         6.2200   -2.3150   -0.2550 ha        1 5PB      0.130000
     44 H34        -4.5210   -0.4810    0.3970 h1        1 5PB      0.147000
     45 H34A       -4.3370    1.1440    0.1910 h1        1 5PB      0.147000
     46 H40        -4.6560    2.7880    2.8070 ha        1 5PB      0.162000
     47 H41        -6.4870    3.3020    4.2220 ha        1 5PB      0.156000
     48 H43        -7.0950   -0.7780    4.8160 ha        1 5PB      0.154000
     49 H44        -5.2350   -1.2260    3.3730 ha        1 5PB      0.144000
@<TRIPOS>BOND
     1    1    2 1   
     2    2   21 1   
     3    3    4 1   
     4    3    7 1   
     5    4    5 1   
     6    4    6 1   
     7    5   32 1   
     8    7    8 1   
     9    7   12 1   
    10    8   33 1   
    11    9   10 1   
    12    9   34 1   
    13   10   13 1   
    14   11   12 1   
    15   11   35 1   
    16   12   36 1   
    17   13   14 1   
    18   14   15 1   
    19   14   37 1   
    20   14   38 1   
    21   15   16 1   
    22   15   20 1   
    23   16   17 1   
    24   16   39 1   
    25   17   40 1   
    26   18   19 1   
    27   18   41 1   
    28   19   42 1   
    29   20   43 1   
    30   21   22 1   
    31   22   23 1   
    32   22   44 1   
    33   22   45 1   
    34   23   24 1   
    35   23   25 1   
    36   25   26 1   
    37   25   30 1   
    38   26   27 1   
    39   26   46 1   
    40   27   47 1   
    41   28   29 1   
    42   28   31 1   
    43   29   48 1   
    44   30   49 1   
@<TRIPOS>SUBSTRUCTURE
     1 5PB         1 TEMP              0 ****  ****    0 ROOT
