@<TRIPOS>MOLECULE
5PB
   49    52     1     0     0
SMALL
bcc


@<TRIPOS>ATOM
      1 N1         -0.1890    0.0660    0.0180 n2        1 5PB     -0.548300
      2 C2          1.1200   -0.2620    0.0540 cc        1 5PB      0.334800
      3 N3          1.6060   -0.2620    1.3950 n         1 5PB     -0.277500
      4 C4          0.4990    0.1690    2.2070 c         1 5PB      0.737500
      5 N5         -0.6240    0.2350    1.2910 ns        1 5PB     -0.241900
      6 O6          0.4680    0.3200    3.4350 o         1 5PB     -0.590500
      7 C8          2.9630   -0.2590    1.7790 ca        1 5PB      0.019600
      8 C9          3.3970    0.5160    2.8800 ca        1 5PB     -0.105000
      9 C10         4.7280    0.5020    3.2660 ca        1 5PB     -0.163000
     10 C11         5.6560   -0.2850    2.5570 ca        1 5PB      0.125100
     11 C12         5.2380   -1.0630    1.4730 ca        1 5PB     -0.163000
     12 C13         3.8990   -1.0570    1.0920 ca        1 5PB     -0.105000
     13 O18         6.9500   -0.2120    3.0290 os        1 5PB     -0.322900
     14 C19         7.9200   -0.9830    2.3020 c3        1 5PB      0.174700
     15 C20         9.2480   -0.7670    2.9470 ca        1 5PB     -0.096300
     16 C23         9.3590   -0.5430    4.3230 ca        1 5PB     -0.111000
     17 C24        10.6160   -0.3790    4.9040 ca        1 5PB     -0.131500
     18 C25        11.7650   -0.4410    4.1170 ca        1 5PB     -0.124000
     19 C26        11.6570   -0.6630    2.7440 ca        1 5PB     -0.131500
     20 C27        10.4030   -0.8210    2.1570 ca        1 5PB     -0.111000
     21 S33         2.1040   -0.6600   -1.2650 ss        1 5PB     -0.016300
     22 C34         1.0090   -0.4060   -2.6310 c3        1 5PB     -0.169300
     23 C35         1.7030   -0.6580   -3.9370 c         1 5PB      0.599700
     24 O38         2.8340   -1.1520   -4.0040 o         1 5PB     -0.517100
     25 C39         0.9500   -0.2750   -5.1510 ca        1 5PB     -0.178600
     26 C40         1.6350   -0.2360   -6.3750 ca        1 5PB     -0.071500
     27 C41         0.9720    0.1200   -7.5460 ca        1 5PB     -0.139000
     28 C42        -0.3900    0.4350   -7.4980 ca        1 5PB      0.046400
     29 C43        -1.0850    0.3930   -6.2840 ca        1 5PB     -0.139000
     30 C44        -0.4140    0.0390   -5.1160 ca        1 5PB     -0.071500
     31 Cl49       -1.2070    0.8690   -8.9200 cl        1 5PB     -0.078400
     32 HN5        -1.2980    0.9650    1.4220 hn        1 5PB      0.337500
     33 H9          2.6750    1.1210    3.4540 ha        1 5PB      0.158500
     34 H10         5.0700    1.1000    4.1230 ha        1 5PB      0.151000
     35 H12         5.9470   -1.6900    0.9130 ha        1 5PB      0.151000
     36 H13         3.5900   -1.7010    0.2490 ha        1 5PB      0.158500
     37 H19         7.6390   -2.0710    2.3540 h1        1 5PB      0.049700
     38 H19A        7.9320   -0.6460    1.2300 h1        1 5PB      0.049700
     39 H23         8.4480   -0.4890    4.9390 ha        1 5PB      0.139500
     40 H24        10.6980   -0.2000    5.9860 ha        1 5PB      0.133500
     41 H25        12.7560   -0.3130    4.5770 ha        1 5PB      0.132000
     42 H26        12.5620   -0.7100    2.1210 ha        1 5PB      0.133500
     43 H27        10.3210   -0.9890    1.0730 ha        1 5PB      0.139500
     44 H34         0.6120    0.6420   -2.6220 h1        1 5PB      0.107200
     45 H34A        0.1300   -1.0990   -2.5550 h1        1 5PB      0.107200
     46 H40         2.7070   -0.4950   -6.4000 ha        1 5PB      0.153000
     47 H41         1.5180    0.1500   -8.5010 ha        1 5PB      0.155000
     48 H43        -2.1580    0.6370   -6.2490 ha        1 5PB      0.155000
     49 H44        -0.9750    0.0070   -4.1690 ha        1 5PB      0.153000
@<TRIPOS>BOND
     1    1    2 2   
     2    1    5 1   
     3    2    3 1   
     4    2   21 1   
     5    3    4 1   
     6    3    7 1   
     7    4    5 1   
     8    4    6 2   
     9    5   32 1   
    10    7    8 ar  
    11    7   12 ar  
    12    8    9 ar  
    13    8   33 1   
    14    9   10 ar  
    15    9   34 1   
    16   10   11 ar  
    17   10   13 1   
    18   11   12 ar  
    19   11   35 1   
    20   12   36 1   
    21   13   14 1   
    22   14   15 1   
    23   14   37 1   
    24   14   38 1   
    25   15   16 ar  
    26   15   20 ar  
    27   16   17 ar  
    28   16   39 1   
    29   17   18 ar  
    30   17   40 1   
    31   18   19 ar  
    32   18   41 1   
    33   19   20 ar  
    34   19   42 1   
    35   20   43 1   
    36   21   22 1   
    37   22   23 1   
    38   22   44 1   
    39   22   45 1   
    40   23   24 2   
    41   23   25 1   
    42   25   26 ar  
    43   25   30 ar  
    44   26   27 ar  
    45   26   46 1   
    46   27   28 ar  
    47   27   47 1   
    48   28   29 ar  
    49   28   31 1   
    50   29   30 ar  
    51   29   48 1   
    52   30   49 1   
@<TRIPOS>SUBSTRUCTURE
     1 5PB         1 TEMP              0 ****  ****    0 ROOT
