@<TRIPOS>MOLECULE
5PB
   49    52     1     0     0
SMALL
bcc


@<TRIPOS>ATOM
      1 N1         -0.1890    0.0810    0.0170 n2        1 5PB     -0.548300
      2 C2          1.1190   -0.2520    0.0540 cc        1 5PB      0.334800
      3 N3          1.6050   -0.2480    1.3950 n         1 5PB     -0.277500
      4 C4          0.5000    0.1910    2.2060 c         1 5PB      0.737500
      5 N5         -0.6230    0.2580    1.2890 n         1 5PB     -0.241900
      6 O6          0.4690    0.3490    3.4320 o         1 5PB     -0.590500
      7 C8          2.9620   -0.2490    1.7790 ca        1 5PB      0.019600
      8 C9          3.4000    0.5300    2.8760 ca        1 5PB     -0.105000
      9 C10         4.7300    0.5120    3.2620 ca        1 5PB     -0.163000
     10 C11         5.6550   -0.2810    2.5570 ca        1 5PB      0.125100
     11 C12         5.2340   -1.0630    1.4770 ca        1 5PB     -0.163000
     12 C13         3.8950   -1.0530    1.0960 ca        1 5PB     -0.105000
     13 O18         6.9500   -0.2120    3.0270 os        1 5PB     -0.322900
     14 C19         7.9170   -0.9900    2.3040 c3        1 5PB      0.174700
     15 C20         9.2460   -0.7760    2.9480 ca        1 5PB     -0.096300
     16 C23         9.3570   -0.5460    4.3230 ca        1 5PB     -0.111000
     17 C24        10.6150   -0.3840    4.9030 ca        1 5PB     -0.131500
     18 C25        11.7640   -0.4550    4.1160 ca        1 5PB     -0.124000
     19 C26        11.6550   -0.6820    2.7440 ca        1 5PB     -0.131500
     20 C27        10.4000   -0.8390    2.1580 ca        1 5PB     -0.111000
     21 S33         2.1010   -0.6610   -1.2620 ss        1 5PB     -0.016300
     22 C34         1.0070   -0.4070   -2.6300 c3        1 5PB     -0.169300
     23 C35         1.7010   -0.6660   -3.9350 c         1 5PB      0.599700
     24 O38         2.8290   -1.1680   -4.0000 o         1 5PB     -0.517100
     25 C39         0.9510   -0.2810   -5.1500 ca        1 5PB     -0.178600
     26 C40         1.6370   -0.2450   -6.3730 ca        1 5PB     -0.071500
     27 C41         0.9780    0.1130   -7.5450 ca        1 5PB     -0.139000
     28 C42        -0.3830    0.4330   -7.4990 ca        1 5PB      0.046400
     29 C43        -1.0800    0.3940   -6.2860 ca        1 5PB     -0.139000
     30 C44        -0.4120    0.0390   -5.1170 ca        1 5PB     -0.071500
     31 CL49       -1.1960    0.8710   -8.9230 cl        1 5PB     -0.078400
     32 HN5        -1.2940    0.9910    1.4170 hn        1 5PB      0.337500
     33 H9          2.6800    1.1410    3.4480 ha        1 5PB      0.158500
     34 H10         5.0750    1.1140    4.1160 ha        1 5PB      0.151000
     35 H12         5.9400   -1.6960    0.9200 ha        1 5PB      0.151000
     36 H13         3.5830   -1.7000    0.2560 ha        1 5PB      0.158500
     37 H19         7.6300   -2.0760    2.3610 h1        1 5PB      0.049700
     38 H19A        7.9290   -0.6580    1.2310 h1        1 5PB      0.049700
     39 H23         8.4470   -0.4860    4.9390 ha        1 5PB      0.139500
     40 H24        10.6980   -0.2010    5.9850 ha        1 5PB      0.133500
     41 H25        12.7550   -0.3290    4.5750 ha        1 5PB      0.132000
     42 H26        12.5600   -0.7360    2.1210 ha        1 5PB      0.133500
     43 H27        10.3170   -1.0120    1.0750 ha        1 5PB      0.139500
     44 H34         0.6140    0.6420   -2.6250 h1        1 5PB      0.107200
     45 H34A        0.1250   -1.0960   -2.5510 h1        1 5PB      0.107200
     46 H40         2.7090   -0.5080   -6.3970 ha        1 5PB      0.153000
     47 H41         1.5250    0.1410   -8.5000 ha        1 5PB      0.155000
     48 H43        -2.1520    0.6420   -6.2530 ha        1 5PB      0.155000
     49 H44        -0.9740    0.0090   -4.1710 ha        1 5PB      0.153000
@<TRIPOS>BOND
     1    1    2 2   
     2    1    5 1   
     3    2    3 1   
     4    2   21 1   
     5    3    4 1   
     6    3    7 1   
     7    4    5 1   
     8    4    6 2   
     9    5   32 1   
    10    7    8 ar  
    11    7   12 ar  
    12    8    9 ar  
    13    8   33 1   
    14    9   10 ar  
    15    9   34 1   
    16   10   11 ar  
    17   10   13 1   
    18   11   12 ar  
    19   11   35 1   
    20   12   36 1   
    21   13   14 1   
    22   14   15 1   
    23   14   37 1   
    24   14   38 1   
    25   15   16 ar  
    26   15   20 ar  
    27   16   17 ar  
    28   16   39 1   
    29   17   18 ar  
    30   17   40 1   
    31   18   19 ar  
    32   18   41 1   
    33   19   20 ar  
    34   19   42 1   
    35   20   43 1   
    36   21   22 1   
    37   22   23 1   
    38   22   44 1   
    39   22   45 1   
    40   23   24 2   
    41   23   25 1   
    42   25   26 ar  
    43   25   30 ar  
    44   26   27 ar  
    45   26   46 1   
    46   27   28 ar  
    47   27   47 1   
    48   28   29 ar  
    49   28   31 1   
    50   29   30 ar  
    51   29   48 1   
    52   30   49 1   
@<TRIPOS>SUBSTRUCTURE
     1 5PB         1 TEMP              0 ****  ****    0 ROOT
