@<TRIPOS>MOLECULE
5PC
   37    36     1     0     0
SMALL
bcc


@<TRIPOS>ATOM
      1 OP3        -0.9670   -0.7360    5.6740 o         1 5PC     -0.925833
      2 P          -0.7920   -0.9940    4.1950 p5        1 5PC      1.570500
      3 OP1        -0.1160   -2.3250    3.9960 o         1 5PC     -0.925833
      4 OP2        -2.1570   -1.0100    3.5160 o         1 5PC     -0.925833
      5 C5'         0.3890    0.0920    2.1880 c3        1 5PC      0.054000
      6 O5'         0.0960    0.1490    3.5640 os        1 5PC     -0.740000
      7 C4'         1.8650    0.4520    1.9670 c3        1 5PC     -0.050000
      8 O4'         2.2960    0.1270    0.4460 os        1 5PC     -0.294000
      9 C3'         2.0400    1.7060    2.1310 c3        1 5PC      0.006000
     10 O3'         3.4210    1.9710    2.6670 oh        1 5PC     -0.386000
     11 C2'         1.8800    2.3300    0.7040 c3        1 5PC     -0.201000
     12 C1'         1.8970    1.1380   -0.2670 c3        1 5PC      0.146000
     13 N1          0.5830    0.8930   -0.7780 n         1 5PC     -0.260000
     14 C2         -0.3840    1.9720   -0.8380 c2        1 5PC      0.343000
     15 O2         -0.0270    3.1290   -0.6050 o         1 5PC     -0.413000
     16 N3         -1.7270    1.7160   -1.3410 n2        1 5PC     -0.340000
     17 C4         -2.0150    0.5050   -1.9830 c1        1 5PC      0.208000
     18 N4         -3.2230    0.3720   -2.7570 n2        1 5PC     -0.341000
     19 C5         -1.0100   -0.5710   -1.9950 c2        1 5PC     -0.180000
     20 C6          0.2700   -0.3680   -1.3350 c2        1 5PC      0.099000
     21 C7         -1.2470   -1.8330   -2.8220 c1        1 5PC     -0.196000
     22 C8         -1.4310   -2.8210   -3.4690 c1        1 5PC     -0.084000
     23 C9         -1.6650   -4.0840   -4.2950 c2        1 5PC     -0.162000
     24 H5'        -0.1820    0.7300    1.7040 h1        1 5PC      0.057000
     25 H5''        0.2180   -0.8220    1.8520 h1        1 5PC      0.057000
     26 H4'         2.4360   -0.0550    2.5970 h1        1 5PC      0.075000
     27 H3'         1.3730    2.0630    2.7290 h1        1 5PC      0.188000
     28 HO3'        3.4140    2.7200    3.1550 ho        1 5PC      0.280000
     29 H2'         1.0310    2.8080    0.6370 hc        1 5PC      0.089500
     30 H2''        2.6320    2.9380    0.5110 hc        1 5PC      0.089500
     31 H1'         2.5260    1.3070   -1.0070 h2        1 5PC      0.127000
     32 H41        -3.4800   -0.4630   -3.0820 hn        1 5PC      0.201000
     33 H42        -3.7450    1.1060   -2.9180 hn        1 5PC      0.201000
     34 H6          0.9300   -1.0800   -1.3270 h4        1 5PC      0.276000
     35 H91        -2.3600   -3.9170   -4.9470 ha        1 5PC      0.119333
     36 H92        -0.8300   -4.3340   -4.7600 ha        1 5PC      0.119333
     37 H93        -1.9400   -4.8130   -3.7050 ha        1 5PC      0.119333
@<TRIPOS>BOND
     1    1    2 1   
     2    2    3 1   
     3    2    4 1   
     4    2    6 1   
     5    5    6 1   
     6    5    7 1   
     7    5   24 1   
     8    5   25 1   
     9    7    8 1   
    10    7    9 1   
    11    7   26 1   
    12    8   12 1   
    13    9   10 1   
    14    9   11 1   
    15    9   27 1   
    16   10   28 1   
    17   11   12 1   
    18   11   29 1   
    19   11   30 1   
    20   12   13 1   
    21   12   31 1   
    22   13   14 1   
    23   13   20 1   
    24   14   15 1   
    25   14   16 1   
    26   16   17 1   
    27   17   19 1   
    28   18   32 1   
    29   18   33 1   
    30   19   20 1   
    31   19   21 1   
    32   20   34 1   
    33   21   22 1   
    34   23   35 1   
    35   23   36 1   
    36   23   37 1   
@<TRIPOS>SUBSTRUCTURE
     1 5PC         1 TEMP              0 ****  ****    0 ROOT
