@<TRIPOS>MOLECULE
5PC
   37    38     1     0     0
SMALL
bcc


@<TRIPOS>ATOM
      1 OP3        -4.3310   -0.4870    4.6400 oh        1 5PC     -0.788400
      2 P          -3.3160    0.7820    4.8250 p5        1 5PC      1.441800
      3 OP1        -3.5380    1.4250    6.1320 o         1 5PC     -0.849500
      4 OP2        -3.3980    1.4360    3.4940 o         1 5PC     -0.849500
      5 C5'        -1.5180   -0.7800    3.7570 c3        1 5PC      0.197400
      6 O5'        -1.8680    0.0010    4.8600 os        1 5PC     -0.581200
      7 C4'        -0.5140   -0.0570    2.8450 c3        1 5PC      0.087100
      8 O4'         0.5730   -0.9490    2.5700 os        1 5PC     -0.430600
      9 C3'        -1.1120    0.4000    1.4980 c3        1 5PC      0.142100
     10 O3'        -1.2670    1.8060    1.4460 oh        1 5PC     -0.646800
     11 C2'        -0.0930   -0.0190    0.4380 c3        1 5PC     -0.105400
     12 C1'         0.9550   -0.8800    1.1730 c3        1 5PC      0.319500
     13 N1          1.1390   -2.2180    0.6270 n         1 5PC     -0.338400
     14 C2          2.4480   -2.8170    0.7190 c         1 5PC      0.759500
     15 O2          3.4170   -2.1390    1.1530 o         1 5PC     -0.676100
     16 N3          2.6450   -4.1400    0.3040 ne        1 5PC     -0.797100
     17 C4          1.6040   -4.7980   -0.2530 cf        1 5PC      0.712500
     18 N4          1.8270   -6.1060   -0.7400 nh        1 5PC     -0.897800
     19 C5          0.3010   -4.1990   -0.4050 cf        1 5PC     -0.445400
     20 C6          0.0900   -2.8780    0.0780 c1        1 5PC     -0.034900
     21 C7         -0.7500   -4.8920   -0.9980 ch        1 5PC      0.024700
     22 C8         -1.6500   -5.5060   -1.5080 c1        1 5PC     -0.342100
     23 C9         -2.7320   -6.2060   -2.1070 c3        1 5PC      0.046000
     24 H5'        -1.0320   -1.7180    4.1490 h1        1 5PC      0.031200
     25 H5''       -2.4420   -1.0570    3.1800 h1        1 5PC      0.031200
     26 H4'        -0.0780    0.8270    3.3900 h1        1 5PC      0.060700
     27 H3'        -2.1050   -0.0930    1.3180 h1        1 5PC      0.054700
     28 HO3'       -2.0100    2.0200    2.0370 ho        1 5PC      0.458000
     29 H2'        -0.6010   -0.5910   -0.3780 hc        1 5PC      0.066200
     30 H2''        0.4050    0.8780   -0.0040 hc        1 5PC      0.066200
     31 H1'         1.9680   -0.3740    1.1730 h2        1 5PC      0.070700
     32 H41         2.6000   -6.5830   -0.3320 hn        1 5PC      0.376300
     33 H42         0.9940   -6.6530   -0.7480 hn        1 5PC      0.376300
     34 H6         -4.6110   -0.5890    3.7370 ho        1 5PC      0.425000
     35 H91        -3.6500   -5.5620   -2.1350 hc        1 5PC      0.012367
     36 H92        -2.4870   -6.5060   -3.1600 hc        1 5PC      0.012367
     37 H93        -2.9800   -7.1370   -1.5330 hc        1 5PC      0.012367
@<TRIPOS>BOND
     1    1    2 1   
     2    1   34 1   
     3    2    3 1   
     4    2    4 1   
     5    2    6 1   
     6    5    6 1   
     7    5    7 1   
     8    5   24 1   
     9    5   25 1   
    10    7    8 1   
    11    7    9 1   
    12    7   26 1   
    13    8   12 1   
    14    9   10 1   
    15    9   11 1   
    16    9   27 1   
    17   10   28 1   
    18   11   12 1   
    19   11   29 1   
    20   11   30 1   
    21   12   13 1   
    22   12   31 1   
    23   13   14 1   
    24   13   20 2   
    25   14   15 2   
    26   14   16 1   
    27   16   17 2   
    28   17   18 1   
    29   17   19 1   
    30   18   32 1   
    31   18   33 1   
    32   19   20 2   
    33   19   21 1   
    34   21   22 3   
    35   22   23 1   
    36   23   35 1   
    37   23   36 1   
    38   23   37 1   
@<TRIPOS>SUBSTRUCTURE
     1 5PC         1 TEMP              0 ****  ****    0 ROOT
