@<TRIPOS>MOLECULE
5PE
   38    40     1     0     0
SMALL
bcc


@<TRIPOS>ATOM
      1 CAA         0.2600    0.7840   -0.0510 c3        1 5PE      0.108700
      2 OAN         1.5840    0.2640   -0.0280 os        1 5PE     -0.302900
      3 CAT         2.0930   -0.0380    1.2190 ca        1 5PE      0.098100
      4 CAJ         1.4230    0.1630    2.4250 ca        1 5PE     -0.156000
      5 CAR         3.4020   -0.5850    1.2250 ca        1 5PE      0.114100
      6 OAC         4.0130   -0.7550    0.0060 oh        1 5PE     -0.473100
      7 CAH         4.0090   -0.9180    2.4380 ca        1 5PE     -0.195000
      8 CAI         3.3270   -0.7180    3.6380 ca        1 5PE     -0.091000
      9 CAS         2.0390   -0.1820    3.6380 ca        1 5PE     -0.103300
     10 CAU         1.2680    0.0270    4.9050 c3        1 5PE      0.261100
     11 SAO         0.6910   -1.6030    5.5230 ss        1 5PE     -0.304200
     12 CAK         1.3420   -1.3850    7.1530 c3        1 5PE     -0.093300
     13 CAP         2.0370   -0.0420    7.1970 c         1 5PE      0.703500
     14 OAB         2.6120    0.4000    8.2040 o         1 5PE     -0.613500
     15 NAV         2.0000    0.6490    5.9850 n         1 5PE     -0.471800
     16 CAL         2.4790    1.9970    5.8600 c3        1 5PE      0.060700
     17 CAQ         1.4670    3.0830    6.1860 ca        1 5PE      0.372600
     18 CAG         1.7730    3.9940    7.2180 ca        1 5PE     -0.224300
     19 CAE         0.8700    5.0200    7.5030 ca        1 5PE     -0.093000
     20 CAD        -0.3100    5.1060    6.7640 ca        1 5PE     -0.241300
     21 CAF        -0.5360    4.1470    5.7580 ca        1 5PE      0.394200
     22 NAM         0.3220    3.1550    5.4640 nb        1 5PE     -0.669000
     23 HAA1        0.0610    0.9310   -1.1430 h1        1 5PE      0.045367
     24 HAA2       -0.4620    0.0510    0.3850 h1        1 5PE      0.045367
     25 HAA3        0.2080    1.7580    0.4940 h1        1 5PE      0.045367
     26 HAJ         0.4110    0.5940    2.4330 ha        1 5PE      0.148000
     27 HAC         4.8840   -1.1490    0.1680 ho        1 5PE      0.416000
     28 HAH         5.0230   -1.3430    2.4450 ha        1 5PE      0.139000
     29 HAI         3.8130   -0.9950    4.5860 ha        1 5PE      0.143000
     30 HAU         0.3370    0.6250    4.6820 h2        1 5PE      0.103700
     31 HAK1        2.0710   -2.1930    7.4010 h1        1 5PE      0.106200
     32 HAK2        0.5230   -1.4030    7.9120 h1        1 5PE      0.106200
     33 HAL1        3.3570    2.1130    6.5620 h1        1 5PE      0.079200
     34 HAL2        2.8350    2.1480    4.7990 h1        1 5PE      0.079200
     35 HAG         2.7040    3.8900    7.7930 ha        1 5PE      0.152000
     36 HAE         1.0850    5.7440    8.3020 ha        1 5PE      0.141000
     37 HAD        -1.0480    5.8950    6.9560 ha        1 5PE      0.145000
     38 HAF        -1.4590    4.1740    5.1510 h4        1 5PE      0.021100
@<TRIPOS>BOND
     1    1    2 1   
     2    1   23 1   
     3    1   24 1   
     4    1   25 1   
     5    2    3 1   
     6    3    4 ar  
     7    3    5 ar  
     8    4    9 ar  
     9    4   26 1   
    10    5    6 1   
    11    5    7 ar  
    12    6   27 1   
    13    7    8 ar  
    14    7   28 1   
    15    8    9 ar  
    16    8   29 1   
    17    9   10 1   
    18   10   11 1   
    19   10   15 1   
    20   10   30 1   
    21   11   12 1   
    22   12   13 1   
    23   12   31 1   
    24   12   32 1   
    25   13   14 2   
    26   13   15 1   
    27   15   16 1   
    28   16   17 1   
    29   16   33 1   
    30   16   34 1   
    31   17   18 ar  
    32   17   22 ar  
    33   18   19 ar  
    34   18   35 1   
    35   19   20 ar  
    36   19   36 1   
    37   20   21 ar  
    38   20   37 1   
    39   21   22 ar  
    40   21   38 1   
@<TRIPOS>SUBSTRUCTURE
     1 5PE         1 TEMP              0 ****  ****    0 ROOT
