@<TRIPOS>MOLECULE
5PE
   38    40     1     0     0
SMALL
bcc


@<TRIPOS>ATOM
      1 CAA         0.2310    0.7710   -0.0410 c3        1 5PE      0.108700
      2 OAN         1.5560    0.2510   -0.0250 os        1 5PE     -0.302900
      3 CAT         2.0730   -0.0470    1.2200 ca        1 5PE      0.098100
      4 CAJ         1.4110    0.1570    2.4300 ca        1 5PE     -0.156000
      5 CAR         3.3820   -0.5940    1.2190 ca        1 5PE      0.114100
      6 OAC         3.9850   -0.7680   -0.0030 oh        1 5PE     -0.473100
      7 CAH         3.9970   -0.9240    2.4290 ca        1 5PE     -0.195000
      8 CAI         3.3220   -0.7200    3.6330 ca        1 5PE     -0.091000
      9 CAS         2.0340   -0.1840    3.6400 ca        1 5PE     -0.103300
     10 CAU         1.2720    0.0290    4.9100 c3        1 5PE      0.261100
     11 SAO         0.6990   -1.6000    5.5370 ss        1 5PE     -0.304200
     12 CAK         1.3600   -1.3770    7.1620 c3        1 5PE     -0.093300
     13 CAP         2.0550   -0.0340    7.1980 c         1 5PE      0.703500
     14 OAB         2.6370    0.4120    8.2010 o         1 5PE     -0.613500
     15 NAV         2.0110    0.6540    5.9850 n         1 5PE     -0.471800
     16 CAL         2.4890    2.0020    5.8520 c3        1 5PE      0.060700
     17 CAQ         1.4790    3.0880    6.1820 ca        1 5PE      0.372600
     18 CAG         1.7910    4.0020    7.2100 ca        1 5PE     -0.224300
     19 CAE         0.8890    5.0280    7.4970 ca        1 5PE     -0.093000
     20 CAD        -0.2940    5.1130    6.7640 ca        1 5PE     -0.241300
     21 CAF        -0.5260    4.1530    5.7620 ca        1 5PE      0.394200
     22 NAM         0.3300    3.1590    5.4650 nb        1 5PE     -0.669000
     23 HAA1        0.0260    0.9150   -1.1320 h1        1 5PE      0.045367
     24 HAA2        0.1830    1.7470    0.5010 h1        1 5PE      0.045367
     25 HAA3       -0.4870    0.0400    0.4030 h1        1 5PE      0.045367
     26 HAJ         0.3990    0.5880    2.4430 ha        1 5PE      0.148000
     27 HAC         4.8570   -1.1620    0.1540 ho        1 5PE      0.416000
     28 HAH         5.0110   -1.3480    2.4310 ha        1 5PE      0.139000
     29 HAI         3.8150   -0.9940    4.5780 ha        1 5PE      0.143000
     30 HAU         0.3400    0.6260    4.6920 h2        1 5PE      0.103700
     31 HAK1        2.0910   -2.1840    7.4080 h1        1 5PE      0.106200
     32 HAK2        0.5460   -1.3920    7.9270 h1        1 5PE      0.106200
     33 HAL1        3.3720    2.1190    6.5480 h1        1 5PE      0.079200
     34 HAL2        2.8380    2.1490    4.7880 h1        1 5PE      0.079200
     35 HAG         2.7240    3.8980    7.7800 ha        1 5PE      0.152000
     36 HAE         1.1080    5.7540    8.2940 ha        1 5PE      0.141000
     37 HAD        -1.0310    5.9030    6.9590 ha        1 5PE      0.145000
     38 HAF        -1.4520    4.1780    5.1590 h4        1 5PE      0.021100
@<TRIPOS>BOND
     1    1    2 1   
     2    1   23 1   
     3    1   24 1   
     4    1   25 1   
     5    2    3 1   
     6    3    4 ar  
     7    3    5 ar  
     8    4    9 ar  
     9    4   26 1   
    10    5    6 1   
    11    5    7 ar  
    12    6   27 1   
    13    7    8 ar  
    14    7   28 1   
    15    8    9 ar  
    16    8   29 1   
    17    9   10 1   
    18   10   11 1   
    19   10   15 1   
    20   10   30 1   
    21   11   12 1   
    22   12   13 1   
    23   12   31 1   
    24   12   32 1   
    25   13   14 2   
    26   13   15 1   
    27   15   16 1   
    28   16   17 1   
    29   16   33 1   
    30   16   34 1   
    31   17   18 ar  
    32   17   22 ar  
    33   18   19 ar  
    34   18   35 1   
    35   19   20 ar  
    36   19   36 1   
    37   20   21 ar  
    38   20   37 1   
    39   21   22 ar  
    40   21   38 1   
@<TRIPOS>SUBSTRUCTURE
     1 5PE         1 TEMP              0 ****  ****    0 ROOT
