@<TRIPOS>MOLECULE
5PG
   23    23     1     0     0
SMALL
bcc


@<TRIPOS>ATOM
      1 N           1.8200    1.5400    0.4930 n3        1 5PG     -0.800200
      2 CA          1.3080    0.1650    0.5010 c3        1 5PG      0.059800
      3 C           1.9620   -0.7360   -0.6100 c         1 5PG      0.896600
      4 O           2.0910   -0.2340   -1.7640 o         1 5PG     -0.833800
      5 CN          3.2180    1.6010    0.8460 c3        1 5PG      0.151100
      6 CB         -0.1870    0.1600    0.3300 ca        1 5PG     -0.043300
      7 CC1        -1.0290   -0.0790    1.4210 ca        1 5PG     -0.091000
      8 CC2        -0.7480    0.3900   -0.9340 ca        1 5PG     -0.091000
      9 CD1        -2.4140   -0.0910    1.2680 ca        1 5PG     -0.195500
     10 CD2        -2.1280    0.3870   -1.1060 ca        1 5PG     -0.195500
     11 CE         -2.9570    0.1480   -0.0010 ca        1 5PG      0.085100
     12 OH         -4.3380    0.1390   -0.1010 oh        1 5PG     -0.522100
     13 OXT         2.3400   -1.8870   -0.2730 o         1 5PG     -0.833800
     14 H           1.7050    1.8940   -0.4450 hn        1 5PG      0.354800
     15 HA          1.5630   -0.2930    1.5000 h1        1 5PG      0.052700
     16 HN1C        3.5680    2.6620    0.7410 h1        1 5PG      0.019033
     17 HN2C        3.3390    1.2890    1.9170 h1        1 5PG      0.019033
     18 HN3C        3.8740    0.9420    0.2130 h1        1 5PG      0.019033
     19 HC1        -0.5930   -0.2660    2.4140 ha        1 5PG      0.153000
     20 HC2        -0.0650    0.5410   -1.7920 ha        1 5PG      0.153000
     21 HD1        -3.0790   -0.2810    2.1190 ha        1 5PG      0.120500
     22 HD2        -2.5660    0.5610   -2.0980 ha        1 5PG      0.120500
     23 HH         -4.5570    0.2580   -1.0350 ho        1 5PG      0.403000
@<TRIPOS>BOND
     1    1    2 1   
     2    1    5 1   
     3    1   14 1   
     4    2    3 1   
     5    2    6 1   
     6    2   15 1   
     7    3    4 1   
     8    3   13 1   
     9    5   16 1   
    10    5   17 1   
    11    5   18 1   
    12    6    7 ar  
    13    6    8 ar  
    14    7    9 ar  
    15    7   19 1   
    16    8   10 ar  
    17    8   20 1   
    18    9   11 ar  
    19    9   21 1   
    20   10   11 ar  
    21   10   22 1   
    22   11   12 1   
    23   12   23 1   
@<TRIPOS>SUBSTRUCTURE
     1 5PG         1 TEMP              0 ****  ****    0 ROOT
