@<TRIPOS>MOLECULE
5PH
   64    65     1     0     0
SMALL
bcc


@<TRIPOS>ATOM
      1 O32         0.0150   -0.9430    1.2780 o         1 5PH     -0.628100
      2 C16         1.1850   -0.8660    1.7080 c         1 5PH      0.664100
      3 N13         2.0090    0.1780    1.3310 ns        1 5PH     -0.577900
      4 C9          1.5310    1.2540    0.5070 c3        1 5PH      0.005700
      5 C25         1.4520    2.6070    1.2450 c3        1 5PH     -0.180400
      6 C26         0.8860    2.4680    2.6180 c         1 5PH      0.658100
      7 O30        -0.2730    2.6640    3.0100 o         1 5PH     -0.561000
      8 O28         1.6960    2.0990    3.6460 oh        1 5PH     -0.672100
      9 C35         2.3520    1.4510   -0.7760 c         1 5PH      0.563100
     10 C36         2.7590    0.2170   -1.5020 c3        1 5PH     -0.197100
     11 O5          2.6080    2.5880   -1.1820 o         1 5PH     -0.532100
     12 C19         1.7790   -1.8880    2.6820 c3        1 5PH     -0.082400
     13 C20         2.8490   -2.6660    1.9820 ca        1 5PH     -0.104300
     14 C22         4.1890   -2.2970    2.1660 ca        1 5PH     -0.121500
     15 C24         5.2000   -3.0160    1.5300 ca        1 5PH     -0.135000
     16 C34         4.8850   -4.0980    0.7080 ca        1 5PH     -0.127000
     17 C33         3.5510   -4.4600    0.5170 ca        1 5PH     -0.135000
     18 C31         2.5350   -3.7460    1.1500 ca        1 5PH     -0.121500
     19 C4          0.6830   -2.7810    3.2550 c3        1 5PH     -0.081400
     20 C1          0.2080   -2.3620    4.6310 c3        1 5PH     -0.075400
     21 C12        -0.4140   -0.9750    4.6900 c3        1 5PH     -0.100400
     22 C8          0.4980   -0.0440    5.4810 c3        1 5PH      0.086800
     23 N2         -0.0590    1.2880    5.8040 ny        1 5PH     -0.701900
     24 S7          0.7200    2.0410    7.3620 sy        1 5PH      1.498200
     25 O3          0.7930    0.9350    8.1960 o         1 5PH     -0.604300
     26 O6         -0.2050    3.0300    7.6760 o         1 5PH     -0.604300
     27 C11         2.0920    2.5680    6.7710 ca        1 5PH     -0.588500
     28 C21         3.0170    1.6660    6.1860 ca        1 5PH      0.042000
     29 C23         4.0930    2.0830    5.4270 ca        1 5PH     -0.185600
     30 C29         4.7510    1.0450    4.5180 c         1 5PH      0.935200
     31 O17         3.9560    0.5640    3.6390 o         1 5PH     -0.802300
     32 O14         5.9360    0.7060    4.6770 o         1 5PH     -0.802300
     33 C15         4.4020    3.4630    5.4150 ca        1 5PH      0.265100
     34 O10         5.4810    3.8650    4.6980 oh        1 5PH     -0.432100
     35 C18         3.5730    4.3840    6.1020 ca        1 5PH     -0.262000
     36 C27         2.4240    3.9420    6.7250 ca        1 5PH      0.057000
     37 H13         2.9360    0.2300    1.7040 hn        1 5PH      0.362500
     38 H9          0.4790    0.9900    0.1590 h1        1 5PH      0.117700
     39 H251        2.4760    3.0630    1.3090 hc        1 5PH      0.097700
     40 H252        0.8060    3.2960    0.6390 hc        1 5PH      0.097700
     41 H361        1.9160   -0.5170   -1.5270 hc        1 5PH      0.075033
     42 H362        3.6250   -0.2550   -0.9730 hc        1 5PH      0.075033
     43 H363        3.0680    0.4600   -2.5480 hc        1 5PH      0.075033
     44 H19         2.2660   -1.3110    3.5270 hc        1 5PH      0.096700
     45 H22         4.4450   -1.4320    2.8110 ha        1 5PH      0.162500
     46 H24         6.2500   -2.7250    1.6840 ha        1 5PH      0.135500
     47 H34         5.6850   -4.6650    0.2110 ha        1 5PH      0.130000
     48 H33         3.2990   -5.3090   -0.1340 ha        1 5PH      0.135500
     49 H31         1.4840   -4.0300    0.9940 ha        1 5PH      0.162500
     50 H41         1.0790   -3.8300    3.3390 hc        1 5PH      0.069700
     51 H42        -0.1910   -2.8110    2.5500 hc        1 5PH      0.069700
     52 H11         1.0690   -2.4360    5.3500 hc        1 5PH      0.050200
     53 H12        -0.5590   -3.1090    4.9700 hc        1 5PH      0.050200
     54 H121       -1.4200   -1.0370    5.1820 hc        1 5PH      0.067700
     55 H122       -0.5710   -0.5770    3.6510 hc        1 5PH      0.067700
     56 H81         1.4430    0.1190    4.8730 hx        1 5PH      0.110700
     57 H82         0.7620   -0.5460    6.4600 hx        1 5PH      0.110700
     58 HN2        -1.0640    1.2060    5.9380 hn        1 5PH      0.461300
     59 H21         2.8580    0.5780    6.2990 ha        1 5PH      0.155000
     60 H10         5.6010    4.8220    4.8180 ho        1 5PH      0.431000
     61 H18         3.8340    5.4530    6.1110 ha        1 5PH      0.152000
     62 H27         1.7380    4.6730    7.1920 ha        1 5PH      0.155000
     63 H132        2.6000    1.8420    3.3530 ho        1 5PH      0.505000
     64 H221        0.0720    1.9050    4.9870 hn        1 5PH      0.461300
@<TRIPOS>BOND
     1    1    2 2   
     2    2    3 1   
     3    2   12 1   
     4    3    4 1   
     5    3   37 1   
     6    4    5 1   
     7    4    9 1   
     8    4   38 1   
     9    5    6 1   
    10    5   39 1   
    11    5   40 1   
    12    6    7 2   
    13    6    8 1   
    14    8   63 1   
    15    9   10 1   
    16    9   11 2   
    17   10   41 1   
    18   10   42 1   
    19   10   43 1   
    20   12   13 1   
    21   12   19 1   
    22   12   44 1   
    23   13   14 ar  
    24   13   18 ar  
    25   14   15 ar  
    26   14   45 1   
    27   15   16 ar  
    28   15   46 1   
    29   16   17 ar  
    30   16   47 1   
    31   17   18 ar  
    32   17   48 1   
    33   18   49 1   
    34   19   20 1   
    35   19   50 1   
    36   19   51 1   
    37   20   21 1   
    38   20   52 1   
    39   20   53 1   
    40   21   22 1   
    41   21   54 1   
    42   21   55 1   
    43   22   23 1   
    44   22   56 1   
    45   22   57 1   
    46   23   24 1   
    47   23   58 1   
    48   23   64 1   
    49   24   25 2   
    50   24   26 2   
    51   24   27 1   
    52   27   28 ar  
    53   27   36 ar  
    54   28   29 ar  
    55   28   59 1   
    56   29   30 1   
    57   29   33 ar  
    58   30   31 1   
    59   30   32 1   
    60   33   34 1   
    61   33   35 ar  
    62   34   60 1   
    63   35   36 ar  
    64   35   61 1   
    65   36   62 1   
@<TRIPOS>SUBSTRUCTURE
     1 5PH         1 TEMP              0 ****  ****    0 ROOT
