@<TRIPOS>MOLECULE
5PH
   64    65     1     0     0
SMALL
bcc


@<TRIPOS>ATOM
      1 O32        -0.0530   -0.9250    1.3450 o         1 5PH     -0.628100
      2 C16         1.1310   -0.8550    1.7360 c         1 5PH      0.664100
      3 N13         1.9470    0.1880    1.3370 n         1 5PH     -0.577900
      4 C9          1.4460    1.2680    0.5330 c3        1 5PH      0.005700
      5 C25         1.3980    2.6190    1.2780 c3        1 5PH     -0.180400
      6 C26         0.8770    2.4780    2.6680 c         1 5PH      0.658100
      7 O30        -0.2690    2.6770    3.0990 o         1 5PH     -0.561000
      8 O28         1.7170    2.1010    3.6680 oh        1 5PH     -0.672100
      9 C35         2.2260    1.4670   -0.7750 c         1 5PH      0.563100
     10 C36         2.6020    0.2330   -1.5190 c3        1 5PH     -0.197100
     11 O5          2.4750    2.6040   -1.1850 o         1 5PH     -0.532100
     12 C19         1.7510   -1.8830    2.6870 c3        1 5PH     -0.082400
     13 C20         2.7950   -2.6620    1.9500 ca        1 5PH     -0.104300
     14 C22         4.1410   -2.3000    2.0910 ca        1 5PH     -0.121500
     15 C24         5.1280   -3.0210    1.4210 ca        1 5PH     -0.135000
     16 C34         4.7820   -4.0980    0.6050 ca        1 5PH     -0.127000
     17 C33         3.4410   -4.4540    0.4560 ca        1 5PH     -0.135000
     18 C31         2.4490   -3.7390    1.1250 ca        1 5PH     -0.121500
     19 C4          0.6710   -2.7740    3.2920 c3        1 5PH     -0.081400
     20 C1          0.2430   -2.3580    4.6840 c3        1 5PH     -0.075400
     21 C12        -0.3720   -0.9690    4.7680 c3        1 5PH     -0.100400
     22 C8          0.5700   -0.0450    5.5320 c3        1 5PH      0.087800
     23 N2          0.0300    1.2890    5.8790 n4        1 5PH     -0.701900
     24 S7          0.8620    2.0320    7.4140 sy        1 5PH      1.498200
     25 O3          0.9570    0.9230    8.2400 o         1 5PH     -0.604300
     26 O6         -0.0480    3.0230    7.7610 o         1 5PH     -0.604300
     27 C11         2.2160    2.5560    6.7800 ca        1 5PH     -0.588500
     28 C21         3.1180    1.6520    6.1620 ca        1 5PH      0.042000
     29 C23         4.1700    2.0670    5.3710 ca        1 5PH     -0.185600
     30 C29         4.7940    1.0290    4.4370 c         1 5PH      0.935200
     31 O17         3.9690    0.5560    3.5820 o         1 5PH     -0.802300
     32 O14         5.9820    0.6840    4.5570 o         1 5PH     -0.802300
     33 C15         4.4850    3.4450    5.3540 ca        1 5PH      0.265100
     34 O10         5.5420    3.8450    4.6040 oh        1 5PH     -0.432100
     35 C18         3.6830    4.3670    6.0720 ca        1 5PH     -0.262000
     36 C27         2.5530    3.9290    6.7290 ca        1 5PH      0.057000
     37 H13         2.6100    1.8410    3.3450 ho        1 5PH      0.505000
     38 H9          0.3830    1.0100    0.2180 h1        1 5PH      0.117700
     39 H251        2.4260    3.0700    1.3100 hc        1 5PH      0.097700
     40 H252        0.7350    3.3130    0.6960 hc        1 5PH      0.097700
     41 H361        1.7550   -0.4960   -1.5200 hc        1 5PH      0.075033
     42 H362        2.8780    0.4800   -2.5740 hc        1 5PH      0.075033
     43 H363        3.4820   -0.2460   -1.0220 hc        1 5PH      0.075033
     44 H19         2.2680   -1.3120    3.5180 hc        1 5PH      0.096700
     45 H22         4.4220   -1.4390    2.7310 ha        1 5PH      0.162500
     46 H24         6.1840   -2.7350    1.5420 ha        1 5PH      0.135500
     47 H34         5.5630   -4.6660    0.0800 ha        1 5PH      0.130000
     48 H33         3.1640   -5.3000   -0.1900 ha        1 5PH      0.135500
     49 H31         1.3920   -4.0180    1.0020 ha        1 5PH      0.162500
     50 H41        -0.2260   -2.7970    2.6150 hc        1 5PH      0.069700
     51 H42         1.0650   -3.8240    3.3590 hc        1 5PH      0.069700
     52 H11        -0.5170   -3.1030    5.0450 hc        1 5PH      0.050200
     53 H12         1.1250   -2.4390    5.3750 hc        1 5PH      0.050200
     54 H121       -0.5600   -0.5660    3.7360 hc        1 5PH      0.067700
     55 H122       -1.3610   -1.0280    5.2930 hc        1 5PH      0.067700
     56 H81         1.4960    0.1170    4.8950 hx        1 5PH      0.110700
     57 H82         0.8640   -0.5520    6.5000 hx        1 5PH      0.110700
     58 HN2         0.1370    1.9080    5.0600 hn        1 5PH      0.461300
     59 H21         2.9580    0.5640    6.2760 ha        1 5PH      0.155000
     60 H10         5.6710    4.8020    4.7240 ho        1 5PH      0.431000
     61 H18         3.9490    5.4350    6.0750 ha        1 5PH      0.152000
     62 H27         1.8860    4.6600    7.2210 ha        1 5PH      0.155000
     63 H132        2.8850    0.2340    1.6800 hn        1 5PH      0.362500
     64 H221       -0.9710    1.2110    6.0450 hn        1 5PH      0.461300
@<TRIPOS>BOND
     1    1    2 2   
     2    2    3 1   
     3    2   12 1   
     4    3    4 1   
     5    3   63 1   
     6    4    5 1   
     7    4    9 1   
     8    4   38 1   
     9    5    6 1   
    10    5   39 1   
    11    5   40 1   
    12    6    7 2   
    13    6    8 1   
    14    8   37 1   
    15    9   10 1   
    16    9   11 2   
    17   10   41 1   
    18   10   42 1   
    19   10   43 1   
    20   12   13 1   
    21   12   19 1   
    22   12   44 1   
    23   13   14 ar  
    24   13   18 ar  
    25   14   15 ar  
    26   14   45 1   
    27   15   16 ar  
    28   15   46 1   
    29   16   17 ar  
    30   16   47 1   
    31   17   18 ar  
    32   17   48 1   
    33   18   49 1   
    34   19   20 1   
    35   19   50 1   
    36   19   51 1   
    37   20   21 1   
    38   20   52 1   
    39   20   53 1   
    40   21   22 1   
    41   21   54 1   
    42   21   55 1   
    43   22   23 1   
    44   22   56 1   
    45   22   57 1   
    46   23   24 1   
    47   23   58 1   
    48   23   64 1   
    49   24   25 2   
    50   24   26 2   
    51   24   27 1   
    52   27   28 ar  
    53   27   36 ar  
    54   28   29 ar  
    55   28   59 1   
    56   29   30 1   
    57   29   33 ar  
    58   30   31 1   
    59   30   32 1   
    60   33   34 1   
    61   33   35 ar  
    62   34   60 1   
    63   35   36 ar  
    64   35   61 1   
    65   36   62 1   
@<TRIPOS>SUBSTRUCTURE
     1 5PH         1 TEMP              0 ****  ****    0 ROOT
