@<TRIPOS>MOLECULE
5PH
   62    57     1     0     0
SMALL
bcc


@<TRIPOS>ATOM
      1 O32        -0.0550   -2.5080   -3.1510 o         1 5PH     -0.384000
      2 C16         0.8570   -1.7270   -2.9670 c1        1 5PH      0.293000
      3 N13         1.1880   -0.7650   -3.9720 n2        1 5PH     -0.339000
      4 C9          0.2660   -0.4880   -5.0280 c3        1 5PH     -0.022000
      5 C25         0.3370    0.9770   -5.3890 c3        1 5PH     -0.235000
      6 C26        -0.9770    1.6400   -5.0560 c2        1 5PH      0.329000
      7 O30        -1.0310    2.5030   -4.1420 o         1 5PH     -0.575500
      8 O28        -2.0030    1.3790   -5.7340 o         1 5PH     -0.575500
      9 C35         0.6170   -1.3210   -6.2330 c2        1 5PH      0.237000
     10 C36        -0.4560   -1.7030   -7.2260 c3        1 5PH     -0.283000
     11 O5          1.7670   -1.6560   -6.4250 o         1 5PH     -0.360000
     12 C19         1.6780   -1.8100   -1.6980 c3        1 5PH     -0.089000
     13 C20         2.4120   -3.1430   -1.6540 c2        1 5PH     -0.077000
     14 C22         3.7930   -3.1690   -1.5310 c2        1 5PH     -0.127000
     15 C24         4.4540   -4.3790   -1.3800 c1        1 5PH     -0.137000
     16 C34         3.7350   -5.5630   -1.3510 c1        1 5PH     -0.131000
     17 C33         2.3560   -5.5390   -1.4740 c1        1 5PH     -0.131000
     18 C31         1.6930   -4.3270   -1.6250 c1        1 5PH     -0.116000
     19 C4          0.7650   -1.6970   -0.4980 c3        1 5PH     -0.149000
     20 C1          1.0630   -0.3950    0.2510 c3        1 5PH     -0.159000
     21 C12        -0.1620    0.0010    1.1000 c3        1 5PH     -0.180000
     22 C8          0.0130    1.4320    1.6130 c3        1 5PH     -0.005000
     23 N2         -0.8290    1.6360    2.7750 n3        1 5PH     -0.890000
     24 S7         -0.3580    2.6970    3.9680 s4        1 5PH      2.093800
     25 O3          0.0630    3.9520    3.4120 o         1 5PH     -0.572900
     26 O6          0.8490    2.2580    4.6100 o         1 5PH     -0.572900
     27 C11        -1.6780    2.9230    5.1530 c1        1 5PH     -0.937000
     28 C21        -2.0720    4.2060    5.5190 c2        1 5PH      0.058000
     29 C23        -3.0520    4.3810    6.4890 c1        1 5PH     -0.236000
     30 C29        -3.5270    5.7800    6.8450 c1        1 5PH      0.370000
     31 O17        -4.5840    6.2350    6.3320 o         1 5PH     -0.561500
     32 O14        -2.8880    6.4680    7.6870 o         1 5PH     -0.561500
     33 C15        -3.6370    3.2760    7.0910 c2        1 5PH      0.204000
     34 O10        -4.6850    3.4520    8.0140 oh        1 5PH     -0.295000
     35 C18        -3.2430    1.9960    6.7250 c1        1 5PH     -0.238000
     36 C27        -2.2640    1.8200    5.7560 c1        1 5PH      0.003000
     37 H13         1.9790   -0.3140   -3.9290 hn        1 5PH      0.217000
     38 H9         -0.6420   -0.7070   -4.7340 h1        1 5PH      0.164000
     39 H251        0.5140    1.0690   -6.3470 hc        1 5PH      0.081500
     40 H252        1.0540    1.4020   -4.8830 hc        1 5PH      0.081500
     41 H361       -0.3530   -1.1670   -8.0410 hc        1 5PH      0.114667
     42 H362       -0.3720   -2.6540   -7.4470 hc        1 5PH      0.114667
     43 H363       -1.3390   -1.5350   -6.8330 hc        1 5PH      0.114667
     44 H19         2.3280   -1.0800   -1.6820 hc        1 5PH      0.112000
     45 H22         4.3000   -2.3350   -1.5510 ha        1 5PH      0.129000
     46 H24         5.4280   -4.3960   -1.2930 ha        1 5PH      0.123000
     47 H34         4.1980   -6.4150   -1.1980 ha        1 5PH      0.126500
     48 H33         1.8490   -6.3750   -1.4540 ha        1 5PH      0.126500
     49 H31         0.7200   -4.3100   -1.7120 ha        1 5PH      0.164000
     50 H41         0.9150   -2.4560    0.0980 hc        1 5PH      0.102500
     51 H42        -0.1650   -1.6950   -0.7950 hc        1 5PH      0.102500
     52 H11         1.2560    0.3160   -0.3930 hc        1 5PH      0.079000
     53 H12         1.8390   -0.5240    0.8370 hc        1 5PH      0.079000
     54 H121       -0.2430   -0.6100    1.8590 hc        1 5PH      0.087500
     55 H122       -0.9700   -0.0530    0.5510 hc        1 5PH      0.087500
     56 H81         0.9480    1.5770    1.8590 h1        1 5PH      0.085500
     57 H82        -0.2420    2.0640    0.9100 h1        1 5PH      0.085500
     58 HN2        -1.6160    1.1780    2.8550 hn        1 5PH      0.236000
     59 H21        -1.6800    4.9810    5.0770 ha        1 5PH      0.170000
     60 H10        -4.4620    3.0810    8.7910 ho        1 5PH      0.293000
     61 H18        -3.6560    1.2180    7.1500 ha        1 5PH      0.133000
     62 H27        -1.9880    0.9190    5.4990 ha        1 5PH      0.140000
@<TRIPOS>BOND
     1    1    2 1   
     2    2   12 1   
     3    3    4 1   
     4    3   37 1   
     5    4    5 1   
     6    4    9 1   
     7    4   38 1   
     8    5    6 1   
     9    5   39 1   
    10    5   40 1   
    11    6    7 1   
    12    6    8 1   
    13    9   10 1   
    14    9   11 1   
    15   10   41 1   
    16   10   42 1   
    17   10   43 1   
    18   12   13 1   
    19   12   19 1   
    20   12   44 1   
    21   13   14 1   
    22   13   18 1   
    23   14   15 1   
    24   14   45 1   
    25   15   46 1   
    26   16   17 1   
    27   16   47 1   
    28   17   48 1   
    29   18   49 1   
    30   19   20 1   
    31   19   50 1   
    32   19   51 1   
    33   20   21 1   
    34   20   52 1   
    35   20   53 1   
    36   21   22 1   
    37   21   54 1   
    38   21   55 1   
    39   22   23 1   
    40   22   56 1   
    41   22   57 1   
    42   23   24 1   
    43   23   58 1   
    44   24   25 1   
    45   24   26 1   
    46   27   28 1   
    47   27   36 1   
    48   28   29 1   
    49   28   59 1   
    50   29   33 1   
    51   30   31 1   
    52   30   32 1   
    53   33   34 1   
    54   33   35 1   
    55   34   60 1   
    56   35   61 1   
    57   36   62 1   
@<TRIPOS>SUBSTRUCTURE
     1 5PH         1 TEMP              0 ****  ****    0 ROOT
