@<TRIPOS>MOLECULE
5PH
   64    64     1     0     0
SMALL
bcc


@<TRIPOS>ATOM
      1 O32         0.3290   -0.2150    1.7900 o         1 5PH     -0.688100
      2 C16         1.5080   -0.6220    1.9500 c         1 5PH      0.671100
      3 N13         2.5530   -0.0050    1.3040 n         1 5PH     -0.545900
      4 C9          2.3620    1.0780    0.3760 c3        1 5PH      0.011700
      5 C25         2.8340    2.4390    0.9120 c3        1 5PH     -0.215400
      6 C26         1.9050    3.1540    1.8370 c         1 5PH      0.660100
      7 O30         2.1850    4.2290    2.3950 o         1 5PH     -0.586000
      8 O28         0.6690    2.7090    2.1820 oh        1 5PH     -0.599100
      9 C35         3.1260    0.8380   -0.9400 c         1 5PH      0.554100
     10 C36         2.3660    1.2260   -2.1660 c3        1 5PH     -0.204100
     11 O5          4.2650    0.3740   -0.9750 o         1 5PH     -0.490100
     12 C19         1.8570   -1.7900    2.8740 c3        1 5PH     -0.096400
     13 C20         2.7560   -2.7550    2.1650 ca        1 5PH     -0.096300
     14 C22         4.1370   -2.6870    2.4010 ca        1 5PH     -0.118500
     15 C24         4.9960   -3.5770    1.7580 ca        1 5PH     -0.134500
     16 C34         4.4890   -4.5320    0.8770 ca        1 5PH     -0.126000
     17 C33         3.1160   -4.5960    0.6360 ca        1 5PH     -0.134500
     18 C31         2.2520   -3.7100    1.2760 ca        1 5PH     -0.118500
     19 C4          0.6050   -2.4630    3.4270 c3        1 5PH     -0.071400
     20 C1          0.3510   -2.1160    4.8810 c3        1 5PH     -0.075400
     21 C12        -0.1390   -0.6920    5.0450 c3        1 5PH     -0.103400
     22 C8         -0.0380   -0.2680    6.5080 c3        1 5PH      0.118800
     23 N2         -0.2200    1.1650    6.7500 n3        1 5PH     -1.006800
     24 S7          1.3330    1.9980    8.1620 s4        1 5PH      1.683300
     25 O3          1.6150    0.8230    8.8000 o         1 5PH     -0.474900
     26 O6          0.5080    2.9130    8.7630 o         1 5PH     -0.474900
     27 C11         2.2310    2.4780    7.0160 ca        1 5PH     -0.700500
     28 C21         3.0040    1.5420    6.2610 ca        1 5PH      0.052000
     29 C23         3.6700    1.8770    5.1070 ca        1 5PH     -0.211600
     30 C29         4.2250    0.7440    4.2460 c         1 5PH      0.924200
     31 O17         4.1620   -0.4160    4.7420 o         1 5PH     -0.805300
     32 O14         4.6190    1.0060    3.0810 o         1 5PH     -0.805300
     33 C15         3.6870    3.2410    4.7060 ca        1 5PH      0.322100
     34 O10         4.3680    3.5730    3.5980 oh        1 5PH     -0.402100
     35 C18         2.9860    4.2160    5.4770 ca        1 5PH     -0.249000
     36 C27         2.2740    3.8360    6.5810 ca        1 5PH      0.050000
     37 H13         3.4980   -0.1900    1.5960 hn        1 5PH      0.377500
     38 H9          1.2620    1.1340    0.1100 h1        1 5PH      0.079700
     39 H251        3.0340    3.1260    0.0460 hc        1 5PH      0.125200
     40 H252        3.8120    2.3040    1.4780 hc        1 5PH      0.125200
     41 H361        1.9620    2.2610   -2.0590 hc        1 5PH      0.066700
     42 H362        1.5110    0.5190   -2.3100 hc        1 5PH      0.066700
     43 H363        3.0240    1.1820   -3.0680 hc        1 5PH      0.066700
     44 H19         2.4480   -1.3380    3.7360 hc        1 5PH      0.130700
     45 H22         4.5370   -1.9220    3.0990 ha        1 5PH      0.160000
     46 H24         6.0780   -3.5180    1.9450 ha        1 5PH      0.130500
     47 H34         5.1690   -5.2310    0.3700 ha        1 5PH      0.126000
     48 H33         2.7140   -5.3450   -0.0620 ha        1 5PH      0.130500
     49 H31         1.1710   -3.7590    1.0780 ha        1 5PH      0.160000
     50 H41        -0.2900   -2.1820    2.8100 hc        1 5PH      0.063200
     51 H42         0.7250   -3.5780    3.3570 hc        1 5PH      0.063200
     52 H11         1.2970   -2.2670    5.4680 hc        1 5PH      0.049700
     53 H12        -0.4160   -2.8210    5.2970 hc        1 5PH      0.049700
     54 H121        0.4780   -0.0170    4.3910 hc        1 5PH      0.062200
     55 H122       -1.2000   -0.6090    4.6910 hc        1 5PH      0.062200
     56 H81         0.9900   -0.5390    6.8960 h1        1 5PH      0.076700
     57 H82        -0.7880   -0.8480    7.1150 h1        1 5PH      0.076700
     58 HN2        -1.1440    1.3530    7.1030 hn        1 5PH      0.403800
     59 H21         3.0450    0.4780    6.5810 ha        1 5PH      0.191000
     60 H10         4.1410    4.4880    3.3350 ho        1 5PH      0.456000
     61 H18         2.9910    5.2650    5.1410 ha        1 5PH      0.165000
     62 H27         1.7040    4.5880    7.1570 ha        1 5PH      0.151000
     63 H132        0.4720    1.8440    1.7830 ho        1 5PH      0.465000
     64 H221       -0.1030    1.6790    5.8890 hn        1 5PH      0.403800
@<TRIPOS>BOND
     1    1    2 2   
     2    2    3 1   
     3    2   12 1   
     4    3    4 1   
     5    3   37 1   
     6    4    5 1   
     7    4    9 1   
     8    4   38 1   
     9    5    6 1   
    10    5   39 1   
    11    5   40 1   
    12    6    7 2   
    13    6    8 1   
    14    8   63 1   
    15    9   10 1   
    16    9   11 2   
    17   10   41 1   
    18   10   42 1   
    19   10   43 1   
    20   12   13 1   
    21   12   19 1   
    22   12   44 1   
    23   13   14 ar  
    24   13   18 ar  
    25   14   15 ar  
    26   14   45 1   
    27   15   16 ar  
    28   15   46 1   
    29   16   17 ar  
    30   16   47 1   
    31   17   18 ar  
    32   17   48 1   
    33   18   49 1   
    34   19   20 1   
    35   19   50 1   
    36   19   51 1   
    37   20   21 1   
    38   20   52 1   
    39   20   53 1   
    40   21   22 1   
    41   21   54 1   
    42   21   55 1   
    43   22   23 1   
    44   22   56 1   
    45   22   57 1   
    46   23   58 1   
    47   23   64 1   
    48   24   25 1   
    49   24   26 1   
    50   24   27 1   
    51   27   28 ar  
    52   27   36 ar  
    53   28   29 ar  
    54   28   59 1   
    55   29   30 1   
    56   29   33 ar  
    57   30   31 1   
    58   30   32 1   
    59   33   34 1   
    60   33   35 ar  
    61   34   60 1   
    62   35   36 ar  
    63   35   61 1   
    64   36   62 1   
@<TRIPOS>SUBSTRUCTURE
     1 5PH         1 TEMP              0 ****  ****    0 ROOT
