@<TRIPOS>MOLECULE
5PH
   62    63     1     0     0
SMALL
bcc


@<TRIPOS>ATOM
      1 O32         3.7510   -0.1130    1.9420 o         1 5PH     -0.657100
      2 C16         4.0710   -0.0030    0.7350 c         1 5PH      0.654100
      3 N13         5.3540    0.3250    0.3510 n         1 5PH     -0.517900
      4 C9          6.4800    0.0570    1.2240 c3        1 5PH      0.023700
      5 C25         7.7530   -0.3020    0.4500 c3        1 5PH     -0.212400
      6 C26         7.5420   -1.4560   -0.5460 c         1 5PH      0.911600
      7 O30         8.2100   -2.5120   -0.3770 o         1 5PH     -0.847800
      8 O28         6.7290   -1.2840   -1.5060 o         1 5PH     -0.847800
      9 C35         6.7700    1.2620    2.1300 c         1 5PH      0.568100
     10 C36         6.2690    1.1210    3.5310 c3        1 5PH     -0.213100
     11 O5          7.3740    2.2670    1.7440 o         1 5PH     -0.554100
     12 C19         3.0280   -0.2220   -0.3700 c3        1 5PH     -0.089400
     13 C20         3.1950    0.7260   -1.5140 ca        1 5PH     -0.078300
     14 C22         4.0930    0.3950   -2.5420 ca        1 5PH     -0.118500
     15 C24         4.2550    1.2460   -3.6340 ca        1 5PH     -0.136500
     16 C34         3.5300    2.4340   -3.7150 ca        1 5PH     -0.141000
     17 C33         2.6460    2.7740   -2.6930 ca        1 5PH     -0.136500
     18 C31         2.4810    1.9270   -1.5970 ca        1 5PH     -0.118500
     19 C4          1.6340   -0.2210    0.2420 c3        1 5PH     -0.067400
     20 C1          0.5680   -0.6240   -0.7550 c3        1 5PH     -0.082400
     21 C12        -0.8060   -0.6090   -0.1180 c3        1 5PH     -0.094400
     22 C8         -1.8660   -0.9980   -1.1510 c3        1 5PH      0.229800
     23 N2         -3.2080   -1.0290   -0.6500 n3        1 5PH     -0.920100
     24 S7         -4.4710   -0.3490   -1.4160 sy        1 5PH      1.537200
     25 O3         -5.0870   -1.2910   -2.2690 o         1 5PH     -0.684300
     26 O6         -4.0430    0.8250   -2.0920 o         1 5PH     -0.684300
     27 C11        -5.4670    0.0390   -0.1510 ca        1 5PH     -0.490500
     28 C21        -6.3640   -0.8880    0.4050 ca        1 5PH      0.053000
     29 C23        -7.2140   -0.5610    1.4570 ca        1 5PH     -0.255600
     30 C29        -8.1410   -1.6230    2.0180 c         1 5PH      0.921200
     31 O17        -8.0530   -2.7950    1.5700 o         1 5PH     -0.827300
     32 O14        -8.9660   -1.2790    2.9240 o         1 5PH     -0.827300
     33 C15        -7.1760    0.7530    1.9680 ca        1 5PH      0.249100
     34 O10        -7.9560    1.2030    2.9850 oh        1 5PH     -0.541100
     35 C18        -6.2820    1.7060    1.4210 ca        1 5PH     -0.237000
     36 C27        -5.4490    1.3410    0.3840 ca        1 5PH      0.007000
     37 H13         5.5820    0.2240   -0.6270 hn        1 5PH      0.356500
     38 H9          6.2170   -0.8130    1.9020 h1        1 5PH      0.061700
     39 H251        8.1140    0.5930   -0.1170 hc        1 5PH      0.047200
     40 H252        8.5380   -0.5930    1.1910 hc        1 5PH      0.047200
     41 H361        6.4170    2.0630    4.1110 hc        1 5PH      0.062700
     42 H362        5.1770    0.8670    3.4990 hc        1 5PH      0.062700
     43 H363        6.8120    0.2890    4.0400 hc        1 5PH      0.062700
     44 H19         3.2330   -1.2680   -0.7560 hc        1 5PH      0.087700
     45 H22         4.7020   -0.5290   -2.4740 ha        1 5PH      0.160000
     46 H24         4.9680    0.9770   -4.4260 ha        1 5PH      0.124000
     47 H34         3.6580    3.1020   -4.5780 ha        1 5PH      0.114000
     48 H33         2.0750    3.7120   -2.7460 ha        1 5PH      0.124000
     49 H31         1.7830    2.2120   -0.7960 ha        1 5PH      0.160000
     50 H41         1.6310   -0.9390    1.1070 hc        1 5PH      0.055200
     51 H42         1.4040    0.7900    0.6680 hc        1 5PH      0.055200
     52 H11         0.5880    0.0810   -1.6290 hc        1 5PH      0.044700
     53 H12         0.7910   -1.6500   -1.1500 hc        1 5PH      0.044700
     54 H121       -0.8300   -1.3240    0.7450 hc        1 5PH      0.044200
     55 H122       -1.0240    0.4130    0.2880 hc        1 5PH      0.044200
     56 H81        -1.8210   -0.2620   -2.0070 h1        1 5PH      0.044200
     57 H82        -1.5970   -2.0170   -1.5600 h1        1 5PH      0.044200
     58 HN2        -3.3040   -1.4990    0.2150 hn        1 5PH      0.442800
     59 H21        -6.4200   -1.9180    0.0010 ha        1 5PH      0.172000
     60 H10        -8.5490    0.4770    3.2920 ho        1 5PH      0.493000
     61 H18        -6.2700    2.7240    1.8330 ha        1 5PH      0.134000
     62 H27        -4.7580    2.0830   -0.0520 ha        1 5PH      0.137000
@<TRIPOS>BOND
     1    1    2 2   
     2    2    3 1   
     3    2   12 1   
     4    3    4 1   
     5    3   37 1   
     6    4    5 1   
     7    4    9 1   
     8    4   38 1   
     9    5    6 1   
    10    5   39 1   
    11    5   40 1   
    12    6    7 1   
    13    6    8 1   
    14    9   10 1   
    15    9   11 2   
    16   10   41 1   
    17   10   42 1   
    18   10   43 1   
    19   12   13 1   
    20   12   19 1   
    21   12   44 1   
    22   13   14 ar  
    23   13   18 ar  
    24   14   15 ar  
    25   14   45 1   
    26   15   16 ar  
    27   15   46 1   
    28   16   17 ar  
    29   16   47 1   
    30   17   18 ar  
    31   17   48 1   
    32   18   49 1   
    33   19   20 1   
    34   19   50 1   
    35   19   51 1   
    36   20   21 1   
    37   20   52 1   
    38   20   53 1   
    39   21   22 1   
    40   21   54 1   
    41   21   55 1   
    42   22   23 1   
    43   22   56 1   
    44   22   57 1   
    45   23   24 1   
    46   23   58 1   
    47   24   25 2   
    48   24   26 2   
    49   24   27 1   
    50   27   28 ar  
    51   27   36 ar  
    52   28   29 ar  
    53   28   59 1   
    54   29   30 1   
    55   29   33 ar  
    56   30   31 1   
    57   30   32 1   
    58   33   34 1   
    59   33   35 ar  
    60   34   60 1   
    61   35   36 ar  
    62   35   61 1   
    63   36   62 1   
@<TRIPOS>SUBSTRUCTURE
     1 5PH         1 TEMP              0 ****  ****    0 ROOT
