@<TRIPOS>MOLECULE
5PI
   87    80     1     0     0
SMALL
bcc


@<TRIPOS>ATOM
      1 C14        43.6260 -142.3150   17.1050 c1        1 5PI      0.343000
      2 O1         44.0860 -143.4070   16.8260 o         1 5PI     -0.365000
      3 N5         42.9440 -146.1420   17.0620 n3        1 5PI     -0.380000
      4 C15        42.8000 -145.8650   15.6740 c3        1 5PI      0.024000
      5 C18        42.6750 -147.1390   14.8100 c3        1 5PI     -0.171000
      6 C19        43.8430 -148.0740   15.0710 c3        1 5PI     -0.169000
      7 C20        41.5270 -145.0290   15.3470 c2        1 5PI      0.184000
      8 O5         40.3850 -145.4610   15.3030 o         1 5PI     -0.170000
      9 N6         41.6990 -143.5670   15.1040 n4        1 5PI     -0.139000
     10 C21        44.2840 -143.5140   12.5960 c1        1 5PI     -0.237000
     11 C16        57.6100   12.1950  600.3560 c2        1 5PI     -0.118000
     12 C17        58.6300   12.7350  600.9420 c1        1 5PI     -0.072000
     13 C22        59.6920   13.2760  601.5080 c2        1 5PI      0.087000
     14 C23        60.9650   13.2960  600.9030 c1        1 5PI     -0.173000
     15 C24        62.0370   13.3030  600.3710 c1        1 5PI     -0.111000
     16 C25        44.6840 -143.5130   13.7250 c1        1 5PI     -0.237000
     17 N1         59.5620   15.6470  606.4120 n4        1 5PI     -0.121000
     18 C2         43.8650 -149.1700   14.0460 c2        1 5PI      0.253000
     19 O2         43.2790 -149.2460   12.9820 o         1 5PI     -0.136000
     20 N3         44.7590 -150.3550   14.3660 n4        1 5PI     -0.151000
     21 C1       -294.8070  271.4780 -219.9660 c3        1 5PI     -0.214000
     22 N4         42.4320 -140.0840   17.5020 n4        1 5PI     -0.251000
     23 C5         42.8630 -141.3250   17.0920 c1        1 5PI     -0.821000
     24 O4         41.9330 -139.0570   15.2230 o         1 5PI     -0.885000
     25 O3         40.7160 -141.0550   15.6780 o         1 5PI     -0.885000
     26 C9         40.0700 -139.0020   16.9860 c3        1 5PI     -0.926000
     27 C8         40.5080 -137.6550   17.5110 c3        1 5PI     -0.207000
     28 N2         59.5410   14.3830  603.8450 n1        1 5PI     -0.237000
     29 C13      -299.0100  274.4700 -221.4670 c3        1 5PI     -0.113000
     30 C12      -297.7000  275.0020 -221.3450 c1        1 5PI      0.246000
     31 C3       -296.4520  274.8030 -221.0540 c2        1 5PI     -0.060000
     32 C4       -296.2830  273.3570 -220.6830 c2        1 5PI     -0.061000
     33 C27      -297.4880  272.5410 -220.7100 c2        1 5PI     -0.249000
     34 C6       -298.7140  273.0050 -221.0520 c2        1 5PI      0.089000
     35 N7       -292.9560  274.4100 -220.3350 n1        1 5PI      0.083000
     36 C29      -293.9110  273.7440 -220.3470 c1        1 5PI     -0.174000
     37 C28      -295.0500  272.8900 -220.3490 c2        1 5PI      0.143000
     38 C7        438.4840   32.3810 -633.5360 c3        1 5PI     -0.517000
     39 C10       438.6150   31.1550 -634.4540 c3        1 5PI     -0.191000
     40 C11       437.7610   32.1380 -632.3680 c1        1 5PI      0.744000
     41 HN5        43.3440 -145.3890   17.5860 hn        1 5PI      0.213000
     42 H15        43.7140 -145.2810   15.3350 h1        1 5PI      0.155000
     43 H181       42.6570 -146.8360   13.7290 hc        1 5PI      0.130500
     44 H182       41.7060 -147.6620   15.0330 hc        1 5PI      0.130500
     45 H191       43.7660 -148.5050   16.1090 hc        1 5PI      0.159000
     46 H192       44.8160 -147.5080   15.0080 hc        1 5PI      0.159000
     47 HN6        40.9400 -143.1890   14.5190 hn        1 5PI      0.281000
     48 H211       43.9510 -143.5030   11.5840 ha        1 5PI      0.242500
     49 H212       42.6100 -143.3730   14.6640 hn        1 5PI      0.281000
     50 H16        56.9440   12.7660  599.6870 ha        1 5PI      0.172000
     51 H17        57.3500   11.1300  600.4880 ha        1 5PI      0.172000
     52 H23        62.9890   13.3080  599.8970 ha        1 5PI      0.243000
     53 H24        45.0980 -143.4750   14.7080 ha        1 5PI      0.242500
     54 HN11       60.1280   15.0870  607.0510 hn        1 5PI      0.270250
     55 HN12       59.9770   16.5740  606.3100 hn        1 5PI      0.270250
     56 HN31       44.4120 -150.8420   15.2000 hn        1 5PI      0.272667
     57 HN32       45.7180 -150.0400   14.5430 hn        1 5PI      0.272667
     58 H11      -293.7290  271.3020 -219.7220 hc        1 5PI      0.129667
     59 H12A     -295.0930  270.7950 -220.8080 hc        1 5PI      0.129667
     60 HN4        43.1990 -139.4000   17.4980 hn        1 5PI      0.236500
     61 H5       -295.4190  271.2100 -219.0660 hc        1 5PI      0.129667
     62 H91        39.6180 -139.5850   17.8380 h1        1 5PI      0.200500
     63 H92        39.1760 -138.8150   16.3110 h1        1 5PI      0.200500
     64 H81        39.6160 -137.0580   17.8310 hc        1 5PI      0.113667
     65 H82        41.0390 -137.0710   16.7170 hc        1 5PI      0.113667
     66 H83        41.1730 -137.7620   18.4010 hc        1 5PI      0.113667
     67 HN2        59.5270   15.1770  605.4750 hn        1 5PI      0.270250
     68 H13      -299.7740  274.9140 -220.7650 hc        1 5PI      0.199000
     69 H12      -295.5870  275.4930 -221.0460 ha        1 5PI      0.266000
     70 H27      -297.3580  271.4800 -220.4290 ha        1 5PI      0.194000
     71 HN7      -294.8400  277.3850 -221.2340 ha        1 5PI      0.002000
     72 H29      -294.3130  277.8110 -221.2140 ha        1 5PI      0.002000
     73 H71      -299.7110  271.3840 -220.8350 ho        1 5PI      0.265000
     74 H72      -299.4390  274.4900 -222.5100 hc        1 5PI      0.199000
     75 H101      439.2080   31.4550 -635.3560 hc        1 5PI      0.140000
     76 H102      438.0130   33.2360 -634.1450 hc        1 5PI      0.272000
     77 H111      439.5420   32.7640 -633.2970 hc        1 5PI      0.272000
     78 H112      437.6080   30.8050 -634.7870 hc        1 5PI      0.140000
     79 H113      439.1520   30.3280 -633.9290 hc        1 5PI      0.140000
     80 S1         41.2380 -139.8380   16.1240 s6        1 5PI      2.804000
     81 O6       -299.8790  272.3070 -221.0980 oh        1 5PI     -0.205000
     82 H52        42.1430 -146.5480   17.4950 hn        1 5PI      0.213000
     83 H62        41.6600 -143.0370   15.9980 hn        1 5PI      0.281000
     84 H131       58.6140   15.7350  606.7830 hn        1 5PI      0.270250
     85 H33        44.7640 -151.0170   13.5750 hn        1 5PI      0.272667
     86 H42        42.0500 -140.1070   18.4500 hn        1 5PI      0.236500
     87 C26        59.6000   13.8840  602.7970 c1        1 5PI      0.078000
@<TRIPOS>BOND
     1    1    2 1   
     2    1   23 1   
     3    3    4 1   
     4    3   41 1   
     5    3   82 1   
     6    4    5 1   
     7    4    7 1   
     8    4   42 1   
     9    5    6 1   
    10    5   43 1   
    11    5   44 1   
    12    6   18 1   
    13    6   45 1   
    14    6   46 1   
    15    7    8 1   
    16    7    9 1   
    17    9   47 1   
    18    9   49 1   
    19    9   83 1   
    20   10   16 1   
    21   10   48 1   
    22   11   12 1   
    23   11   50 1   
    24   11   51 1   
    25   12   13 1   
    26   13   14 1   
    27   13   87 1   
    28   14   15 1   
    29   15   52 1   
    30   16   53 1   
    31   17   54 1   
    32   17   55 1   
    33   17   67 1   
    34   17   84 1   
    35   18   19 1   
    36   18   20 1   
    37   20   56 1   
    38   20   57 1   
    39   20   85 1   
    40   21   37 1   
    41   21   58 1   
    42   21   59 1   
    43   21   61 1   
    44   22   23 1   
    45   22   60 1   
    46   22   80 1   
    47   22   86 1   
    48   24   80 1   
    49   25   80 1   
    50   26   27 1   
    51   26   62 1   
    52   26   63 1   
    53   26   80 1   
    54   27   64 1   
    55   27   65 1   
    56   27   66 1   
    57   28   87 1   
    58   29   30 1   
    59   29   34 1   
    60   29   68 1   
    61   29   74 1   
    62   30   31 1   
    63   31   32 1   
    64   31   69 1   
    65   32   33 1   
    66   32   37 1   
    67   33   34 1   
    68   33   70 1   
    69   34   81 1   
    70   35   36 1   
    71   36   37 1   
    72   38   39 1   
    73   38   40 1   
    74   38   76 1   
    75   38   77 1   
    76   39   75 1   
    77   39   78 1   
    78   39   79 1   
    79   71   72 1   
    80   73   81 1   
@<TRIPOS>SUBSTRUCTURE
     1 5PI         1 TEMP              0 ****  ****    0 ROOT
