@<TRIPOS>MOLECULE
5PI
   82    84     1     0     0
SMALL
bcc


@<TRIPOS>ATOM
      1 C14        -1.0460    0.5810    0.0770 c         1 5PI      0.648100
      2 O1         -0.8330    1.8060   -0.0270 o         1 5PI     -0.617100
      3 N5         -0.7130   -0.3010   -0.9240 n         1 5PI     -0.555900
      4 C15        -0.2450    0.1480   -2.2130 c3        1 5PI      0.035700
      5 C18         1.2780    0.0380   -2.3980 c3        1 5PI     -0.088400
      6 C19         2.0170    0.8960   -1.3950 c3        1 5PI     -0.153400
      7 C20        -0.8910   -0.6850   -3.3500 c         1 5PI      0.641100
      8 O5         -1.2560   -1.8630   -3.1630 o         1 5PI     -0.611100
      9 N6         -1.0510   -0.0530   -4.5610 n         1 5PI     -0.556900
     10 C21        -1.5240   -0.7460   -5.7310 c3        1 5PI      0.129300
     11 C16         0.6980   -0.6700   -6.9300 ca        1 5PI     -0.123000
     12 C17         1.4520   -0.4920   -8.0890 ca        1 5PI     -0.100000
     13 C22         0.8160   -0.1610   -9.2890 ca        1 5PI     -0.128900
     14 C23        -0.5750   -0.0160   -9.3260 ca        1 5PI     -0.100000
     15 C24        -1.3240   -0.1930   -8.1650 ca        1 5PI     -0.123000
     16 C25        -0.6920   -0.5200   -6.9600 ca        1 5PI     -0.106300
     17 N1          1.4440    1.2800  -11.1580 nh        1 5PI     -0.961800
     18 C2          3.4100    1.2380   -1.8900 c         1 5PI      0.658100
     19 O2          3.7370    1.1430   -3.0910 o         1 5PI     -0.622100
     20 N3          4.3250    1.6840   -0.9680 n         1 5PI     -0.676000
     21 C1         -0.4300   -0.2500    2.3180 c3        1 5PI     -0.017200
     22 N4         -2.6570    0.8340    1.9090 n3        1 5PI     -0.912100
     23 C5         -1.6340   -0.0230    1.3810 c3        1 5PI      0.185500
     24 O4         -5.1150    1.1440    2.0070 o         1 5PI     -0.657300
     25 O3         -4.2090   -1.0650    2.2970 o         1 5PI     -0.657300
     26 C9         -3.9130    0.6310    4.1820 c3        1 5PI     -0.321600
     27 C8         -5.1740    0.2680    4.9190 c3        1 5PI     -0.073100
     28 N2          2.4440   -0.9160  -10.8870 n2        1 5PI     -0.826100
     29 C13         0.7960   -1.2770    7.4250 ca        1 5PI     -0.180000
     30 C12        -0.1900   -2.1300    6.9520 ca        1 5PI     -0.107000
     31 C3         -0.6300   -1.9690    5.6320 ca        1 5PI     -0.082200
     32 C4         -0.0710   -0.9420    4.7790 ca        1 5PI     -0.054800
     33 C27         0.9180   -0.0960    5.2720 ca        1 5PI     -0.126000
     34 C6          1.3410   -0.2740    6.5950 ca        1 5PI      0.107100
     35 N7         -1.5960   -2.6630    4.8940 na        1 5PI     -0.186400
     36 C29        -1.6550   -2.1140    3.6160 cc        1 5PI     -0.087100
     37 C28        -0.7440   -1.0600    3.5000 cd        1 5PI     -0.186400
     38 C7          2.8310    0.4290    8.3250 c3        1 5PI      0.129400
     39 C10         3.9120    1.4820    8.5050 c3        1 5PI     -0.086400
     40 C11         4.5200    1.3840    9.8790 c3        1 5PI     -0.094100
     41 HN5        -0.9550   -1.2650   -0.8500 hn        1 5PI      0.338500
     42 H15        -0.5360    1.2400   -2.3230 h1        1 5PI      0.095700
     43 H181        1.6040   -1.0300   -2.3020 hc        1 5PI      0.073200
     44 H182        1.5310    0.3740   -3.4400 hc        1 5PI      0.073200
     45 H191        1.4610    1.8590   -1.2240 hc        1 5PI      0.075700
     46 H192        2.0720    0.3640   -0.4090 hc        1 5PI      0.075700
     47 HN6        -0.6520    0.8470   -4.6940 hn        1 5PI      0.318500
     48 H211       -1.5580   -1.8550   -5.5150 h1        1 5PI      0.072700
     49 H212       -2.5840   -0.4040   -5.9300 h1        1 5PI      0.072700
     50 H16         1.2060   -0.9380   -5.9900 ha        1 5PI      0.139500
     51 H17         2.5460   -0.6200   -8.0620 ha        1 5PI      0.144000
     52 H23        -1.0860    0.2230  -10.2710 ha        1 5PI      0.144000
     53 H24        -2.4180   -0.0800   -8.2000 ha        1 5PI      0.139500
     54 HN11        1.6850    1.3500  -12.1180 hn        1 5PI      0.400800
     55 HN12        0.6310    1.7850  -10.8950 hn        1 5PI      0.400800
     56 HN31        5.2330    1.9390   -1.2650 hn        1 5PI      0.312500
     57 HN32        4.0840    1.7900   -0.0180 hn        1 5PI      0.312500
     58 H11        -0.0120    0.7430    2.6390 hc        1 5PI      0.063200
     59 H12A        0.3700   -0.7710    1.7200 hc        1 5PI      0.063200
     60 HN4        -2.4190    1.7990    1.8510 hn        1 5PI      0.465800
     61 H5         -2.1080   -1.0300    1.1610 h1        1 5PI      0.088700
     62 H91        -3.0570    0.0440    4.6170 h1        1 5PI      0.116200
     63 H92        -3.6750    1.7060    4.3960 h1        1 5PI      0.116200
     64 H81        -5.0560    0.4610    6.0120 hc        1 5PI      0.052033
     65 H82        -6.0350    0.8760    4.5450 hc        1 5PI      0.052033
     66 H83        -5.4110   -0.8160    4.7790 hc        1 5PI      0.052033
     67 HN2         2.9690   -0.7630  -11.7220 hn        1 5PI      0.383400
     68 H13         1.1480   -1.3930    8.4590 ha        1 5PI      0.138000
     69 H12        -0.6120   -2.9100    7.6000 ha        1 5PI      0.135000
     70 H27         1.3600    0.6930    4.6490 ha        1 5PI      0.149000
     71 HN7        -2.1360   -3.4170    5.2240 hn        1 5PI      0.304700
     72 H29        -2.3740   -2.4970    2.8810 h4        1 5PI      0.196000
     73 H71         3.2560   -0.6040    8.4250 h1        1 5PI      0.037200
     74 H72         2.0050    0.5710    9.0710 h1        1 5PI      0.037200
     75 H101        3.4660    2.4990    8.3470 hc        1 5PI      0.056200
     76 H102        4.6990    1.3400    7.7190 hc        1 5PI      0.056200
     77 H111        5.3130    2.1610   10.0020 hc        1 5PI      0.037033
     78 H112        3.7450    1.5440   10.6680 hc        1 5PI      0.037033
     79 H113        4.9820    0.3800   10.0380 hc        1 5PI      0.037033
     80 C26         1.6240    0.0280  -10.5360 ce        1 5PI      0.652800
     81 S1         -4.0770    0.3300    2.4980 s6        1 5PI      1.461900
     82 O6          2.3200    0.6170    7.0020 os        1 5PI     -0.334900
@<TRIPOS>BOND
     1    1    2 2   
     2    1    3 1   
     3    1   23 1   
     4    3    4 1   
     5    3   41 1   
     6    4    5 1   
     7    4    7 1   
     8    4   42 1   
     9    5    6 1   
    10    5   43 1   
    11    5   44 1   
    12    6   18 1   
    13    6   45 1   
    14    6   46 1   
    15    7    8 2   
    16    7    9 1   
    17    9   10 1   
    18    9   47 1   
    19   10   16 1   
    20   10   48 1   
    21   10   49 1   
    22   11   12 ar  
    23   11   16 ar  
    24   11   50 1   
    25   12   13 ar  
    26   12   51 1   
    27   13   14 ar  
    28   13   80 1   
    29   14   15 ar  
    30   14   52 1   
    31   15   16 ar  
    32   15   53 1   
    33   17   54 1   
    34   17   55 1   
    35   17   80 1   
    36   18   19 2   
    37   18   20 1   
    38   20   56 1   
    39   20   57 1   
    40   21   23 1   
    41   21   37 1   
    42   21   58 1   
    43   21   59 1   
    44   22   23 1   
    45   22   60 1   
    46   22   81 1   
    47   23   61 1   
    48   24   81 2   
    49   25   81 2   
    50   26   27 1   
    51   26   62 1   
    52   26   63 1   
    53   26   81 1   
    54   27   64 1   
    55   27   65 1   
    56   27   66 1   
    57   28   67 1   
    58   28   80 2   
    59   29   30 ar  
    60   29   34 ar  
    61   29   68 1   
    62   30   31 ar  
    63   30   69 1   
    64   31   32 ar  
    65   31   35 1   
    66   32   33 ar  
    67   32   37 1   
    68   33   34 ar  
    69   33   70 1   
    70   34   82 1   
    71   35   36 1   
    72   35   71 1   
    73   36   37 2   
    74   36   72 1   
    75   38   39 1   
    76   38   73 1   
    77   38   74 1   
    78   38   82 1   
    79   39   40 1   
    80   39   75 1   
    81   39   76 1   
    82   40   77 1   
    83   40   78 1   
    84   40   79 1   
@<TRIPOS>SUBSTRUCTURE
     1 5PI         1 TEMP              0 ****  ****    0 ROOT
