@<TRIPOS>MOLECULE
5PI
   82    71     1     0     0
SMALL
bcc


@<TRIPOS>ATOM
      1 C14        -1.2260    0.9850    0.0150 c1        1 5PI      0.290000
      2 O1         -0.0380    1.1370   -0.1830 o         1 5PI     -0.377000
      3 N5         -1.7060    0.6130    1.3510 n2        1 5PI     -0.366000
      4 C15        -0.7650    0.1760    2.3660 c3        1 5PI      0.011000
      5 C18        -0.6110    1.2460    3.3980 c3        1 5PI     -0.163000
      6 C19         0.8830    1.4600    3.6960 c3        1 5PI     -0.182000
      7 C20        -1.2790   -1.1030    3.0260 c2        1 5PI      0.278000
      8 O5         -2.3800   -1.1110    3.5770 o         1 5PI     -0.387000
      9 N6         -0.4380   -2.2770    3.0720 n         1 5PI     -0.362000
     10 C21        -0.9270   -3.4940    3.6950 c3        1 5PI      0.002000
     11 C16         0.1430   -4.1270    5.8810 c1        1 5PI     -0.117000
     12 C17         1.1290   -4.7330    6.6840 c1        1 5PI     -0.096000
     13 C22         2.2010   -5.3870    6.0910 c1        1 5PI     -0.107000
     14 C23         2.3000   -5.4410    4.6880 c1        1 5PI     -0.120500
     15 C24         1.3260   -4.8420    3.8990 c1        1 5PI     -0.120500
     16 C25         0.2430   -4.1830    4.5010 c1        1 5PI     -0.102000
     17 C26         3.2940   -5.9980    6.9570 c2        1 5PI      0.114000
     18 N1          4.3820   -5.1900    7.4100 n3        1 5PI     -0.330000
     19 C2          1.0330    2.2650    4.9530 c2        1 5PI      0.299000
     20 O2          0.3470    2.0050    5.9260 o         1 5PI     -0.376000
     21 N3          2.0720    3.2300    5.0570 n         1 5PI     -0.435000
     22 C1         -1.6360    2.0520   -2.2020 c3        1 5PI     -0.081000
     23 N4         -2.5140   -0.1020   -1.7020 n3        1 5PI     -0.893000
     24 C5         -2.2280    1.1570   -1.1410 c3        1 5PI      0.043000
     25 S1         -4.0230   -0.7870   -1.4950 s4        1 5PI      2.029800
     26 O4         -4.9720   -0.2490   -2.4250 o         1 5PI     -0.550400
     27 O3         -4.6080   -0.3950   -0.2420 o         1 5PI     -0.550400
     28 C9         -3.9200   -2.5670   -1.6280 c2        1 5PI     -0.868000
     29 C8         -5.1740   -3.1850   -1.0380 c3        1 5PI     -0.190000
     30 N2          3.2370   -7.2460    7.2830 n1        1 5PI     -0.299000
     31 C13         1.5510    2.9210   -6.1450 c1        1 5PI     -0.144000
     32 C12         1.7010    1.6210   -5.7080 c1        1 5PI     -0.119000
     33 C3          0.9600    1.1620   -4.6200 c1        1 5PI     -0.045000
     34 C4          0.0860    2.0030   -3.9880 c1        1 5PI     -0.045000
     35 C27        -0.0630    3.3190   -4.4340 c1        1 5PI     -0.119000
     36 C6          0.6680    3.7670   -5.5070 c1        1 5PI      0.031000
     37 N7          0.9120   -0.0700   -3.9810 n1        1 5PI     -0.213000
     38 C29        -0.0040    0.0190   -2.9450 c1        1 5PI     -0.032000
     39 C28        -0.5180    1.2920   -2.9430 c1        1 5PI     -0.185000
     40 O6          1.1220    5.0610   -5.6730 os        1 5PI     -0.225000
     41 C7          0.9050    5.5770   -6.9500 c3        1 5PI     -0.018000
     42 C10         2.1090    6.4780   -7.3500 c3        1 5PI     -0.194000
     43 C11         2.5930    6.1000   -8.7230 c3        1 5PI     -0.209000
     44 HN5        -2.6030    0.6050    1.5270 hn        1 5PI      0.258000
     45 H15         0.1010    0.0000    1.9520 h1        1 5PI      0.141000
     46 H181       -1.0070    2.0930    3.0580 hc        1 5PI      0.103000
     47 H182       -1.0750    0.9750    4.2230 hc        1 5PI      0.103000
     48 H191        1.3210    0.5890    3.8110 hc        1 5PI      0.117000
     49 H192        1.3030    1.9420    2.9440 hc        1 5PI      0.117000
     50 HN6         0.3520   -2.2840    2.6290 hn        1 5PI      0.225000
     51 H211       -1.6550   -3.2760    4.3020 h1        1 5PI      0.112500
     52 H212       -1.2510   -4.1050    3.0040 h1        1 5PI      0.112500
     53 H16        -0.5980   -3.6770    6.2890 ha        1 5PI      0.145000
     54 H17         1.0580   -4.6930    7.6590 ha        1 5PI      0.153000
     55 H23         3.0490   -5.8970    4.2700 ha        1 5PI      0.138000
     56 H24         1.3940   -4.8810    2.9250 ha        1 5PI      0.138000
     57 HN11        4.5320   -4.3730    7.0310 hn        1 5PI      0.194500
     58 HN12        4.8920   -5.4660    8.1200 hn        1 5PI      0.194500
     59 HN31        2.2730    3.5940    5.8650 hn        1 5PI      0.227000
     60 HN32        2.5740    3.4430    4.3220 hn        1 5PI      0.227000
     61 H11        -1.2620    2.8630   -1.7820 hc        1 5PI      0.107000
     62 H12A       -2.3390    2.3090   -2.8450 hc        1 5PI      0.107000
     63 HN4        -1.8950   -0.5080   -2.2580 hn        1 5PI      0.261000
     64 H5         -3.0560    1.5600   -0.7960 h1        1 5PI      0.117000
     65 H91        -3.1330   -2.8880   -1.1370 ha        1 5PI      0.168500
     66 H92        -3.8420   -2.8220   -2.5720 ha        1 5PI      0.168500
     67 H81        -5.1730   -4.1590   -1.2070 hc        1 5PI      0.092667
     68 H82        -5.1950   -3.0190   -0.0720 hc        1 5PI      0.092667
     69 H83        -5.9650   -2.7810   -1.4560 hc        1 5PI      0.092667
     70 HN2         2.5530   -7.7540    6.9990 DU        1 5PI      0.198000
     71 H13         2.0770    3.2480   -6.9190 ha        1 5PI      0.140000
     72 H12         2.3190    1.0270   -6.1570 ha        1 5PI      0.145000
     73 H27        -0.6830    3.9170   -3.9860 ha        1 5PI      0.145000
     74 HN7         1.3950   -0.8020   -4.2010 DU        1 5PI      0.198000
     75 H29        -0.2940   -0.7120   -2.3790 DU        1 5PI      0.198000
     76 H71         0.8170    4.8260   -7.6020 h1        1 5PI      0.089000
     77 H72         0.0720    6.1170   -6.9520 h1        1 5PI      0.089000
     78 H101        2.8400    6.3550   -6.6980 hc        1 5PI      0.093500
     79 H102        1.8300    7.4090   -7.3520 hc        1 5PI      0.093500
     80 H111        1.8870    6.2630   -9.3720 hc        1 5PI      0.073667
     81 H112        3.3850    6.6440   -8.9530 hc        1 5PI      0.073667
     82 H113        2.8340    5.1590   -8.7360 hc        1 5PI      0.073667
@<TRIPOS>BOND
     1    1    2 1   
     2    1   24 1   
     3    3    4 1   
     4    3   44 1   
     5    4    5 1   
     6    4    7 1   
     7    4   45 1   
     8    5    6 1   
     9    5   46 1   
    10    5   47 1   
    11    6   19 1   
    12    6   48 1   
    13    6   49 1   
    14    7    8 1   
    15    7    9 1   
    16    9   10 1   
    17    9   50 1   
    18   10   16 1   
    19   10   51 1   
    20   10   52 1   
    21   11   16 1   
    22   11   53 1   
    23   12   13 1   
    24   12   54 1   
    25   13   17 1   
    26   14   15 1   
    27   14   55 1   
    28   15   56 1   
    29   17   18 1   
    30   17   30 1   
    31   18   57 1   
    32   18   58 1   
    33   19   20 1   
    34   19   21 1   
    35   21   59 1   
    36   21   60 1   
    37   22   24 1   
    38   22   39 1   
    39   22   61 1   
    40   22   62 1   
    41   23   24 1   
    42   23   25 1   
    43   23   63 1   
    44   24   64 1   
    45   25   26 1   
    46   25   27 1   
    47   28   29 1   
    48   28   65 1   
    49   28   66 1   
    50   29   67 1   
    51   29   68 1   
    52   29   69 1   
    53   31   36 1   
    54   31   71 1   
    55   32   33 1   
    56   32   72 1   
    57   34   35 1   
    58   35   73 1   
    59   36   40 1   
    60   37   38 1   
    61   38   39 1   
    62   40   41 1   
    63   41   42 1   
    64   41   76 1   
    65   41   77 1   
    66   42   43 1   
    67   42   78 1   
    68   42   79 1   
    69   43   80 1   
    70   43   81 1   
    71   43   82 1   
@<TRIPOS>SUBSTRUCTURE
     1 5PI         1 TEMP              0 ****  ****    0 ROOT
