@<TRIPOS>MOLECULE
5PM
   47    50     1     0     0
SMALL
bcc


@<TRIPOS>ATOM
      1 N11         0.5280    0.2680   -0.1570 nb        1 5PM     -0.627500
      2 N12        -2.4560    0.4290   -0.0080 ne        1 5PM     -0.534600
      3 N13       -10.5130   -4.6710    3.4260 ne        1 5PM     -0.534600
      4 N14       -11.0700   -6.9740    5.2450 nb        1 5PM     -0.627500
      5 C1A         1.8280    0.5970   -0.0540 ca        1 5PM      0.393200
      6 C1B         2.4320    1.0480    1.1350 ca        1 5PM     -0.238300
      7 C1C         1.6410    1.1550    2.2790 ca        1 5PM     -0.094500
      8 C1D         0.2900    0.8130    2.2020 ca        1 5PM     -0.230800
      9 C1E        -0.2290    0.3780    0.9630 ca        1 5PM      0.357500
     10 C1F        -1.6680    0.0100    0.9210 cf        1 5PM      0.372200
     11 C1G        -3.8210    0.0650   -0.0260 ca        1 5PM      0.119400
     12 C1H        -4.3010   -1.1890    0.4080 ca        1 5PM     -0.116250
     13 C1I        -5.6490   -1.5100    0.2970 ca        1 5PM     -0.113750
     14 C1J        -6.5620   -0.5930   -0.2300 ca        1 5PM     -0.033600
     15 C1K        -6.0920    0.6580   -0.6580 ca        1 5PM     -0.113750
     16 C1L        -4.7460    0.9840   -0.5730 ca        1 5PM     -0.116250
     17 S1M        -8.2070   -0.8880   -0.5100 ss        1 5PM     -0.082800
     18 C1N        -8.7500   -2.0080    0.6420 ca        1 5PM     -0.033600
     19 C1O        -8.2530   -2.1440    1.9410 ca        1 5PM     -0.113750
     20 C1P        -8.8280   -3.0350    2.8400 ca        1 5PM     -0.116250
     21 C1Q        -9.9340   -3.8250    2.4540 ca        1 5PM      0.119400
     22 C1R       -10.4370   -3.6780    1.1420 ca        1 5PM     -0.116250
     23 C1S        -9.8490   -2.7870    0.2540 ca        1 5PM     -0.113750
     24 C1T       -11.0870   -5.7750    3.0960 cf        1 5PM      0.372200
     25 C1U       -11.7280   -6.6640    4.1000 ca        1 5PM      0.357500
     26 C1V       -13.0100   -7.1680    3.7900 ca        1 5PM     -0.230800
     27 C1W       -13.6360   -8.0160    4.7050 ca        1 5PM     -0.094500
     28 C1X       -12.9720   -8.3420    5.8880 ca        1 5PM     -0.238300
     29 C1Y       -11.6920   -7.7980    6.1060 ca        1 5PM      0.393200
     30 H1A         2.4160    0.4940   -0.9840 h4        1 5PM      0.026100
     31 H1B         3.4980    1.3060    1.1530 ha        1 5PM      0.146000
     32 H1C         2.0730    1.5020    3.2290 ha        1 5PM      0.141000
     33 H1D        -0.3620    0.8850    3.0820 ha        1 5PM      0.144500
     34 H1F        -1.9710   -0.6330    1.7760 h4        1 5PM     -0.016200
     35 H1H        -3.6040   -1.9380    0.8170 ha        1 5PM      0.143750
     36 H1I        -5.9970   -2.5040    0.6230 ha        1 5PM      0.144250
     37 H1K        -6.8040    1.3910   -1.0710 ha        1 5PM      0.144250
     38 H1L        -4.4000    1.9680   -0.9300 ha        1 5PM      0.143750
     39 H1O        -7.3980   -1.5290    2.2660 ha        1 5PM      0.144250
     40 H1P        -8.4180   -3.1210    3.8590 ha        1 5PM      0.143750
     41 H1R       -11.3090   -4.2630    0.8150 ha        1 5PM      0.143750
     42 H1S       -10.2490   -2.6910   -0.7680 ha        1 5PM      0.144250
     43 H1T       -11.1710   -6.1690    2.0590 h4        1 5PM     -0.016200
     44 H1V       -13.5030   -6.8900    2.8490 ha        1 5PM      0.144500
     45 H1W       -14.6370   -8.4190    4.4950 ha        1 5PM      0.141000
     46 H1X       -13.4280   -9.0060    6.6330 ha        1 5PM      0.146000
     47 H1Y       -11.1270   -8.0320    7.0270 h4        1 5PM      0.026100
@<TRIPOS>BOND
     1    1    5 ar  
     2    1    9 ar  
     3    2   10 2   
     4    2   11 1   
     5    3   21 1   
     6    3   24 2   
     7    4   25 ar  
     8    4   29 ar  
     9    5    6 ar  
    10    5   30 1   
    11    6    7 ar  
    12    6   31 1   
    13    7    8 ar  
    14    7   32 1   
    15    8    9 ar  
    16    8   33 1   
    17    9   10 1   
    18   10   34 1   
    19   11   12 ar  
    20   11   16 ar  
    21   12   13 ar  
    22   12   35 1   
    23   13   14 ar  
    24   13   36 1   
    25   14   15 ar  
    26   14   17 1   
    27   15   16 ar  
    28   15   37 1   
    29   16   38 1   
    30   17   18 1   
    31   18   19 ar  
    32   18   23 ar  
    33   19   20 ar  
    34   19   39 1   
    35   20   21 ar  
    36   20   40 1   
    37   21   22 ar  
    38   22   23 ar  
    39   22   41 1   
    40   23   42 1   
    41   24   25 1   
    42   24   43 1   
    43   25   26 ar  
    44   26   27 ar  
    45   26   44 1   
    46   27   28 ar  
    47   27   45 1   
    48   28   29 ar  
    49   28   46 1   
    50   29   47 1   
@<TRIPOS>SUBSTRUCTURE
     1 5PM         1 TEMP              0 ****  ****    0 ROOT
