@<TRIPOS>MOLECULE
5PM
   47    50     1     0     0
SMALL
bcc


@<TRIPOS>ATOM
      1 N11         0.5210    0.2790   -0.1640 nb        1 5PM     -0.627500
      2 N12        -2.4640    0.4350   -0.0140 ne        1 5PM     -0.534600
      3 N13       -10.5080   -4.6770    3.4320 ne        1 5PM     -0.534600
      4 N14       -11.0590   -6.9770    5.2550 nb        1 5PM     -0.627500
      5 C1A         1.8200    0.6110   -0.0620 ca        1 5PM      0.393200
      6 C1B         2.4240    1.0660    1.1260 ca        1 5PM     -0.238300
      7 C1C         1.6330    1.1750    2.2690 ca        1 5PM     -0.094500
      8 C1D         0.2830    0.8310    2.1930 ca        1 5PM     -0.230800
      9 C1E        -0.2360    0.3910    0.9560 ca        1 5PM      0.357500
     10 C1F        -1.6750    0.0200    0.9150 cf        1 5PM      0.372200
     11 C1G        -3.8280    0.0680   -0.0310 ca        1 5PM      0.119400
     12 C1H        -4.3060   -1.1860    0.4070 ca        1 5PM     -0.116250
     13 C1I        -5.6530   -1.5090    0.2970 ca        1 5PM     -0.113500
     14 C1J        -6.5680   -0.5950   -0.2320 ca        1 5PM     -0.033600
     15 C1K        -6.1010    0.6550   -0.6630 ca        1 5PM     -0.113500
     16 C1L        -4.7550    0.9840   -0.5800 ca        1 5PM     -0.116250
     17 S1M        -8.2130   -0.8940   -0.5100 ss        1 5PM     -0.082800
     18 C1N        -8.7520   -2.0130    0.6430 ca        1 5PM     -0.033600
     19 C1O        -8.2550   -2.1460    1.9430 ca        1 5PM     -0.113500
     20 C1P        -8.8280   -3.0370    2.8430 ca        1 5PM     -0.116250
     21 C1Q        -9.9310   -3.8310    2.4580 ca        1 5PM      0.119400
     22 C1R       -10.4340   -3.6870    1.1460 ca        1 5PM     -0.116250
     23 C1S        -9.8490   -2.7970    0.2570 ca        1 5PM     -0.113500
     24 C1T       -11.0780   -5.7830    3.1030 cf        1 5PM      0.372200
     25 C1U       -11.7160   -6.6730    4.1080 ca        1 5PM      0.357500
     26 C1V       -12.9960   -7.1840    3.7980 ca        1 5PM     -0.230800
     27 C1W       -13.6190   -8.0320    4.7140 ca        1 5PM     -0.094500
     28 C1X       -12.9560   -8.3530    5.8980 ca        1 5PM     -0.238300
     29 C1Y       -11.6790   -7.8020    6.1170 ca        1 5PM      0.393200
     30 H1A         2.4080    0.5060   -0.9920 h4        1 5PM      0.026100
     31 H1B         3.4900    1.3270    1.1430 ha        1 5PM      0.146000
     32 H1C         2.0640    1.5260    3.2180 ha        1 5PM      0.141000
     33 H1D        -0.3700    0.9030    3.0740 ha        1 5PM      0.144500
     34 H1F        -1.9760   -0.6220    1.7730 h4        1 5PM     -0.016200
     35 H1H        -3.6070   -1.9320    0.8170 ha        1 5PM      0.143750
     36 H1I        -5.9990   -2.5030    0.6250 ha        1 5PM      0.144250
     37 H1K        -6.8140    1.3860   -1.0790 ha        1 5PM      0.144250
     38 H1L        -4.4110    1.9670   -0.9400 ha        1 5PM      0.143750
     39 H1O        -7.4020   -1.5280    2.2670 ha        1 5PM      0.144250
     40 H1P        -8.4180   -3.1200    3.8620 ha        1 5PM      0.143750
     41 H1R       -11.3050   -4.2760    0.8190 ha        1 5PM      0.143750
     42 H1S       -10.2490   -2.7040   -0.7660 ha        1 5PM      0.144250
     43 H1T       -11.1600   -6.1800    2.0670 h4        1 5PM     -0.016200
     44 H1V       -13.4890   -6.9100    2.8550 ha        1 5PM      0.144500
     45 H1W       -14.6180   -8.4400    4.5020 ha        1 5PM      0.141000
     46 H1X       -13.4110   -9.0160    6.6440 ha        1 5PM      0.146000
     47 H1Y       -11.1150   -8.0310    7.0400 h4        1 5PM      0.026100
@<TRIPOS>BOND
     1    1    5 ar  
     2    1    9 ar  
     3    2   10 2   
     4    2   11 1   
     5    3   21 1   
     6    3   24 2   
     7    4   25 ar  
     8    4   29 ar  
     9    5    6 ar  
    10    5   30 1   
    11    6    7 ar  
    12    6   31 1   
    13    7    8 ar  
    14    7   32 1   
    15    8    9 ar  
    16    8   33 1   
    17    9   10 1   
    18   10   34 1   
    19   11   12 ar  
    20   11   16 ar  
    21   12   13 ar  
    22   12   35 1   
    23   13   14 ar  
    24   13   36 1   
    25   14   15 ar  
    26   14   17 1   
    27   15   16 ar  
    28   15   37 1   
    29   16   38 1   
    30   17   18 1   
    31   18   19 ar  
    32   18   23 ar  
    33   19   20 ar  
    34   19   39 1   
    35   20   21 ar  
    36   20   40 1   
    37   21   22 ar  
    38   22   23 ar  
    39   22   41 1   
    40   23   42 1   
    41   24   25 1   
    42   24   43 1   
    43   25   26 ar  
    44   26   27 ar  
    45   26   44 1   
    46   27   28 ar  
    47   27   45 1   
    48   28   29 ar  
    49   28   46 1   
    50   29   47 1   
@<TRIPOS>SUBSTRUCTURE
     1 5PM         1 TEMP              0 ****  ****    0 ROOT
