@<TRIPOS>MOLECULE
5PM
   47    50     1     0     0
SMALL
bcc


@<TRIPOS>ATOM
      1 N11         6.9390    1.8770    1.5080 nb        1 5PM     -0.628000
      2 N12         4.9920   -0.1310    0.4370 ne        1 5PM     -0.535100
      3 N13        -5.0800   -0.0240   -0.6510 ne        1 5PM     -0.535100
      4 N14        -7.1230    2.1540   -0.4280 nb        1 5PM     -0.628000
      5 C1A         8.0970    2.4960    1.8000 ca        1 5PM      0.393200
      6 C1B         9.0720    2.8300    0.8410 ca        1 5PM     -0.238300
      7 C1C         8.8250    2.5080   -0.4930 ca        1 5PM     -0.095000
      8 C1D         7.6290    1.8710   -0.8250 ca        1 5PM     -0.230300
      9 C1E         6.7140    1.5680    0.2070 ca        1 5PM      0.357000
     10 C1F         5.4440    0.9020   -0.1850 cf        1 5PM      0.372200
     11 C1G         3.7820   -0.7460    0.0450 ca        1 5PM      0.119400
     12 C1H         2.6690   -0.0330   -0.4490 ca        1 5PM     -0.117000
     13 C1I         1.4840   -0.6920   -0.7550 ca        1 5PM     -0.113000
     14 C1J         1.3670   -2.0730   -0.5790 ca        1 5PM     -0.034100
     15 C1K         2.4660   -2.7860   -0.0790 ca        1 5PM     -0.113000
     16 C1L         3.6580   -2.1430    0.2270 ca        1 5PM     -0.117000
     17 S1M         0.0230   -3.0110   -1.0140 ss        1 5PM     -0.084800
     18 C1N        -1.3650   -2.0480   -0.8620 ca        1 5PM     -0.034100
     19 C1O        -2.4400   -2.4000   -1.6910 ca        1 5PM     -0.113000
     20 C1P        -3.6600   -1.7470   -1.5960 ca        1 5PM     -0.117000
     21 C1Q        -3.8410   -0.7030   -0.6590 ca        1 5PM      0.119400
     22 C1R        -2.7520   -0.3470    0.1650 ca        1 5PM     -0.117000
     23 C1S        -1.5370   -1.0140    0.0620 ca        1 5PM     -0.113000
     24 C1T        -5.5670    0.4580    0.4390 cf        1 5PM      0.372200
     25 C1U        -6.8680    1.1750    0.4760 ca        1 5PM      0.357000
     26 C1V        -7.7820    0.8040    1.4870 ca        1 5PM     -0.230300
     27 C1W        -9.0080    1.4670    1.5570 ca        1 5PM     -0.095000
     28 C1X        -9.2850    2.4750    0.6340 ca        1 5PM     -0.238300
     29 C1Y        -8.3090    2.7810   -0.3340 ca        1 5PM      0.393200
     30 H1A         8.2480    2.7350    2.8680 h4        1 5PM      0.026100
     31 H1B        10.0010    3.3310    1.1440 ha        1 5PM      0.146000
     32 H1C         9.5610    2.7510   -1.2740 ha        1 5PM      0.141000
     33 H1D         7.4010    1.6030   -1.8650 ha        1 5PM      0.145000
     34 H1F         4.9630    1.3800   -1.0670 h4        1 5PM     -0.015200
     35 H1H         2.7260    1.0580   -0.5840 ha        1 5PM      0.144000
     36 H1I         0.6310   -0.1160   -1.1490 ha        1 5PM      0.145000
     37 H1K         2.3810   -3.8740    0.0760 ha        1 5PM      0.145000
     38 H1L         4.5060   -2.7260    0.6190 ha        1 5PM      0.144000
     39 H1O        -2.3110   -3.2060   -2.4320 ha        1 5PM      0.145000
     40 H1P        -4.4890   -2.0420   -2.2590 ha        1 5PM      0.144000
     41 H1R        -2.8530    0.4740    0.8920 ha        1 5PM      0.144000
     42 H1S        -0.7030   -0.7250    0.7230 ha        1 5PM      0.145000
     43 H1T        -5.0950    0.3750    1.4430 h4        1 5PM     -0.015200
     44 H1V        -7.5290    0.0060    2.1970 ha        1 5PM      0.145000
     45 H1W        -9.7420    1.1970    2.3290 ha        1 5PM      0.141000
     46 H1X       -10.2370    3.0210    0.6540 ha        1 5PM      0.146000
     47 H1Y        -8.4850    3.5740   -1.0830 h4        1 5PM      0.026100
@<TRIPOS>BOND
     1    1    5 ar  
     2    1    9 ar  
     3    2   10 2   
     4    2   11 1   
     5    3   21 1   
     6    3   24 2   
     7    4   25 ar  
     8    4   29 ar  
     9    5    6 ar  
    10    5   30 1   
    11    6    7 ar  
    12    6   31 1   
    13    7    8 ar  
    14    7   32 1   
    15    8    9 ar  
    16    8   33 1   
    17    9   10 1   
    18   10   34 1   
    19   11   12 ar  
    20   11   16 ar  
    21   12   13 ar  
    22   12   35 1   
    23   13   14 ar  
    24   13   36 1   
    25   14   15 ar  
    26   14   17 1   
    27   15   16 ar  
    28   15   37 1   
    29   16   38 1   
    30   17   18 1   
    31   18   19 ar  
    32   18   23 ar  
    33   19   20 ar  
    34   19   39 1   
    35   20   21 ar  
    36   20   40 1   
    37   21   22 ar  
    38   22   23 ar  
    39   22   41 1   
    40   23   42 1   
    41   24   25 1   
    42   24   43 1   
    43   25   26 ar  
    44   26   27 ar  
    45   26   44 1   
    46   27   28 ar  
    47   27   45 1   
    48   28   29 ar  
    49   28   46 1   
    50   29   47 1   
@<TRIPOS>SUBSTRUCTURE
     1 5PM         1 TEMP              0 ****  ****    0 ROOT
