@<TRIPOS>MOLECULE
5PM
   47    38     1     0     0
SMALL
bcc


@<TRIPOS>ATOM
      1 N11         1.9590   -3.5980   -3.4490 n1        1 5PM     -0.119000
      2 N12        -0.0240   -3.8850   -0.9890 n1        1 5PM     -0.129000
      3 N13        -1.7710    5.2590    2.3660 n1        1 5PM     -0.130000
      4 N14        -3.0890    2.4270    3.1060 n1        1 5PM     -0.112000
      5 C1A         3.1520   -3.3670   -4.0720 c1        1 5PM     -0.121500
      6 C1B         4.2950   -4.0210   -3.6450 c1        1 5PM     -0.121500
      7 C1C         4.2300   -4.8970   -2.6000 c1        1 5PM     -0.121500
      8 C1D         3.0370   -5.1280   -1.9780 c1        1 5PM     -0.121500
      9 C1E         1.8920   -4.4710   -2.4070 c1        1 5PM     -0.049000
     10 C1F         0.5590   -4.7800   -1.7670 c2        1 5PM      0.009000
     11 C1G         0.6070   -2.6230   -0.7530 c1        1 5PM     -0.006000
     12 C1H         1.2650   -2.3930    0.4510 c2        1 5PM     -0.121000
     13 C1I         1.7510   -1.1260    0.7480 c1        1 5PM     -0.108000
     14 C1J         1.5800   -0.0870   -0.1570 c1        1 5PM     -0.264000
     15 C1K         0.9230   -0.3150   -1.3600 c1        1 5PM     -0.117000
     16 C1L         0.4360   -1.5840   -1.6570 c1        1 5PM     -0.110000
     17 S1M         2.3220    1.4940    0.1590 ss        1 5PM      0.351000
     18 C1N         1.0990    2.6020    0.8150 c2        1 5PM     -0.271000
     19 C1O         0.2450    3.2790   -0.0430 c2        1 5PM     -0.106000
     20 C1P        -0.7090    4.1490    0.4700 c1        1 5PM     -0.135000
     21 C1Q        -0.8080    4.3390    1.8390 c1        1 5PM      0.017000
     22 C1R         0.0470    3.6610    2.6980 c1        1 5PM     -0.114000
     23 C1S         1.0000    2.7930    2.1860 c1        1 5PM     -0.098000
     24 C1T        -3.0210    4.8640    2.5760 c1        1 5PM      0.009000
     25 C1U        -3.4320    3.4350    2.2560 c1        1 5PM     -0.053000
     26 C1V        -4.3010    3.1870    1.2010 c2        1 5PM     -0.157000
     27 C1W        -4.8100    1.9330    1.0160 c1        1 5PM     -0.097000
     28 C1X        -4.4650    0.9250    1.8690 c1        1 5PM     -0.121500
     29 C1Y        -3.5980    1.1730    2.9210 c1        1 5PM     -0.121500
     30 H1A         3.1980   -2.7410   -4.8190 ha        1 5PM      0.152000
     31 H1B         5.1460   -3.8560   -4.0910 ha        1 5PM      0.152000
     32 H1C         5.0350   -5.3590   -2.2990 ha        1 5PM      0.152000
     33 H1D         2.9900   -5.7530   -1.2310 ha        1 5PM      0.152000
     34 H1F         0.1270   -5.6440   -1.9290 h4        1 5PM      0.153000
     35 H1H         1.3860   -3.1200    1.0860 ha        1 5PM      0.140000
     36 H1I         2.2120   -0.9660    1.5910 ha        1 5PM      0.141000
     37 H1K         0.8020    0.4140   -1.9940 ha        1 5PM      0.143000
     38 H1L        -0.0230   -1.7430   -2.4980 ha        1 5PM      0.149000
     39 H1O         0.3150    3.1450   -1.0090 ha        1 5PM      0.142000
     40 H1P        -1.3090    4.6250   -0.1340 ha        1 5PM      0.135000
     41 H1R        -0.0230    3.7960    3.6630 ha        1 5PM      0.143000
     42 H1S         1.6020    2.3150    2.7910 ha        1 5PM      0.142000
     43 H1T        -3.6790    5.4940    2.9370 ha        1 5PM      0.152000
     44 H1V        -4.5480    3.9090    0.5920 ha        1 5PM      0.145000
     45 H1W        -5.4210    1.7580    0.2740 ha        1 5PM      0.142000
     46 H1X        -4.8290    0.0280    1.7370 ha        1 5PM      0.152000
     47 H1Y        -3.3510    0.4520    3.5310 ha        1 5PM      0.152000
@<TRIPOS>BOND
     1    1    9 1   
     2    2   10 1   
     3    3   24 1   
     4    4   25 1   
     5    5    6 1   
     6    5   30 1   
     7    6   31 1   
     8    7    8 1   
     9    7   32 1   
    10    8   33 1   
    11    9   10 1   
    12   10   34 1   
    13   11   12 1   
    14   11   16 1   
    15   12   13 1   
    16   12   35 1   
    17   13   36 1   
    18   14   15 1   
    19   14   17 1   
    20   15   37 1   
    21   16   38 1   
    22   17   18 1   
    23   18   19 1   
    24   18   23 1   
    25   19   20 1   
    26   19   39 1   
    27   20   40 1   
    28   21   22 1   
    29   22   41 1   
    30   23   42 1   
    31   24   43 1   
    32   25   26 1   
    33   26   27 1   
    34   26   44 1   
    35   27   45 1   
    36   28   29 1   
    37   28   46 1   
    38   29   47 1   
@<TRIPOS>SUBSTRUCTURE
     1 5PM         1 TEMP              0 ****  ****    0 ROOT
