@<TRIPOS>MOLECULE
5PN
   19    20     1     0     0
SMALL
bcc


@<TRIPOS>ATOM
      1 CAA        -0.0230   -0.0130    0.0420 c3        1 5PN     -0.150400
      2 CAI         1.4690   -0.0070    0.0820 ca        1 5PN      0.445600
      3 NAF         2.1230    0.0620    1.2540 nb        1 5PN     -0.654000
      4 CAD         3.4790    0.0650    1.2610 ca        1 5PN      0.456200
      5 CAK         4.2150   -0.0030    0.0850 ca        1 5PN     -0.263900
      6 CAH         5.6620   -0.0170   -0.1900 c         1 5PN      0.741200
      7 OAB         6.6710    0.0250    0.4980 o         1 5PN     -0.543500
      8 OAG         5.8580   -0.0970   -1.5710 os        1 5PN     -0.410900
      9 CAE         4.5770   -0.1390   -2.2510 c3        1 5PN      0.169700
     10 CAL         3.5440   -0.0770   -1.1670 ca        1 5PN     -0.159300
     11 CAJ         2.1620   -0.0810   -1.1810 ca        1 5PN      0.019800
     12 OAC         1.3840   -0.1480   -2.3080 oh        1 5PN     -0.477100
     13 H1         -0.3720    0.8570   -0.5700 hc        1 5PN      0.065700
     14 H2         -0.4770    0.0500    1.0600 hc        1 5PN      0.065700
     15 H3         -0.3690   -0.9520   -0.4580 hc        1 5PN      0.065700
     16 H4          3.9590    0.1240    2.2550 h4        1 5PN      0.048100
     17 H5          4.5480   -1.0980   -2.8280 h1        1 5PN      0.078700
     18 H6          4.5450    0.7450   -2.9360 h1        1 5PN      0.078700
     19 H7          1.9770   -0.1920   -3.0750 ho        1 5PN      0.425000
@<TRIPOS>BOND
     1    1    2 1   
     2    1   13 1   
     3    1   14 1   
     4    1   15 1   
     5    2    3 ar  
     6    2   11 ar  
     7    3    4 ar  
     8    4    5 ar  
     9    4   16 1   
    10    5    6 1   
    11    5   10 ar  
    12    6    7 2   
    13    6    8 1   
    14    8    9 1   
    15    9   10 1   
    16    9   17 1   
    17    9   18 1   
    18   10   11 ar  
    19   11   12 1   
    20   12   19 1   
@<TRIPOS>SUBSTRUCTURE
     1 5PN         1 TEMP              0 ****  ****    0 ROOT
