@<TRIPOS>MOLECULE
5PN
   19    20     1     0     0
SMALL
bcc


@<TRIPOS>ATOM
      1 CAA        -0.0210   -0.0190    0.0510 c3        1 5PN     -0.150400
      2 CAI         1.4710   -0.0070    0.0860 ca        1 5PN      0.445600
      3 NAF         2.1290    0.0760    1.2550 nb        1 5PN     -0.654000
      4 CAD         3.4850    0.0840    1.2580 ca        1 5PN      0.456200
      5 CAK         4.2180    0.0090    0.0800 ca        1 5PN     -0.263900
      6 CAH         5.6630   -0.0010   -0.2000 c         1 5PN      0.741200
      7 OAB         6.6740    0.0510    0.4840 o         1 5PN     -0.543500
      8 OAG         5.8550   -0.0930   -1.5800 os        1 5PN     -0.410900
      9 CAE         4.5720   -0.1470   -2.2560 c3        1 5PN      0.169700
     10 CAL         3.5430   -0.0790   -1.1690 ca        1 5PN     -0.159300
     11 CAJ         2.1600   -0.0880   -1.1790 ca        1 5PN      0.019800
     12 OAC         1.3790   -0.1690   -2.3030 oh        1 5PN     -0.477100
     13 H1         -0.3750    0.8460   -0.5650 hc        1 5PN      0.065700
     14 H2         -0.3640   -0.9630   -0.4420 hc        1 5PN      0.065700
     15 H3         -0.4720    0.0480    1.0710 hc        1 5PN      0.065700
     16 H4          3.9670    0.1540    2.2500 h4        1 5PN      0.048100
     17 H5          4.5450   -1.1110   -2.8240 h1        1 5PN      0.078700
     18 H6          4.5340    0.7310   -2.9490 h1        1 5PN      0.078700
     19 H7          1.9690   -0.2180   -3.0700 ho        1 5PN      0.425000
@<TRIPOS>BOND
     1    1    2 1   
     2    1   13 1   
     3    1   14 1   
     4    1   15 1   
     5    2    3 ar  
     6    2   11 ar  
     7    3    4 ar  
     8    4    5 ar  
     9    4   16 1   
    10    5    6 1   
    11    5   10 ar  
    12    6    7 2   
    13    6    8 1   
    14    8    9 1   
    15    9   10 1   
    16    9   17 1   
    17    9   18 1   
    18   10   11 ar  
    19   11   12 1   
    20   12   19 1   
@<TRIPOS>SUBSTRUCTURE
     1 5PN         1 TEMP              0 ****  ****    0 ROOT
