@<TRIPOS>MOLECULE
5PP
   39    40     1     0     0
SMALL
bcc


@<TRIPOS>ATOM
      1 O17         0.3770    0.4000    0.4280 oh        1 5PP     -0.492100
      2 C6          1.7180    0.4300    0.1400 ca        1 5PP      0.133100
      3 C5          2.7000    0.7370    1.1020 ca        1 5PP     -0.002900
      4 O7          2.2480    1.1270    2.3610 os        1 5PP     -0.260200
      5 C8          2.6880    0.3640    3.4410 ca        1 5PP      0.107100
      6 C13         2.4990    0.9600    4.6990 ca        1 5PP     -0.165500
      7 C12         2.8620    0.2490    5.8380 ca        1 5PP     -0.103000
      8 C11         3.4100   -1.0310    5.7310 ca        1 5PP     -0.155000
      9 C10         3.5960   -1.6080    4.4760 ca        1 5PP     -0.103000
     10 C9          3.2370   -0.9170    3.3190 ca        1 5PP     -0.165500
     11 C4          4.0520    0.7680    0.7480 ca        1 5PP     -0.105000
     12 C3          4.4200    0.4900   -0.5630 ca        1 5PP     -0.155000
     13 C2          3.4510    0.1830   -1.5300 ca        1 5PP     -0.046300
     14 C1          2.1000    0.1540   -1.1830 ca        1 5PP     -0.151000
     15 C14         3.8680   -0.1010   -2.9320 c3        1 5PP     -0.040100
     16 C15         4.5420   -1.4550   -3.0550 c3        1 5PP     -0.076400
     17 C16         4.9920   -1.7100   -4.4770 c3        1 5PP     -0.080400
     18 C17         5.6630   -3.0610   -4.6070 c3        1 5PP     -0.080400
     19 C18         6.1140   -3.3210   -6.0210 c3        1 5PP     -0.093100
     20 H17         0.2710    0.6120    1.3690 ho        1 5PP      0.437000
     21 H13         2.0680    1.9690    4.7660 ha        1 5PP      0.149500
     22 H12         2.7170    0.7030    6.8300 ha        1 5PP      0.135000
     23 H11         3.6950   -1.5830    6.6380 ha        1 5PP      0.134000
     24 H10         4.0270   -2.6170    4.3910 ha        1 5PP      0.135000
     25 H9          3.3840   -1.3660    2.3270 ha        1 5PP      0.149500
     26 H4          4.8070    1.0100    1.5110 ha        1 5PP      0.149000
     27 H3          5.4820    0.5130   -0.8490 ha        1 5PP      0.139000
     28 H1          1.3240   -0.0800   -1.9250 ha        1 5PP      0.154000
     29 H141        4.5770    0.7010   -3.2740 hc        1 5PP      0.051700
     30 H142        2.9760   -0.0670   -3.6140 hc        1 5PP      0.051700
     31 H151        5.4260   -1.4970   -2.3650 hc        1 5PP      0.044700
     32 H152        3.8310   -2.2600   -2.7330 hc        1 5PP      0.044700
     33 H161        4.1080   -1.6630   -5.1660 hc        1 5PP      0.040200
     34 H162        5.7040   -0.9050   -4.7980 hc        1 5PP      0.040200
     35 H171        4.9490   -3.8650   -4.2850 hc        1 5PP      0.039200
     36 H172        6.5450   -3.1080   -3.9150 hc        1 5PP      0.039200
     37 H181        5.2450   -3.3030   -6.7220 hc        1 5PP      0.033033
     38 H182        6.8450   -2.5430   -6.3510 hc        1 5PP      0.033033
     39 H183        6.6050   -4.3210   -6.0940 hc        1 5PP      0.033033
@<TRIPOS>BOND
     1    1    2 1   
     2    1   20 1   
     3    2    3 ar  
     4    2   14 ar  
     5    3    4 1   
     6    3   11 ar  
     7    4    5 1   
     8    5    6 ar  
     9    5   10 ar  
    10    6    7 ar  
    11    6   21 1   
    12    7    8 ar  
    13    7   22 1   
    14    8    9 ar  
    15    8   23 1   
    16    9   10 ar  
    17    9   24 1   
    18   10   25 1   
    19   11   12 ar  
    20   11   26 1   
    21   12   13 ar  
    22   12   27 1   
    23   13   14 ar  
    24   13   15 1   
    25   14   28 1   
    26   15   16 1   
    27   15   29 1   
    28   15   30 1   
    29   16   17 1   
    30   16   31 1   
    31   16   32 1   
    32   17   18 1   
    33   17   33 1   
    34   17   34 1   
    35   18   19 1   
    36   18   35 1   
    37   18   36 1   
    38   19   37 1   
    39   19   38 1   
    40   19   39 1   
@<TRIPOS>SUBSTRUCTURE
     1 5PP         1 TEMP              0 ****  ****    0 ROOT
