@<TRIPOS>MOLECULE
5PP
   39    36     1     0     0
SMALL
bcc


@<TRIPOS>ATOM
      1 O17        -2.9750   -0.2870    0.8680 oh        1 5PP     -0.230000
      2 C6         -1.5690   -0.2200    0.8690 c2        1 5PP      0.084000
      3 C5         -0.8820   -0.1130    2.0680 c2        1 5PP      0.005000
      4 O7         -1.5850   -0.1150    3.2820 os        1 5PP     -0.146000
      5 C8         -1.8210    1.2090    3.6880 c2        1 5PP      0.080000
      6 C13        -0.8860    1.8700    4.4690 c1        1 5PP     -0.151000
      7 C12        -1.1580    3.1420    4.9480 c1        1 5PP     -0.133000
      8 C11        -2.3660    3.7530    4.6480 c1        1 5PP     -0.133000
      9 C10        -3.3010    3.0920    3.8670 c1        1 5PP     -0.100000
     10 C9         -3.0290    1.8200    3.3880 c2        1 5PP     -0.189000
     11 C4          0.5020   -0.0380    2.0690 c1        1 5PP     -0.099000
     12 C3          1.1990   -0.0690    0.8710 c1        1 5PP     -0.158000
     13 C2          0.5120   -0.1760   -0.3280 c1        1 5PP     -0.028000
     14 C1         -0.8730   -0.2520   -0.3290 c1        1 5PP     -0.211000
     15 C14         1.2630   -0.0950   -1.6380 c3        1 5PP     -0.127000
     16 C15         1.4160   -1.4830   -2.2190 c3        1 5PP     -0.155000
     17 C16         2.0020   -1.3850   -3.6090 c3        1 5PP     -0.159000
     18 C17         1.9880   -2.7490   -4.2590 c3        1 5PP     -0.159000
     19 C18         2.5350   -2.6440   -5.6640 c3        1 5PP     -0.211000
     20 H17        -3.2740   -0.2240    0.0330 ho        1 5PP      0.218000
     21 H13        -0.0350    1.4400    4.6810 ha        1 5PP      0.149000
     22 H12        -0.4990    3.6070    5.4980 ha        1 5PP      0.131500
     23 H11        -2.5570    4.6480    4.9860 ha        1 5PP      0.131500
     24 H10        -4.1520    3.5230    3.6560 ha        1 5PP      0.131000
     25 H9         -3.6880    1.3550    2.8380 ha        1 5PP      0.143000
     26 H4          0.9860    0.0380    2.9130 ha        1 5PP      0.151000
     27 H3          2.1740   -0.0160    0.8720 ha        1 5PP      0.139000
     28 H1         -1.3570   -0.3270   -1.1730 ha        1 5PP      0.138000
     29 H141        0.7660    0.4680   -2.2650 hc        1 5PP      0.090000
     30 H142        2.1480    0.2920   -1.4830 hc        1 5PP      0.090000
     31 H151        0.5400   -1.9150   -2.2640 hc        1 5PP      0.085000
     32 H152        2.0120   -2.0110   -1.6500 hc        1 5PP      0.085000
     33 H161        2.9230   -1.0610   -3.5530 hc        1 5PP      0.079500
     34 H162        1.4690   -0.7640   -4.1450 hc        1 5PP      0.079500
     35 H171        1.0700   -3.0860   -4.2900 hc        1 5PP      0.079000
     36 H172        2.5430   -3.3640   -3.7380 hc        1 5PP      0.079000
     37 H181        3.4370   -2.2610   -5.6360 hc        1 5PP      0.072333
     38 H182        1.9520   -2.0660   -6.1990 hc        1 5PP      0.072333
     39 H183        2.5710   -3.5360   -6.0680 hc        1 5PP      0.072333
@<TRIPOS>BOND
     1    1    2 1   
     2    1   20 1   
     3    2    3 1   
     4    2   14 1   
     5    3    4 1   
     6    3   11 1   
     7    4    5 1   
     8    5    6 1   
     9    5   10 1   
    10    6   21 1   
    11    7    8 1   
    12    7   22 1   
    13    8   23 1   
    14    9   10 1   
    15    9   24 1   
    16   10   25 1   
    17   11   26 1   
    18   12   13 1   
    19   12   27 1   
    20   13   15 1   
    21   14   28 1   
    22   15   16 1   
    23   15   29 1   
    24   15   30 1   
    25   16   17 1   
    26   16   31 1   
    27   16   32 1   
    28   17   18 1   
    29   17   33 1   
    30   17   34 1   
    31   18   19 1   
    32   18   35 1   
    33   18   36 1   
    34   19   37 1   
    35   19   38 1   
    36   19   39 1   
@<TRIPOS>SUBSTRUCTURE
     1 5PP         1 TEMP              0 ****  ****    0 ROOT
