@<TRIPOS>MOLECULE
5PP
   39    40     1     0     0
SMALL
bcc


@<TRIPOS>ATOM
      1 O17         0.4030    0.4770    0.4170 oh        1 5PP     -0.492100
      2 C6          1.7450    0.4760    0.1340 ca        1 5PP      0.133100
      3 C5          2.7300    0.7600    1.0990 ca        1 5PP     -0.002900
      4 O7          2.2830    1.1600    2.3580 os        1 5PP     -0.260200
      5 C8          2.7030    0.3870    3.4380 ca        1 5PP      0.107100
      6 C13         2.5220    0.9860    4.6960 ca        1 5PP     -0.165500
      7 C12         2.8650    0.2660    5.8360 ca        1 5PP     -0.103000
      8 C11         3.3860   -1.0250    5.7300 ca        1 5PP     -0.155000
      9 C10         3.5640   -1.6050    4.4750 ca        1 5PP     -0.103000
     10 C9          3.2240   -0.9050    3.3180 ca        1 5PP     -0.165500
     11 C4          4.0840    0.7620    0.7510 ca        1 5PP     -0.105000
     12 C3          4.4500    0.4760   -0.5600 ca        1 5PP     -0.155000
     13 C2          3.4780    0.1920   -1.5310 ca        1 5PP     -0.046300
     14 C1          2.1260    0.1940   -1.1880 ca        1 5PP     -0.151000
     15 C14         3.8930   -0.1000   -2.9310 c3        1 5PP     -0.040100
     16 C15         4.5350   -1.4690   -3.0530 c3        1 5PP     -0.076400
     17 C16         4.9840   -1.7340   -4.4740 c3        1 5PP     -0.080400
     18 C17         5.6220   -3.1000   -4.6030 c3        1 5PP     -0.080400
     19 C18         6.0720   -3.3690   -6.0160 c3        1 5PP     -0.093100
     20 H17         0.2980    0.6910    1.3580 ho        1 5PP      0.437000
     21 H13         2.1120    2.0040    4.7620 ha        1 5PP      0.149500
     22 H12         2.7270    0.7230    6.8270 ha        1 5PP      0.135000
     23 H11         3.6560   -1.5840    6.6370 ha        1 5PP      0.134000
     24 H10         3.9740   -2.6230    4.3910 ha        1 5PP      0.135000
     25 H9          3.3650   -1.3570    2.3250 ha        1 5PP      0.149500
     26 H4          4.8410    0.9860    1.5160 ha        1 5PP      0.149000
     27 H3          5.5140    0.4760   -0.8420 ha        1 5PP      0.139000
     28 H1          1.3470   -0.0210   -1.9330 ha        1 5PP      0.154000
     29 H141        4.6230    0.6850   -3.2690 hc        1 5PP      0.051700
     30 H142        3.0050   -0.0430   -3.6160 hc        1 5PP      0.051700
     31 H151        5.4140   -1.5330   -2.3600 hc        1 5PP      0.044700
     32 H152        3.8030   -2.2570   -2.7360 hc        1 5PP      0.044700
     33 H161        4.1040   -1.6630   -5.1670 hc        1 5PP      0.040200
     34 H162        5.7170   -0.9460   -4.7910 hc        1 5PP      0.040200
     35 H171        4.8870   -3.8870   -4.2850 hc        1 5PP      0.039200
     36 H172        6.5000   -3.1700   -3.9080 hc        1 5PP      0.039200
     37 H181        5.2060   -3.3290   -6.7200 hc        1 5PP      0.033033
     38 H182        6.8240   -2.6100   -6.3410 hc        1 5PP      0.033033
     39 H183        6.5390   -4.3810   -6.0880 hc        1 5PP      0.033033
@<TRIPOS>BOND
     1    1    2 1   
     2    1   20 1   
     3    2    3 ar  
     4    2   14 ar  
     5    3    4 1   
     6    3   11 ar  
     7    4    5 1   
     8    5    6 ar  
     9    5   10 ar  
    10    6    7 ar  
    11    6   21 1   
    12    7    8 ar  
    13    7   22 1   
    14    8    9 ar  
    15    8   23 1   
    16    9   10 ar  
    17    9   24 1   
    18   10   25 1   
    19   11   12 ar  
    20   11   26 1   
    21   12   13 ar  
    22   12   27 1   
    23   13   14 ar  
    24   13   15 1   
    25   14   28 1   
    26   15   16 1   
    27   15   29 1   
    28   15   30 1   
    29   16   17 1   
    30   16   31 1   
    31   16   32 1   
    32   17   18 1   
    33   17   33 1   
    34   17   34 1   
    35   18   19 1   
    36   18   35 1   
    37   18   36 1   
    38   19   37 1   
    39   19   38 1   
    40   19   39 1   
@<TRIPOS>SUBSTRUCTURE
     1 5PP         1 TEMP              0 ****  ****    0 ROOT
