@<TRIPOS>MOLECULE
5PP
   39    40     1     0     0
SMALL
bcc


@<TRIPOS>ATOM
      1 O17        -1.0350    2.8950   -0.2640 oh        1 5PP     -0.492100
      2 C6         -0.4310    1.8040    0.3080 ca        1 5PP      0.133100
      3 C5         -1.1560    0.7410    0.8810 ca        1 5PP     -0.002900
      4 O7         -2.5410    0.8870    0.9490 os        1 5PP     -0.260200
      5 C8         -3.2980   -0.0990    0.3190 ca        1 5PP      0.107100
      6 C13        -4.6570   -0.1150    0.6770 ca        1 5PP     -0.165500
      7 C12        -5.5010   -1.0330    0.0590 ca        1 5PP     -0.103000
      8 C11        -5.0030   -1.9240   -0.8930 ca        1 5PP     -0.155000
      9 C10        -3.6520   -1.9000   -1.2360 ca        1 5PP     -0.103000
     10 C9         -2.7870   -0.9870   -0.6330 ca        1 5PP     -0.165500
     11 C4         -0.4870   -0.3390    1.4650 ca        1 5PP     -0.105000
     12 C3          0.9030   -0.3560    1.4730 ca        1 5PP     -0.155000
     13 C2          1.6360    0.6980    0.9060 ca        1 5PP     -0.046300
     14 C1          0.9730    1.7790    0.3260 ca        1 5PP     -0.151000
     15 C14         3.1250    0.6640    0.9360 c3        1 5PP     -0.040100
     16 C15         3.6830   -0.3600   -0.0340 c3        1 5PP     -0.076400
     17 C16         5.1950   -0.4080    0.0360 c3        1 5PP     -0.080400
     18 C17         5.7580   -1.4260   -0.9320 c3        1 5PP     -0.080400
     19 C18         7.2620   -1.4790   -0.8660 c3        1 5PP     -0.093100
     20 H17        -1.9960    2.7710   -0.1970 ho        1 5PP      0.437000
     21 H13        -5.0320    0.5930    1.4290 ha        1 5PP      0.149500
     22 H12        -6.5670   -1.0550    0.3290 ha        1 5PP      0.135000
     23 H11        -5.6790   -2.6460   -1.3740 ha        1 5PP      0.134000
     24 H10        -3.2610   -2.6020   -1.9870 ha        1 5PP      0.135000
     25 H9         -1.7200   -0.9650   -0.8970 ha        1 5PP      0.149500
     26 H4         -1.0680   -1.1610    1.9090 ha        1 5PP      0.149000
     27 H3          1.4360   -1.2010    1.9320 ha        1 5PP      0.139000
     28 H1          1.5270    2.6170   -0.1210 ha        1 5PP      0.154000
     29 H141        3.4660    0.4150    1.9770 hc        1 5PP      0.051700
     30 H142        3.5390    1.6770    0.6850 hc        1 5PP      0.051700
     31 H151        3.3620   -0.1040   -1.0780 hc        1 5PP      0.044700
     32 H152        3.2610   -1.3720    0.2050 hc        1 5PP      0.044700
     33 H161        5.5160   -0.6650    1.0800 hc        1 5PP      0.040200
     34 H162        5.6150    0.6060   -0.1980 hc        1 5PP      0.040200
     35 H171        5.4350   -1.1670   -1.9750 hc        1 5PP      0.039200
     36 H172        5.3340   -2.4380   -0.6980 hc        1 5PP      0.039200
     37 H181        7.7030   -0.4850   -1.1210 hc        1 5PP      0.033033
     38 H182        7.6020   -1.7590    0.1610 hc        1 5PP      0.033033
     39 H183        7.6560   -2.2350   -1.5870 hc        1 5PP      0.033033
@<TRIPOS>BOND
     1    1    2 1   
     2    1   20 1   
     3    2    3 ar  
     4    2   14 ar  
     5    3    4 1   
     6    3   11 ar  
     7    4    5 1   
     8    5    6 ar  
     9    5   10 ar  
    10    6    7 ar  
    11    6   21 1   
    12    7    8 ar  
    13    7   22 1   
    14    8    9 ar  
    15    8   23 1   
    16    9   10 ar  
    17    9   24 1   
    18   10   25 1   
    19   11   12 ar  
    20   11   26 1   
    21   12   13 ar  
    22   12   27 1   
    23   13   14 ar  
    24   13   15 1   
    25   14   28 1   
    26   15   16 1   
    27   15   29 1   
    28   15   30 1   
    29   16   17 1   
    30   16   31 1   
    31   16   32 1   
    32   17   18 1   
    33   17   33 1   
    34   17   34 1   
    35   18   19 1   
    36   18   35 1   
    37   18   36 1   
    38   19   37 1   
    39   19   38 1   
    40   19   39 1   
@<TRIPOS>SUBSTRUCTURE
     1 5PP         1 TEMP              0 ****  ****    0 ROOT
