@<TRIPOS>MOLECULE
5PR
   21    21     1     0     0
SMALL
bcc


@<TRIPOS>ATOM
      1 N1         -0.0710    0.0730   -0.0180 nb        1 5PR     -0.677000
      2 C2          1.2820   -0.0040   -0.0650 ca        1 5PR      0.352600
      3 C3          2.0560   -0.0860    1.1210 ca        1 5PR     -0.009200
      4 O3          3.4270   -0.1560    0.9700 oh        1 5PR     -0.522100
      5 C4          1.4260   -0.1100    2.3810 ca        1 5PR     -0.135300
      6 C5          0.0350    0.0180    2.4190 ca        1 5PR     -0.196900
      7 C6         -0.6570    0.0920    1.1880 ca        1 5PR      0.383200
      8 C2A         1.9830   -0.0230   -1.3820 c3        1 5PR     -0.124400
      9 C4A         2.2130   -0.2770    3.6450 c3        1 5PR      0.190700
     10 O4A         2.5500    0.9660    4.2270 oh        1 5PR     -0.643800
     11 O51        -1.9450   -0.3140    3.7080 o         1 5PR     -0.825800
     12 O52        -0.1870    0.6100    4.7260 o         1 5PR     -0.825800
     13 C5A        -0.7560    0.1040    3.7130 c         1 5PR      0.914200
     14 HO3         3.8200    0.1940    1.7840 ho        1 5PR      0.422000
     15 H6         -1.7620    0.1600    1.2030 h4        1 5PR      0.038100
     16 H2A         1.3570    0.4150   -2.1960 hc        1 5PR      0.037700
     17 H2AA        2.9370    0.5550   -1.3040 hc        1 5PR      0.037700
     18 H2AB        2.2330   -1.0790   -1.6530 hc        1 5PR      0.037700
     19 H4A         3.1970   -0.7860    3.4500 h1        1 5PR      0.045700
     20 H4AA        1.6130   -0.8910    4.3720 h1        1 5PR      0.045700
     21 HO4A        1.7160    1.3440    4.5580 ho        1 5PR      0.455000
@<TRIPOS>BOND
     1    1    2 ar  
     2    1    7 ar  
     3    2    3 ar  
     4    2    8 1   
     5    3    4 1   
     6    3    5 ar  
     7    4   14 1   
     8    5    6 ar  
     9    5    9 1   
    10    6    7 ar  
    11    6   13 1   
    12    7   15 1   
    13    8   16 1   
    14    8   17 1   
    15    8   18 1   
    16    9   10 1   
    17    9   19 1   
    18    9   20 1   
    19   10   21 1   
    20   11   13 1   
    21   12   13 1   
@<TRIPOS>SUBSTRUCTURE
     1 5PR         1 TEMP              0 ****  ****    0 ROOT
