@<TRIPOS>MOLECULE
5PR
   21    21     1     0     0
SMALL
bcc


@<TRIPOS>ATOM
      1 N1         -0.1020    0.0820    0.0060 nb        1 5PR     -0.677000
      2 C2          1.2510    0.0260   -0.0650 ca        1 5PR      0.352600
      3 C3          2.0470   -0.0630    1.1060 ca        1 5PR     -0.009200
      4 O3          3.4160   -0.1110    0.9290 oh        1 5PR     -0.522100
      5 C4          1.4390   -0.1180    2.3760 ca        1 5PR     -0.135300
      6 C5          0.0470   -0.0120    2.4390 ca        1 5PR     -0.196900
      7 C6         -0.6670    0.0720    1.2220 ca        1 5PR      0.383200
      8 C2A         1.9290    0.0380   -1.3950 c3        1 5PR     -0.124400
      9 C4A         2.2510   -0.2930    3.6230 c3        1 5PR      0.190700
     10 O4A         2.5800    0.9450    4.2200 oh        1 5PR     -0.643800
     11 O51        -1.9050   -0.3940    3.7570 o         1 5PR     -0.825800
     12 O52        -0.1430    0.5400    4.7600 o         1 5PR     -0.825800
     13 C5A        -0.7230    0.0420    3.7480 c         1 5PR      0.914200
     14 HO3         3.8170    0.2320    1.7430 ho        1 5PR      0.422000
     15 H6         -1.7720    0.1230    1.2580 h4        1 5PR      0.038100
     16 H2A         1.2820    0.4800   -2.1910 hc        1 5PR      0.037700
     17 H2AA        2.8750    0.6290   -1.3230 hc        1 5PR      0.037700
     18 H2AB        2.1900   -1.0090   -1.6880 hc        1 5PR      0.037700
     19 H4A         3.2380   -0.7840    3.4030 h1        1 5PR      0.045700
     20 H4AA        1.6730   -0.9280    4.3500 h1        1 5PR      0.045700
     21 HO4A        1.7460    1.3060    4.5710 ho        1 5PR      0.455000
@<TRIPOS>BOND
     1    1    2 ar  
     2    1    7 ar  
     3    2    3 ar  
     4    2    8 1   
     5    3    4 1   
     6    3    5 ar  
     7    4   14 1   
     8    5    6 ar  
     9    5    9 1   
    10    6    7 ar  
    11    6   13 1   
    12    7   15 1   
    13    8   16 1   
    14    8   17 1   
    15    8   18 1   
    16    9   10 1   
    17    9   19 1   
    18    9   20 1   
    19   10   21 1   
    20   11   13 1   
    21   12   13 1   
@<TRIPOS>SUBSTRUCTURE
     1 5PR         1 TEMP              0 ****  ****    0 ROOT
