@<TRIPOS>MOLECULE
5PR
   21    21     1     0     0
SMALL
bcc


@<TRIPOS>ATOM
      1 N1         -1.3300    1.8950   -0.1470 nb        1 5PR     -0.677000
      2 C2         -2.0920    0.7750   -0.0740 ca        1 5PR      0.352600
      3 C3         -1.5050   -0.5050    0.0900 ca        1 5PR     -0.009200
      4 O3         -2.3640   -1.5850    0.1490 oh        1 5PR     -0.522100
      5 C4         -0.1060   -0.6370    0.2010 ca        1 5PR     -0.135300
      6 C5          0.6710    0.5180    0.0770 ca        1 5PR     -0.196900
      7 C6          0.0010    1.7530   -0.0820 ca        1 5PR      0.383200
      8 C2A        -3.5790    0.8790   -0.1460 c3        1 5PR     -0.124400
      9 C4A         0.5350   -1.9670    0.4550 c3        1 5PR      0.190700
     10 O4A         0.9220   -2.6060   -0.7440 oh        1 5PR     -0.643800
     11 O51         2.7910    1.5260    0.4980 o         1 5PR     -0.825800
     12 O52         2.7750   -0.5360   -0.3540 o         1 5PR     -0.825800
     13 C5A         2.1900    0.5010    0.0810 c         1 5PR      0.914200
     14 HO3        -1.8630   -2.3610   -0.1440 ho        1 5PR      0.422000
     15 H6          0.6040    2.6790   -0.1490 h4        1 5PR      0.038100
     16 H2A        -3.9850    0.0080   -0.7180 hc        1 5PR      0.037700
     17 H2AA       -4.0040    0.8490    0.8880 hc        1 5PR      0.037700
     18 H2AB       -3.9100    1.8250   -0.6400 hc        1 5PR      0.037700
     19 H4A         1.4320   -1.8200    1.1190 h1        1 5PR      0.045700
     20 H4AA       -0.1810   -2.6790    0.9500 h1        1 5PR      0.045700
     21 HO4A        1.6670   -2.0880   -1.0990 ho        1 5PR      0.455000
@<TRIPOS>BOND
     1    1    2 ar  
     2    1    7 ar  
     3    2    3 ar  
     4    2    8 1   
     5    3    4 1   
     6    3    5 ar  
     7    4   14 1   
     8    5    6 ar  
     9    5    9 1   
    10    6    7 ar  
    11    6   13 1   
    12    7   15 1   
    13    8   16 1   
    14    8   17 1   
    15    8   18 1   
    16    9   10 1   
    17    9   19 1   
    18    9   20 1   
    19   10   21 1   
    20   11   13 1   
    21   12   13 1   
@<TRIPOS>SUBSTRUCTURE
     1 5PR         1 TEMP              0 ****  ****    0 ROOT
