@<TRIPOS>MOLECULE
5PR
   21    18     1     0     0
SMALL
bcc


@<TRIPOS>ATOM
      1 N1         -1.3070   -0.0900   -1.7850 n1        1 5PR     -0.469800
      2 C2          0.0560   -0.0900   -1.7850 c1        1 5PR     -0.055100
      3 C3          0.7490   -0.0900   -0.5850 cg        1 5PR     -0.009300
      4 O3          2.1560   -0.1090   -0.5850 o         1 5PR     -0.278000
      5 C4          0.0670   -0.0900    0.5970 ce        1 5PR     -0.183000
      6 C5         -1.2980   -0.0900    0.5960 c1        1 5PR     -0.031900
      7 C6         -1.9890   -0.0900   -0.6060 c1        1 5PR      0.291300
      8 C2A         0.8120   -0.1120   -3.0950 c3        1 5PR     -0.054000
      9 C4A         0.8220   -0.1580    1.9060 c3        1 5PR      0.147600
     10 O4A         0.7660    1.0960    2.5480 oh        1 5PR     -0.640800
     11 O51        -2.3610   -1.2150    2.4340 o         1 5PR     -0.820300
     12 O52        -2.3900    0.9650    2.4600 o         1 5PR     -0.820300
     13 C5A        -2.0560   -0.1150    1.9050 c         1 5PR      0.888600
     14 HO3         2.4630    0.7200   -0.6660 ho        1 5PR      0.233000
     15 H6         -2.9650   -0.0860   -0.6070 ha        1 5PR      0.117500
     16 H2A         0.1790   -0.1780   -3.8350 hc        1 5PR      0.036700
     17 H2AA        1.3330    0.7080   -3.1850 hc        1 5PR      0.036700
     18 H2AB        1.4120   -0.8820   -3.1110 hc        1 5PR      0.036700
     19 H4A         1.7530   -0.3940    1.7330 h1        1 5PR      0.084700
     20 H4AA        0.4160   -0.8360    2.4810 h1        1 5PR      0.084700
     21 HO4A        1.3840    1.1310    3.1850 ho        1 5PR      0.404000
@<TRIPOS>BOND
     1    1    7 3   
     2    2    3 3   
     3    2    8 1   
     4    3    5 1   
     5    4   14 1   
     6    5    6 2   
     7    5    9 1   
     8    6   13 2   
     9    7   15 1   
    10    8   16 1   
    11    8   17 1   
    12    8   18 1   
    13    9   10 1   
    14    9   19 1   
    15    9   20 1   
    16   10   21 1   
    17   11   13 1   
    18   12   13 1   
@<TRIPOS>SUBSTRUCTURE
     1 5PR         1 TEMP              0 ****  ****    0 ROOT
