@<TRIPOS>MOLECULE
5PS
   59    52     1     0     0
SMALL
bcc


@<TRIPOS>ATOM
      1 C1          4.6750   -0.3920   -2.2890 c1        1 5PS     -0.128833
      2 F1         -0.5130    7.2550    5.9440 f         1 5PS     -0.102000
      3 N1          6.8200   -1.3040   -1.7990 n1        1 5PS     -0.160000
      4 O1         -0.3840    1.1690   -1.1350 o         1 5PS     -0.364000
      5 C2          6.0540   -0.3700   -2.4320 c1        1 5PS     -0.128833
      6 F2         -2.6210    2.6250    0.2050 f         1 5PS     -0.082000
      7 N2          2.6890   -1.1530   -1.6930 n         1 5PS     -0.318000
      8 O2          2.1790   -2.3560    0.1810 o         1 5PS     -0.352000
      9 C3          6.2310   -2.2590   -1.0260 c1        1 5PS     -0.054000
     10 N3         -0.2250   -0.7290    0.1260 n         1 5PS     -0.359000
     11 C4          4.8520   -2.2830   -0.8820 c1        1 5PS     -0.214000
     12 N4         -3.4570   -3.5690   -2.5270 n2        1 5PS     -0.212000
     13 C5          4.0850   -1.3480   -1.5150 c1        1 5PS      0.112000
     14 C6          1.7710   -1.7110   -0.7640 c2        1 5PS      0.297000
     15 C8         -0.4060    0.6720   -0.0270 c2        1 5PS      0.355000
     16 C9         -0.6750    1.5380    1.1870 c2        1 5PS     -0.160000
     17 C10         0.2160    1.5400    2.2490 c2        1 5PS     -0.079000
     18 C11        -0.0210    2.3450    3.3530 c1        1 5PS     -0.142000
     19 C12        -1.1500    3.1490    3.3940 c1        1 5PS      0.010000
     20 C13        -1.4240    4.0100    4.6120 c2        1 5PS     -0.026000
     21 C14        -2.1910    3.5120    5.6540 c2        1 5PS     -0.130000
     22 C15        -2.3840    4.2720    6.7980 c1        1 5PS     -0.105000
     23 C16        -1.8090    5.5290    6.9000 c1        1 5PS     -0.156000
     24 C17        -1.0420    6.0270    5.8580 c2        1 5PS      0.093000
     25 C18        -0.8490    5.2670    4.7150 c2        1 5PS     -0.151000
     26 C19        -2.0420    3.1470    2.3320 c1        1 5PS     -0.166000
     27 C20        -1.8040    2.3420    1.2290 c1        1 5PS      0.146000
     28 C21        -0.4130   -2.8440   -0.9850 c3        1 5PS     -0.095000
     29 C22        -1.3730   -2.8850   -2.1560 c2        1 5PS     -0.166000
     30 C23        -2.5410   -3.3010   -1.5470 c1        1 5PS     -0.076000
     31 C24        -2.8610   -3.3200   -3.7510 c1        1 5PS     -0.001000
     32 C25        -3.3370   -3.4310   -5.0680 c1        1 5PS     -0.128833
     33 C26        -2.5080   -3.1150   -6.1350 c1        1 5PS     -0.128833
     34 C27        -1.2070   -2.6880   -5.9000 c1        1 5PS     -0.128833
     35 C28        -0.7370   -2.5780   -4.6000 c1        1 5PS     -0.128833
     36 C29        -1.5770   -2.8990   -3.5190 c1        1 5PS     -0.076000
     37 C7          0.2850   -1.5020   -0.9520 c3        1 5PS      0.009000
     38 H1          4.1270    0.2770   -2.7420 ha        1 5PS      0.139500
     39 H2          6.4770    0.3140   -2.9850 ha        1 5PS      0.139500
     40 H3          6.7800   -2.9270   -0.5740 ha        1 5PS      0.159000
     41 HA          2.3810   -0.6930   -2.4170 hn        1 5PS      0.264000
     42 H4          4.4310   -2.9670   -0.3290 ha        1 5PS      0.178000
     43 HB         -0.4490   -1.1350    0.9120 hn        1 5PS      0.236000
     44 H7          0.1250   -1.0310   -1.7940 h1        1 5PS      0.129000
     45 HC         -4.3110   -3.8600   -2.3960 DU        1 5PS      0.208500
     46 H23        -2.6810   -3.4070   -0.5870 DU        1 5PS      0.208500
     47 H10         1.0120    0.9740    2.2200 ha        1 5PS      0.150000
     48 H11         0.6060    2.3460    4.1000 ha        1 5PS      0.148000
     49 H19        -2.8370    3.7130    2.3620 ha        1 5PS      0.160000
     50 H14        -2.5960    2.6270    5.5830 ha        1 5PS      0.140000
     51 H18        -0.3100    5.6190    3.9810 ha        1 5PS      0.156000
     52 H15        -2.9250    3.9210    7.5310 ha        1 5PS      0.142000
     53 H16        -1.9450    6.0640    7.7050 ha        1 5PS      0.153000
     54 H211        0.2520   -3.5540   -1.0820 hc        1 5PS      0.114500
     55 H212       -0.9090   -2.9740   -0.1520 hc        1 5PS      0.114500
     56 H25        -4.2510   -3.7310   -5.2340 ha        1 5PS      0.139500
     57 H26        -2.8390   -3.1920   -7.0500 ha        1 5PS      0.139500
     58 H27        -0.6240   -2.4660   -6.6510 ha        1 5PS      0.139500
     59 H28         0.1770   -2.2780   -4.4350 ha        1 5PS      0.139500
@<TRIPOS>BOND
     1    1    5 1   
     2    1   38 1   
     3    2   24 1   
     4    3    9 1   
     5    4   15 1   
     6    5   39 1   
     7    6   27 1   
     8    7   13 1   
     9    7   14 1   
    10    7   41 1   
    11    8   14 1   
    12    9   40 1   
    13   10   15 1   
    14   10   37 1   
    15   10   43 1   
    16   11   13 1   
    17   11   42 1   
    18   12   30 1   
    19   12   31 1   
    20   14   37 1   
    21   15   16 1   
    22   16   17 1   
    23   16   27 1   
    24   17   18 1   
    25   17   47 1   
    26   18   48 1   
    27   19   20 1   
    28   19   26 1   
    29   20   21 1   
    30   20   25 1   
    31   21   22 1   
    32   21   50 1   
    33   22   52 1   
    34   23   24 1   
    35   23   53 1   
    36   24   25 1   
    37   25   51 1   
    38   26   49 1   
    39   28   29 1   
    40   28   37 1   
    41   28   54 1   
    42   28   55 1   
    43   29   30 1   
    44   29   36 1   
    45   31   36 1   
    46   32   33 1   
    47   32   56 1   
    48   33   57 1   
    49   34   35 1   
    50   34   58 1   
    51   35   59 1   
    52   37   44 1   
@<TRIPOS>SUBSTRUCTURE
     1 5PS         1 TEMP              0 ****  ****    0 ROOT
