@<TRIPOS>MOLECULE
5PS
   59    58     1     0     0
SMALL
bcc


@<TRIPOS>ATOM
      1 C1          1.2820   -2.1470   -1.8300 c1        1 5PS     -0.212000
      2 F1         -7.4040    4.1280   11.6850 f         1 5PS     -0.018000
      3 N1          1.1920    3.6740    1.1560 n2        1 5PS     -0.383000
      4 O1         -4.3990    3.2010    2.5350 o         1 5PS     -0.210000
      5 C2          1.2870    4.7390    1.6480 c1        1 5PS      0.055000
      6 F2         -2.5060    3.6610    5.6450 f         1 5PS     -0.097000
      7 O2         -1.9570    0.1490    1.6590 o         1 5PS     -0.549000
      8 C3          0.7830    0.8900    0.0430 c1        1 5PS      0.167000
      9 N3         -3.1880    1.5280    3.6680 n4        1 5PS      0.065000
     10 C4          0.3660   -0.3180   -0.2430 c2        1 5PS     -0.352000
     11 N4         -8.2380    1.2470    2.4910 n4        1 5PS      0.077000
     12 C5          0.8620   -1.2980   -1.0980 c1        1 5PS     -0.088000
     13 C6         -3.0030   -0.3760    2.1680 c2        1 5PS      0.382000
     14 C8         -4.1590    2.6670    3.6120 c2        1 5PS      0.311000
     15 C9         -4.7300    3.0610    4.9210 c2        1 5PS     -0.179000
     16 C10        -6.0100    2.7790    5.2300 c2        1 5PS     -0.102000
     17 C11        -6.5760    3.2120    6.4920 c2        1 5PS     -0.138000
     18 C12        -6.7100    4.5080    6.8320 c2        1 5PS     -0.120000
     19 C13        -7.3200    4.9990    8.1080 c3        1 5PS      0.017000
     20 C14        -6.5590    6.1960    8.5960 c2        1 5PS     -0.176000
     21 C15        -7.1400    7.3300    8.9750 c2        1 5PS     -0.200000
     22 C16        -7.5630    2.5870    9.5140 c1        1 5PS      0.084000
     23 C17        -7.4490    3.6640   10.4650 c2        1 5PS      0.000000
     24 C18        -7.4120    3.9730    9.1380 c2        1 5PS     -0.198000
     25 C19        -4.3650    4.4570    6.9110 c1        1 5PS      0.177000
     26 C20        -3.8480    3.7650    5.8640 c2        1 5PS     -0.188000
     27 C21        -4.9520   -0.2700    3.8570 c3        1 5PS      0.028000
     28 C22        -6.1980   -0.1060    3.0360 c2        1 5PS     -0.093000
     29 C23        -7.0300    0.9400    3.2570 c1        1 5PS     -0.362000
     30 C24        -8.7990    0.1540    1.7180 c2        1 5PS     -0.233000
     31 C25        -8.8510    0.0660    0.3720 c2        1 5PS     -0.085000
     32 C26        -8.8190   -1.2510   -0.2550 c2        1 5PS     -0.173000
     33 C27        -7.8480   -2.1240    0.1240 c2        1 5PS      0.014000
     34 C28        -6.9900   -1.7240    1.1630 c1        1 5PS     -0.218000
     35 C29        -6.4950   -1.0600    2.0420 c1        1 5PS     -0.062000
     36 C7         -3.7320    0.2690    3.2220 c2        1 5PS     -0.587000
     37 H1         -2.9530   -1.9510    0.8850 hn        1 5PS      0.205500
     38 H2          1.6550   -2.8980   -2.4780 ha        1 5PS      0.225000
     39 H3          1.1090    2.7850    0.7480 hn        1 5PS      0.308000
     40 HA         -4.3060   -1.9390    1.8930 hn        1 5PS      0.205500
     41 H4         -0.5780   -0.5890    0.3310 ha        1 5PS      0.270000
     42 HB         -2.3770    1.7430    3.0600 hn        1 5PS      0.240500
     43 H7         -2.8700    1.4340    4.6390 hn        1 5PS      0.240500
     44 HC         -8.0100    2.0400    1.8810 hn        1 5PS      0.224500
     45 H23        -8.9220    1.5600    3.1870 hn        1 5PS      0.224500
     46 H10        -6.6420    2.1290    4.5230 ha        1 5PS      0.270000
     47 H11        -6.9030    2.3930    7.1660 ha        1 5PS      0.180000
     48 H19        -6.4610    5.3230    6.1240 ha        1 5PS      0.151000
     49 H14        -5.4620    6.0620    8.5970 ha        1 5PS      0.157000
     50 H18        -8.3870    5.3100    7.8630 hc        1 5PS      0.128000
     51 H15        -8.2270    7.4810    8.9670 ha        1 5PS      0.118000
     52 H16        -6.5550    8.1920    9.3230 ha        1 5PS      0.118000
     53 H211       -5.1280    0.2170    4.8580 hc        1 5PS      0.081500
     54 H212       -4.8040   -1.3670    4.0580 hc        1 5PS      0.081500
     55 H25        -9.0400   -0.7180    2.3610 hx        1 5PS      0.177000
     56 H26        -8.7640    0.9350   -0.2990 ha        1 5PS      0.141000
     57 H27        -9.5270   -1.4680   -1.0640 ha        1 5PS      0.150000
     58 H28        -7.7060   -3.1020   -0.3600 ha        1 5PS      0.152000
     59 N2         -3.3790   -1.6350    1.7220 n         1 5PS     -0.405000
@<TRIPOS>BOND
     1    1   12 1   
     2    1   38 1   
     3    2   23 1   
     4    3    5 1   
     5    3   39 1   
     6    4   14 1   
     7    6   26 1   
     8    7   13 1   
     9    8   10 1   
    10    9   14 1   
    11    9   36 1   
    12    9   42 1   
    13    9   43 1   
    14   10   12 1   
    15   10   41 1   
    16   11   29 1   
    17   11   30 1   
    18   11   44 1   
    19   11   45 1   
    20   13   36 1   
    21   13   59 1   
    22   14   15 1   
    23   15   16 1   
    24   15   26 1   
    25   16   17 1   
    26   16   46 1   
    27   17   18 1   
    28   17   47 1   
    29   18   19 1   
    30   18   48 1   
    31   19   20 1   
    32   19   24 1   
    33   19   50 1   
    34   20   21 1   
    35   20   49 1   
    36   21   51 1   
    37   21   52 1   
    38   22   23 1   
    39   22   24 1   
    40   23   24 1   
    41   25   26 1   
    42   27   28 1   
    43   27   36 1   
    44   27   53 1   
    45   27   54 1   
    46   28   29 1   
    47   28   35 1   
    48   30   31 1   
    49   30   55 1   
    50   31   32 1   
    51   31   56 1   
    52   32   33 1   
    53   32   57 1   
    54   33   34 1   
    55   33   58 1   
    56   34   35 1   
    57   37   59 1   
    58   40   59 1   
@<TRIPOS>SUBSTRUCTURE
     1 5PS         1 TEMP              0 ****  ****    0 ROOT
