@<TRIPOS>MOLECULE
5PS
   60    60     1     0     0
SMALL
bcc


@<TRIPOS>ATOM
      1 C1          0.3750   -3.4190   -0.5090 c2        1 5PS     -0.149000
      2 F1        -10.1460    3.5200    9.6970 f         1 5PS     -0.025000
      3 N1          2.6320   -0.8800   -1.3140 n2        1 5PS     -0.174000
      4 O1         -6.3240    1.6760    4.0730 o         1 5PS     -0.444000
      5 C2          1.6830   -1.4560   -0.9710 c1        1 5PS      0.353000
      6 F2         -4.1800    4.9070    4.4890 f         1 5PS     -0.096000
      7 O2         -3.5680    3.5890    1.7290 oh        1 5PS     -0.286000
      8 C3         -1.3660   -0.3310    0.1480 c1        1 5PS     -0.135000
      9 N3         -4.0280    2.0470    4.1030 n         1 5PS     -0.255000
     10 C4         -0.5030   -1.1370   -0.1690 c1        1 5PS     -0.566000
     11 N4         -7.2190   -0.9710    3.1880 n4        1 5PS      0.071000
     12 C5          0.4600   -2.0740   -0.5280 c2        1 5PS      0.118000
     13 C6         -3.3920    2.2150    1.7440 c2        1 5PS      0.268000
     14 C8         -5.3180    2.2760    4.5240 c2        1 5PS      0.352000
     15 C9         -5.4870    3.2330    5.6660 c2        1 5PS     -0.122000
     16 C10        -6.1430    2.8740    6.7870 c2        1 5PS     -0.089000
     17 C11        -6.2830    3.8240    7.8830 c2        1 5PS     -0.177000
     18 C12        -7.1530    4.8520    7.8680 c2        1 5PS     -0.067000
     19 C13        -7.3220    5.7930    9.0250 c3        1 5PS      0.011000
     20 C14        -7.2190    7.2100    8.5480 c2        1 5PS     -0.188000
     21 C15        -7.8780    8.2370    9.0750 c2        1 5PS     -0.185000
     22 C16        -9.5590    5.9270   10.7030 c1        1 5PS      0.130000
     23 C17        -9.6010    4.6720    9.9870 c2        1 5PS     -0.020000
     24 C18        -8.5630    5.5170    9.7360 c2        1 5PS     -0.211000
     25 C19        -5.3060    5.5360    6.4910 c1        1 5PS      0.195000
     26 C20        -4.9760    4.6060    5.5530 c2        1 5PS     -0.196000
     27 C21        -3.5020   -0.0420    2.8450 c3        1 5PS     -0.036000
     28 C22        -4.8310   -0.6190    2.4490 c2        1 5PS      0.140000
     29 C23        -5.7800   -0.7920    3.4100 c2        1 5PS     -0.223000
     30 C24        -7.5120   -1.5810    1.9010 c2        1 5PS     -0.218000
     31 C25        -8.1960   -0.9950    0.8950 c2        1 5PS     -0.047000
     32 C26        -7.9330   -1.4150   -0.4800 c2        1 5PS     -0.146000
     33 C27        -6.6440   -1.4250   -0.9140 c2        1 5PS      0.001000
     34 C28        -5.6530   -1.1280    0.0420 c1        1 5PS     -0.089000
     35 C29        -5.1420   -0.8670    1.1020 c1        1 5PS     -0.112000
     36 C7         -3.6490    1.4430    2.8850 c2        1 5PS     -0.356000
     37 H1         -0.5550   -3.9020   -0.1740 ha        1 5PS      0.148000
     38 H2          1.1880   -4.0890   -0.8110 ha        1 5PS      0.148000
     39 H3          3.4190   -0.3720   -1.5990 hn        1 5PS      0.378000
     40 HA         -2.7840    2.4660   -0.1400 hn        1 5PS      0.273500
     41 H4         -2.4050    0.8500    0.4510 hn        1 5PS      0.273500
     42 HB         -4.1150    3.8640    2.4780 ho        1 5PS      0.240000
     43 H7         -3.3180    2.6100    4.5250 hn        1 5PS      0.229000
     44 HC         -7.6360   -0.0240    3.2550 hn        1 5PS      0.255000
     45 H23        -7.5990   -1.5550    3.9420 hn        1 5PS      0.255000
     46 H10        -6.5690    1.8690    6.9280 ha        1 5PS      0.158000
     47 H11        -5.6330    3.6290    8.7560 ha        1 5PS      0.160000
     48 H19        -7.8260    5.0360    7.0120 ha        1 5PS      0.151000
     49 H14        -6.4980    7.3390    7.7210 ha        1 5PS      0.150000
     50 H18        -6.4740    5.6330    9.7660 hc        1 5PS      0.137000
     51 H15        -8.5950    8.1350    9.9040 ha        1 5PS      0.130500
     52 H16        -7.7360    9.2620    8.7060 ha        1 5PS      0.130500
     53 H211       -3.1990   -0.4450    3.8490 hc        1 5PS      0.122000
     54 H212       -2.7120   -0.3560    2.1090 hc        1 5PS      0.122000
     55 H25        -6.9980   -2.5560    1.7800 hx        1 5PS      0.191000
     56 H26        -8.8410   -0.1080    1.0220 ha        1 5PS      0.164000
     57 H27        -8.7850   -1.6230   -1.1410 ha        1 5PS      0.173000
     58 H28        -6.3630   -1.6280   -1.9600 ha        1 5PS      0.177000
     59 N2         -2.9640    1.7660    0.5430 n3        1 5PS     -0.391000
     60 H32        -5.5540   -0.6400    4.4820 hx        1 5PS      0.193000
@<TRIPOS>BOND
     1    1   12 1   
     2    1   37 1   
     3    1   38 1   
     4    2   23 1   
     5    3    5 1   
     6    3   39 1   
     7    4   14 1   
     8    5   12 1   
     9    6   26 1   
    10    7   13 1   
    11    7   42 1   
    12    8   10 1   
    13    9   14 1   
    14    9   36 1   
    15    9   43 1   
    16   10   12 1   
    17   11   29 1   
    18   11   30 1   
    19   11   44 1   
    20   11   45 1   
    21   13   36 1   
    22   13   59 1   
    23   14   15 1   
    24   15   16 1   
    25   15   26 1   
    26   16   17 1   
    27   16   46 1   
    28   17   18 1   
    29   17   47 1   
    30   18   19 1   
    31   18   48 1   
    32   19   20 1   
    33   19   24 1   
    34   19   50 1   
    35   20   21 1   
    36   20   49 1   
    37   21   51 1   
    38   21   52 1   
    39   22   23 1   
    40   22   24 1   
    41   23   24 1   
    42   25   26 1   
    43   27   28 1   
    44   27   36 1   
    45   27   53 1   
    46   27   54 1   
    47   28   29 1   
    48   28   35 1   
    49   29   60 1   
    50   30   31 1   
    51   30   55 1   
    52   31   32 1   
    53   31   56 1   
    54   32   33 1   
    55   32   57 1   
    56   33   34 1   
    57   33   58 1   
    58   34   35 1   
    59   40   59 1   
    60   41   59 1   
@<TRIPOS>SUBSTRUCTURE
     1 5PS         1 TEMP              0 ****  ****    0 ROOT
