@<TRIPOS>MOLECULE
5PS
   59    63     1     0     0
SMALL
bcc


@<TRIPOS>ATOM
      1 C1         -3.9610   -4.0370   -1.2690 ca        1 5PS     -0.288300
      2 F1          7.9370    0.8800    1.4140 f         1 5PS     -0.138900
      3 N1         -5.3750   -5.7730   -0.3300 nb        1 5PS     -0.687000
      4 O1         -1.2990   -0.5840   -1.5570 o         1 5PS     -0.607100
      5 C2         -4.6010   -5.2810   -1.3180 ca        1 5PS      0.411700
      6 F2          0.8930   -2.6370   -1.2520 f         1 5PS     -0.119900
      7 O2         -4.0860   -1.2670    2.0560 o         1 5PS     -0.591100
      8 C3         -5.5260   -4.9990    0.7610 ca        1 5PS      0.411700
      9 N3         -1.2680   -0.0290    0.6660 n         1 5PS     -0.551900
     10 C4         -4.9370   -3.7350    0.9250 ca        1 5PS     -0.288300
     11 N4         -0.9370    4.2150    2.3400 na        1 5PS     -0.191400
     12 C5         -4.1280   -3.2270   -0.1150 ca        1 5PS      0.104600
     13 C6         -3.4880   -1.0840    0.9820 c         1 5PS      0.651100
     14 C8         -0.6410   -0.3260   -0.5280 c         1 5PS      0.683700
     15 C9          0.8490   -0.3530   -0.5090 ca        1 5PS     -0.177600
     16 C10         1.5650    0.7890   -0.1410 ca        1 5PS     -0.080000
     17 C11         2.9550    0.7930   -0.1630 ca        1 5PS     -0.140000
     18 C12         3.6620   -0.3550   -0.5530 cp        1 5PS      0.010000
     19 C13         5.1250   -0.3490   -0.5790 cp        1 5PS     -0.026000
     20 C14         5.8170   -0.9640   -1.6320 ca        1 5PS     -0.127000
     21 C15         7.2100   -0.9540   -1.6580 ca        1 5PS     -0.104000
     22 C16         7.9360   -0.3390   -0.6430 ca        1 5PS     -0.156000
     23 C17         7.2450    0.2780    0.4170 ca        1 5PS      0.125900
     24 C18         5.8390    0.2760    0.4490 ca        1 5PS     -0.153000
     25 C19         2.9610   -1.5070   -0.9200 ca        1 5PS     -0.165000
     26 C20         1.5520   -1.5110   -0.9010 ca        1 5PS      0.179900
     27 C21        -3.0650    1.2180    1.8540 c3        1 5PS     -0.014200
     28 C22        -2.3290    2.4840    1.7750 cc        1 5PS     -0.154400
     29 C23        -1.4490    2.9790    2.7400 cd        1 5PS     -0.105100
     30 C24        -1.5300    4.5610    1.1210 ca        1 5PS     -0.050200
     31 C25        -1.3720    5.7000    0.3170 ca        1 5PS     -0.144000
     32 C26        -2.0870    5.7540   -0.8700 ca        1 5PS     -0.110000
     33 C27        -2.9410    4.7090   -1.2640 ca        1 5PS     -0.150000
     34 C28        -3.1060    3.5770   -0.4800 ca        1 5PS     -0.084000
     35 C29        -2.4050    3.4800    0.7240 ca        1 5PS     -0.089800
     36 C7         -2.6840    0.2280    0.7380 c3        1 5PS      0.038700
     37 H1         -3.3430   -3.7060   -2.1150 ha        1 5PS      0.163000
     38 H2         -4.4860   -5.9300   -2.2050 h4        1 5PS      0.020600
     39 H3         -6.1640   -5.4180    1.5610 h4        1 5PS      0.020600
     40 HA         -2.9590   -1.7380   -0.8850 hn        1 5PS      0.350500
     41 H4         -5.1120   -3.1670    1.8510 ha        1 5PS      0.163000
     42 HB         -0.7210    0.2380    1.4500 hn        1 5PS      0.324500
     43 H7         -3.0240    0.6600   -0.2550 h1        1 5PS      0.088700
     44 HC         -0.4160    4.8290    2.9090 hn        1 5PS      0.299700
     45 H23        -1.1460    2.5320    3.6890 h4        1 5PS      0.168000
     46 H10         1.0210    1.7010    0.1530 ha        1 5PS      0.151000
     47 H11         3.5060    1.7040    0.1170 ha        1 5PS      0.148000
     48 H19         3.4960   -2.4200   -1.2210 ha        1 5PS      0.160000
     49 H14         5.2550   -1.4500   -2.4450 ha        1 5PS      0.144000
     50 H18         5.3140    0.7570    1.2870 ha        1 5PS      0.151000
     51 H15         7.7440   -1.4370   -2.4910 ha        1 5PS      0.143000
     52 H16         9.0350   -0.3290   -0.6570 ha        1 5PS      0.153000
     53 H211       -2.9010    0.7320    2.8550 hc        1 5PS      0.076700
     54 H212       -4.1690    1.4100    1.7590 hc        1 5PS      0.076700
     55 H25        -0.7080    6.5200    0.6190 ha        1 5PS      0.134000
     56 H26        -1.9860    6.6350   -1.5220 ha        1 5PS      0.133000
     57 H27        -3.4880    4.7980   -2.2150 ha        1 5PS      0.134000
     58 H28        -3.7770    2.7650   -0.7950 ha        1 5PS      0.135000
     59 N2         -3.4940   -1.9800   -0.0720 n         1 5PS     -0.463100
@<TRIPOS>BOND
     1    1    5 ar  
     2    1   12 ar  
     3    1   37 1   
     4    2   23 1   
     5    3    5 ar  
     6    3    8 ar  
     7    4   14 2   
     8    5   38 1   
     9    6   26 1   
    10    7   13 2   
    11    8   10 ar  
    12    8   39 1   
    13    9   14 1   
    14    9   36 1   
    15    9   42 1   
    16   10   12 ar  
    17   10   41 1   
    18   11   29 1   
    19   11   30 1   
    20   11   44 1   
    21   12   59 1   
    22   13   36 1   
    23   13   59 1   
    24   14   15 1   
    25   15   16 ar  
    26   15   26 ar  
    27   16   17 ar  
    28   16   46 1   
    29   17   18 ar  
    30   17   47 1   
    31   18   19 1   
    32   18   25 ar  
    33   19   20 ar  
    34   19   24 ar  
    35   20   21 ar  
    36   20   49 1   
    37   21   22 ar  
    38   21   51 1   
    39   22   23 ar  
    40   22   52 1   
    41   23   24 ar  
    42   24   50 1   
    43   25   26 ar  
    44   25   48 1   
    45   27   28 1   
    46   27   36 1   
    47   27   53 1   
    48   27   54 1   
    49   28   29 2   
    50   28   35 1   
    51   29   45 1   
    52   30   31 ar  
    53   30   35 ar  
    54   31   32 ar  
    55   31   55 1   
    56   32   33 ar  
    57   32   56 1   
    58   33   34 ar  
    59   33   57 1   
    60   34   35 ar  
    61   34   58 1   
    62   36   43 1   
    63   40   59 1   
@<TRIPOS>SUBSTRUCTURE
     1 5PS         1 TEMP              0 ****  ****    0 ROOT
