@<TRIPOS>MOLECULE
5PV
   26    23     1     0     0
SMALL
bcc


@<TRIPOS>ATOM
      1 C1          0.6360    0.9900    1.0810 c1        1 5PV     -0.021100
      2 C2          2.0140    0.8420    1.0900 c1        1 5PV     -0.079750
      3 C3          2.7060    0.8710    2.2910 c1        1 5PV     -0.079750
      4 C4          2.0200    1.0500    3.4820 c1        1 5PV     -0.079750
      5 C5          0.6420    1.1980    3.4720 c1        1 5PV     -0.079750
      6 C6         -0.0500    1.1690    2.2720 c1        1 5PV     -0.072500
      7 C7         -0.1110    1.0190   -0.2340 c3        1 5PV     -0.079300
      8 C8         -0.6930   -0.3490   -0.5130 c3        1 5PV     -0.074400
      9 C9         -0.9570   -0.4920   -1.9960 c3        1 5PV     -0.066400
     10 C10        -1.7650   -1.7460   -2.2460 c3        1 5PV     -0.194400
     11 C11        -1.5920   -2.1780   -3.6840 c         1 5PV      0.908600
     12 O1         -0.5920   -2.8660   -4.0190 o         1 5PV     -0.852300
     13 O2         -2.4290   -1.8200   -4.5540 o         1 5PV     -0.852300
     14 H2          2.4980    0.7160    0.2520 ha        1 5PV      0.065250
     15 H3          3.6760    0.7670    2.2980 ha        1 5PV      0.065250
     16 H4          2.5070    1.0710    4.3270 ha        1 5PV      0.065250
     17 H5          0.1590    1.3240    4.3110 ha        1 5PV      0.065250
     18 H6         -1.0200    1.2730    2.2650 ha        1 5PV      0.078500
     19 H71         0.5040    1.2650   -0.9530 hc        1 5PV      0.047700
     20 H72        -0.8340    1.6760   -0.1840 hc        1 5PV      0.047700
     21 H81        -0.0590   -1.0380   -0.2270 hc        1 5PV      0.031200
     22 H82        -1.5320   -0.4540   -0.0210 hc        1 5PV      0.031200
     23 H91        -1.4560    0.2860   -2.3140 hc        1 5PV      0.044700
     24 H92        -0.1060   -0.5520   -2.4740 hc        1 5PV      0.044700
     25 H101       -1.4540   -2.4580   -1.6520 hc        1 5PV      0.019700
     26 H102       -2.7100   -1.5650   -2.0710 hc        1 5PV      0.019700
@<TRIPOS>BOND
     1    1    6 3   
     2    1    7 1   
     3    2    3 3   
     4    2   14 1   
     5    3   15 1   
     6    4    5 3   
     7    4   16 1   
     8    5   17 1   
     9    6   18 1   
    10    7    8 1   
    11    7   19 1   
    12    7   20 1   
    13    8    9 1   
    14    8   21 1   
    15    8   22 1   
    16    9   10 1   
    17    9   23 1   
    18    9   24 1   
    19   10   11 1   
    20   10   25 1   
    21   10   26 1   
    22   11   12 1   
    23   11   13 1   
@<TRIPOS>SUBSTRUCTURE
     1 5PV         1 TEMP              0 ****  ****    0 ROOT
