@<TRIPOS>MOLECULE
5PV
   26    26     1     0     0
SMALL
bcc


@<TRIPOS>ATOM
      1 C1          0.1530    0.4030   -2.1020 ca        1 5PV     -0.055300
      2 C2         -1.1080    0.0600   -2.6080 ca        1 5PV     -0.131500
      3 C3         -1.2420   -0.3990   -3.9160 ca        1 5PV     -0.134000
      4 C4         -0.1180   -0.5220   -4.7350 ca        1 5PV     -0.149000
      5 C5          1.1390   -0.1840   -4.2380 ca        1 5PV     -0.134000
      6 C6          1.2760    0.2760   -2.9290 ca        1 5PV     -0.131500
      7 C7          0.2880    0.9040   -0.7060 c3        1 5PV     -0.045100
      8 C8          0.0310   -0.1810    0.3230 c3        1 5PV     -0.074400
      9 C9          0.1020    0.3750    1.7300 c3        1 5PV     -0.067400
     10 C10        -0.1400   -0.6910    2.7700 c3        1 5PV     -0.194400
     11 C11        -0.2800   -0.0770    4.1750 c         1 5PV      0.907600
     12 O1          0.3310   -0.6420    5.1270 o         1 5PV     -0.852800
     13 O2         -1.0100    0.9480    4.3160 o         1 5PV     -0.852800
     14 H2         -1.9920    0.1520   -1.9600 ha        1 5PV      0.134000
     15 H3         -2.2350   -0.6680   -4.3030 ha        1 5PV      0.120000
     16 H4         -0.2250   -0.8850   -5.7660 ha        1 5PV      0.118000
     17 H5          2.0270   -0.2810   -4.8780 ha        1 5PV      0.120000
     18 H6          2.2710    0.5380   -2.5400 ha        1 5PV      0.134000
     19 H71        -0.4420    1.7420   -0.5450 hc        1 5PV      0.047700
     20 H72         1.3160    1.3260   -0.5460 hc        1 5PV      0.047700
     21 H81         0.7840   -1.0020    0.2010 hc        1 5PV      0.031200
     22 H82        -0.9820   -0.6310    0.1460 hc        1 5PV      0.031200
     23 H91        -0.6620    1.1870    1.8640 hc        1 5PV      0.044700
     24 H92         1.1090    0.8390    1.8980 hc        1 5PV      0.044700
     25 H101        0.6960   -1.4330    2.7710 hc        1 5PV      0.019700
     26 H102       -1.0890   -1.2400    2.5420 hc        1 5PV      0.019700
@<TRIPOS>BOND
     1    1    2 ar  
     2    1    6 ar  
     3    1    7 1   
     4    2    3 ar  
     5    2   14 1   
     6    3    4 ar  
     7    3   15 1   
     8    4    5 ar  
     9    4   16 1   
    10    5    6 ar  
    11    5   17 1   
    12    6   18 1   
    13    7    8 1   
    14    7   19 1   
    15    7   20 1   
    16    8    9 1   
    17    8   21 1   
    18    8   22 1   
    19    9   10 1   
    20    9   23 1   
    21    9   24 1   
    22   10   11 1   
    23   10   25 1   
    24   10   26 1   
    25   11   12 1   
    26   11   13 1   
@<TRIPOS>SUBSTRUCTURE
     1 5PV         1 TEMP              0 ****  ****    0 ROOT
