@<TRIPOS>MOLECULE
5PV
   26    26     1     0     0
SMALL
bcc


@<TRIPOS>ATOM
      1 C1          0.1970   -0.0530   -0.1070 ca        1 5PV     -0.055300
      2 C2          1.5850    0.0400    0.0470 ca        1 5PV     -0.131500
      3 C3          2.1500    0.1180    1.3190 ca        1 5PV     -0.134000
      4 C4          1.3350    0.1050    2.4500 ca        1 5PV     -0.149000
      5 C5         -0.0490    0.0110    2.3050 ca        1 5PV     -0.134000
      6 C6         -0.6160   -0.0670    1.0350 ca        1 5PV     -0.131500
      7 C7         -0.4150   -0.1260   -1.4620 c3        1 5PV     -0.045100
      8 C8         -1.0170   -1.4890   -1.7510 c3        1 5PV     -0.074400
      9 C9         -1.6950   -1.5090   -3.1040 c3        1 5PV     -0.067400
     10 C10        -2.2910   -2.8600   -3.4160 c3        1 5PV     -0.194400
     11 C11        -3.1590   -2.8070   -4.6860 c         1 5PV      0.907600
     12 O1         -3.0270   -3.7420   -5.5270 o         1 5PV     -0.852800
     13 O2         -3.9720   -1.8470   -4.8220 o         1 5PV     -0.852800
     14 H2          2.2320    0.0470   -0.8420 ha        1 5PV      0.134000
     15 H3          3.2410    0.1890    1.4290 ha        1 5PV      0.120000
     16 H4          1.7810    0.1660    3.4530 ha        1 5PV      0.118000
     17 H5         -0.6950   -0.0030    3.1940 ha        1 5PV      0.120000
     18 H6         -1.7070   -0.1460    0.9180 ha        1 5PV      0.134000
     19 H71        -1.2210    0.6540   -1.5440 hc        1 5PV      0.047700
     20 H72         0.3530    0.1110   -2.2460 hc        1 5PV      0.047700
     21 H81        -0.2120   -2.2700   -1.7180 hc        1 5PV      0.031200
     22 H82        -1.7610   -1.7460   -0.9510 hc        1 5PV      0.031200
     23 H91        -0.9530   -1.2360   -3.8990 hc        1 5PV      0.044700
     24 H92        -2.5130   -0.7400   -3.1390 hc        1 5PV      0.044700
     25 H101       -2.9450   -3.1940   -2.5700 hc        1 5PV      0.019700
     26 H102       -1.4840   -3.6220   -3.5490 hc        1 5PV      0.019700
@<TRIPOS>BOND
     1    1    2 ar  
     2    1    6 ar  
     3    1    7 1   
     4    2    3 ar  
     5    2   14 1   
     6    3    4 ar  
     7    3   15 1   
     8    4    5 ar  
     9    4   16 1   
    10    5    6 ar  
    11    5   17 1   
    12    6   18 1   
    13    7    8 1   
    14    7   19 1   
    15    7   20 1   
    16    8    9 1   
    17    8   21 1   
    18    8   22 1   
    19    9   10 1   
    20    9   23 1   
    21    9   24 1   
    22   10   11 1   
    23   10   25 1   
    24   10   26 1   
    25   11   12 1   
    26   11   13 1   
@<TRIPOS>SUBSTRUCTURE
     1 5PV         1 TEMP              0 ****  ****    0 ROOT
