@<TRIPOS>MOLECULE
5PV
   26    26     1     0     0
SMALL
bcc


@<TRIPOS>ATOM
      1 C1         -0.1210   -0.0370    0.0760 ca        1 5PV     -0.055300
      2 C2          1.2680   -0.1930   -0.0260 ca        1 5PV     -0.131500
      3 C3          2.0700   -0.1350    1.1120 ca        1 5PV     -0.134000
      4 C4          1.4950    0.0800    2.3650 ca        1 5PV     -0.149000
      5 C5          0.1140    0.2340    2.4740 ca        1 5PV     -0.134000
      6 C6         -0.6910    0.1760    1.3370 ca        1 5PV     -0.131500
      7 C7         -0.9720   -0.0900   -1.1440 c3        1 5PV     -0.045100
      8 C8         -1.0440   -1.4850   -1.7370 c3        1 5PV     -0.074400
      9 C9         -1.8540   -1.4910   -3.0170 c3        1 5PV     -0.067400
     10 C10        -1.9480   -2.8720   -3.6170 c3        1 5PV     -0.194400
     11 C11        -2.5830   -2.8280   -5.0190 c         1 5PV      0.907600
     12 O1         -3.4620   -3.6950   -5.2940 o         1 5PV     -0.852800
     13 O2         -2.1860   -1.9450   -5.8340 o         1 5PV     -0.852800
     14 H2          1.7200   -0.3660   -1.0140 ha        1 5PV      0.134000
     15 H3          3.1580   -0.2600    1.0220 ha        1 5PV      0.120000
     16 H4          2.1280    0.1250    3.2620 ha        1 5PV      0.118000
     17 H5         -0.3440    0.3990    3.4600 ha        1 5PV      0.120000
     18 H6         -1.7810    0.2940    1.4290 ha        1 5PV      0.134000
     19 H71        -2.0100    0.2640   -0.9060 hc        1 5PV      0.047700
     20 H72        -0.5520    0.6140   -1.9140 hc        1 5PV      0.047700
     21 H81        -0.0060   -1.8560   -1.9450 hc        1 5PV      0.031200
     22 H82        -1.5050   -2.1860   -0.9940 hc        1 5PV      0.031200
     23 H91        -1.3880   -0.8020   -3.7730 hc        1 5PV      0.044700
     24 H92        -2.8850   -1.1030   -2.8090 hc        1 5PV      0.044700
     25 H101       -2.5500   -3.5440   -2.9580 hc        1 5PV      0.019700
     26 H102       -0.9250   -3.3150   -3.7200 hc        1 5PV      0.019700
@<TRIPOS>BOND
     1    1    2 ar  
     2    1    6 ar  
     3    1    7 1   
     4    2    3 ar  
     5    2   14 1   
     6    3    4 ar  
     7    3   15 1   
     8    4    5 ar  
     9    4   16 1   
    10    5    6 ar  
    11    5   17 1   
    12    6   18 1   
    13    7    8 1   
    14    7   19 1   
    15    7   20 1   
    16    8    9 1   
    17    8   21 1   
    18    8   22 1   
    19    9   10 1   
    20    9   23 1   
    21    9   24 1   
    22   10   11 1   
    23   10   25 1   
    24   10   26 1   
    25   11   12 1   
    26   11   13 1   
@<TRIPOS>SUBSTRUCTURE
     1 5PV         1 TEMP              0 ****  ****    0 ROOT
