@<TRIPOS>MOLECULE
5PY
   33    34     1     0     0
SMALL
bcc


@<TRIPOS>ATOM
      1 P          -3.6070    0.0680    4.5250 p5        1 5PY      1.441800
      2 OP2        -4.5460   -1.1170    3.8980 oh        1 5PY     -0.788400
      3 OP1        -4.0660    0.4130    5.8830 o         1 5PY     -0.851000
      4 O5'        -2.1670   -0.7180    4.6380 os        1 5PY     -0.582200
      5 C5'        -1.6170   -1.2520    3.4700 c3        1 5PY      0.195400
      6 C4'        -0.4890   -0.3660    2.9170 c3        1 5PY      0.089100
      7 O4'         0.6510   -1.1890    2.6450 os        1 5PY     -0.429600
      8 C1'         1.2140   -0.8910    1.3440 c3        1 5PY      0.316500
      9 N1          1.3850   -2.1040    0.5570 n         1 5PY     -0.327400
     10 C2          2.6710   -2.7620    0.5790 c         1 5PY      0.733500
     11 O2          3.6310   -2.2280    1.2020 o         1 5PY     -0.701100
     12 N3          2.8420   -3.9640   -0.1240 ne        1 5PY     -0.770100
     13 C4          1.7960   -4.4280   -0.8120 cf        1 5PY      0.524500
     14 C5          0.5460   -3.7940   -0.8950 cf        1 5PY     -0.542900
     15 C5M        -0.5520   -4.3520   -1.6970 c3        1 5PY      0.033100
     16 C6          0.3430   -2.5910   -0.1670 c1        1 5PY     -0.084900
     17 C2'         0.3260    0.1840    0.6820 c3        1 5PY     -0.101400
     18 C3'        -0.8640    0.3800    1.6200 c3        1 5PY      0.142100
     19 O3'        -1.0410    1.7660    1.8450 oh        1 5PY     -0.648800
     20 OP3        -3.4830    1.0000    3.3760 o         1 5PY     -0.851000
     21 H71        -0.2890   -4.3750   -2.7870 hc        1 5PY     -0.003967
     22 H72        -1.4770   -3.7360   -1.5740 hc        1 5PY     -0.003967
     23 H73        -0.7860   -5.4040   -1.3900 hc        1 5PY     -0.003967
     24 H4          1.9790   -5.3820   -1.3430 h4        1 5PY     -0.039200
     25 H6         -4.6580   -1.0200    2.9590 ho        1 5PY      0.425000
     26 H1'         2.2470   -0.4820    1.5690 h2        1 5PY      0.073700
     27 H2'        -0.0280   -0.1360   -0.3290 hc        1 5PY      0.059700
     28 H2''        0.9040    1.1350    0.5800 hc        1 5PY      0.059700
     29 H3'        -1.8020   -0.0500    1.1730 h1        1 5PY      0.055700
     30 HO3'       -1.8760    1.8580    2.3350 ho        1 5PY      0.457000
     31 H4'        -0.1700    0.3710    3.7060 h1        1 5PY      0.058700
     32 H5'        -1.1830   -2.2580    3.7330 h1        1 5PY      0.031700
     33 H5''       -2.4240   -1.3880    2.6990 h1        1 5PY      0.031700
@<TRIPOS>BOND
     1    1    2 1   
     2    1    3 1   
     3    1    4 1   
     4    1   20 1   
     5    2   25 1   
     6    4    5 1   
     7    5    6 1   
     8    5   32 1   
     9    5   33 1   
    10    6    7 1   
    11    6   18 1   
    12    6   31 1   
    13    7    8 1   
    14    8    9 1   
    15    8   17 1   
    16    8   26 1   
    17    9   10 1   
    18    9   16 2   
    19   10   11 2   
    20   10   12 1   
    21   12   13 2   
    22   13   14 1   
    23   13   24 1   
    24   14   15 1   
    25   14   16 2   
    26   15   21 1   
    27   15   22 1   
    28   15   23 1   
    29   17   18 1   
    30   17   27 1   
    31   17   28 1   
    32   18   19 1   
    33   18   29 1   
    34   19   30 1   
@<TRIPOS>SUBSTRUCTURE
     1 5PY         1 TEMP              0 ****  ****    0 ROOT
