@<TRIPOS>MOLECULE
5PY
   33    32     1     0     0
SMALL
bcc


@<TRIPOS>ATOM
      1 P          -0.1060    3.8890   -0.1250 p3        1 5PY      2.518000
      2 OP2        -0.1000    3.7390    1.3790 o         1 5PY     -1.239667
      3 OP1        -0.9270    5.0990   -0.5080 o         1 5PY     -1.239667
      4 O5'        -0.7360    2.5950   -0.7810 o         1 5PY     -0.737000
      5 C5'        -0.0690    1.3650   -0.6150 c3        1 5PY      0.075000
      6 C4'        -0.0540    0.6460   -1.8810 c3        1 5PY     -0.043000
      7 O4'         0.7510   -0.7980   -1.7100 os        1 5PY     -0.283000
      8 C1'        -0.0980   -1.6220   -1.1990 c3        1 5PY      0.141000
      9 N1         -0.0060   -1.6100    0.2090 n         1 5PY     -0.245000
     10 C2         -1.1650   -1.9800    1.0200 c2        1 5PY      0.312000
     11 O2         -2.1460   -2.4580    0.4910 o         1 5PY     -0.430000
     12 N3         -1.1100   -1.8490    2.4740 n2        1 5PY     -0.292000
     13 C4          0.1170   -1.5350    3.1130 c1        1 5PY      0.024000
     14 C5          1.3090   -1.2380    2.3030 c1        1 5PY     -0.280000
     15 C5M         2.6400   -1.0050    2.9760 c3        1 5PY     -0.175000
     16 C6          1.2240   -1.2820    0.8360 c2        1 5PY      0.100000
     17 C2'        -1.5540   -1.0800   -1.6730 c3        1 5PY     -0.194000
     18 C3'        -1.3010    0.3400   -2.2510 c3        1 5PY     -0.001000
     19 O3'        -1.4070    0.3190   -3.7090 oh        1 5PY     -0.379000
     20 OP3         1.3100    4.0650   -0.6190 o         1 5PY     -1.239667
     21 H71         3.0590   -1.8680    3.1780 hc        1 5PY      0.091667
     22 H72         3.2220   -0.4910    2.3780 hc        1 5PY      0.091667
     23 H73         2.5020   -0.5050    3.8080 hc        1 5PY      0.091667
     24 H4          0.1530   -1.4480    4.0860 ha        1 5PY      0.124000
     25 H6          2.0130   -1.0860    0.2940 h4        1 5PY      0.310000
     26 H1'         0.0560   -2.5260   -1.5430 h2        1 5PY      0.128000
     27 H2'        -2.1620   -1.0300   -0.9100 hc        1 5PY      0.089000
     28 H2''       -1.9240   -1.6650   -2.3640 hc        1 5PY      0.089000
     29 H3'        -1.9350    0.9790   -1.8730 h1        1 5PY      0.182000
     30 HO3'       -2.2470    0.4920   -3.9480 ho        1 5PY      0.269000
     31 H4'         0.3760    1.1910   -2.5720 h1        1 5PY      0.058000
     32 H5'         0.8520    1.5300   -0.3220 h1        1 5PY      0.042500
     33 H5''       -0.5360    0.8280    0.0590 h1        1 5PY      0.042500
@<TRIPOS>BOND
     1    1    2 1   
     2    1    3 1   
     3    1   20 1   
     4    4    5 1   
     5    5    6 1   
     6    5   32 1   
     7    5   33 1   
     8    6    7 1   
     9    6   18 1   
    10    6   31 1   
    11    7    8 1   
    12    8    9 1   
    13    8   17 1   
    14    8   26 1   
    15    9   10 1   
    16    9   16 1   
    17   10   11 1   
    18   10   12 1   
    19   12   13 1   
    20   13   24 1   
    21   14   15 1   
    22   14   16 1   
    23   15   21 1   
    24   15   22 1   
    25   15   23 1   
    26   16   25 1   
    27   17   18 1   
    28   17   27 1   
    29   17   28 1   
    30   18   19 1   
    31   18   29 1   
    32   19   30 1   
@<TRIPOS>SUBSTRUCTURE
     1 5PY         1 TEMP              0 ****  ****    0 ROOT
