@<TRIPOS>MOLECULE
5QC
   70    73     1     0     0
SMALL
bcc


@<TRIPOS>ATOM
      1 F           0.4260    0.4540    1.0930 f         1 5QC     -0.161333
      2 F1          2.1200    1.5650    0.3150 f         1 5QC     -0.161333
      3 F2          0.3010    1.4010   -0.8510 f         1 5QC     -0.161333
      4 O3          5.1370   -7.6020    0.6360 os        1 5QC     -0.110000
      5 O1          3.1280   -3.9290   -3.6760 o         1 5QC     -0.366000
      6 N           6.3870   -7.6070    1.0690 n2        1 5QC     -0.047000
      7 N2          2.9090   -2.4120   -0.9020 na        1 5QC     -0.055000
      8 N3          2.5000   -1.4390   -0.0620 n2        1 5QC      0.061000
      9 N4          1.8620   -2.1740   -4.6080 nx        1 5QC     -0.009000
     10 C           4.7450   -6.2820    0.2080 c2        1 5QC      0.046000
     11 C1          5.8780   -5.4020    0.5050 c2        1 5QC     -0.405000
     12 C2          6.9040   -6.3680    1.0460 c2        1 5QC      0.044000
     13 C3          3.5450   -6.1110   -0.3680 c2        1 5QC     -0.129000
     14 C4          3.0240   -4.8730   -0.8820 c2        1 5QC     -0.151000
     15 C5          3.3010   -3.6580   -0.3600 c2        1 5QC     -0.029000
     16 C6          5.9890   -4.0860    0.3910 c1        1 5QC      0.304000
     17 C7          1.6770   -0.5940   -0.7000 c2        1 5QC     -0.223000
     18 C8          1.4070   -1.0530   -2.0740 c2        1 5QC      0.069000
     19 C9          2.2410   -2.2510   -2.1800 c2        1 5QC     -0.345000
     20 C10         1.1470    0.6690   -0.0550 c3        1 5QC      0.513000
     21 C13         2.4920   -2.9050   -3.3790 c2        1 5QC      0.305000
     22 C14         1.7010   -3.0410   -5.7760 c2        1 5QC     -0.193000
     23 C15         1.2820   -4.3520   -5.6630 c2        1 5QC      0.080000
     24 C16         1.1510   -5.1600   -6.8390 c2        1 5QC     -0.182000
     25 C17         1.4540   -4.6710   -8.0710 c2        1 5QC     -0.016000
     26 C18         1.9270   -3.2720   -8.2260 c3        1 5QC     -0.198000
     27 C19         2.0420   -2.4640   -7.0270 c1        1 5QC     -0.108000
     28 C24         1.3310   -5.5320   -9.2940 c3        1 5QC     -0.070000
     29 C25         2.6380   -5.6550  -10.0230 c2        1 5QC     -0.109000
     30 C11         3.7910   -6.1740   -9.2030 c3        1 5QC     -0.044000
     31 N7          3.5580   -7.4960   -8.6310 n3        1 5QC     -0.240000
     32 C20         3.3450   -8.5390   -9.6230 c3        1 5QC     -0.080000
     33 C23         4.5720   -7.8200   -7.6380 c3        1 5QC     -0.160000
     34 C12         0.2440   -4.9840  -10.1720 c2        1 5QC      0.172000
     35 C21        -0.8700   -5.6330  -10.4370 c1        1 5QC     -0.570000
     36 C22         2.7980   -5.3500  -11.3130 c2        1 5QC     -0.203000
     37 C26        -1.9570   -6.2530  -10.7070 c1        1 5QC      0.233000
     38 C27         4.3590   -9.1820   -7.0160 c1        1 5QC      0.006000
     39 C28         4.4690   -8.8210  -10.6060 c3        1 5QC     -0.241000
     40 O2          4.6270   -9.1440   -5.7240 oh        1 5QC     -0.229000
     41 C29         0.5700   -1.4690   -4.3090 c3        1 5QC     -0.037000
     42 C31         0.6390   -0.6220   -3.0890 c2        1 5QC     -0.315000
     43 HN11        8.5880   -5.2940    0.9000 hn        1 5QC      0.201000
     44 HN12        8.7440   -6.6670    1.8300 hn        1 5QC      0.201000
     45 H4          2.8980   -6.9970   -0.5040 ha        1 5QC      0.158000
     46 H6          3.8700   -3.5370    0.5880 h4        1 5QC      0.164000
     47 H15         1.0590   -4.8200   -4.6860 ha        1 5QC      0.170000
     48 H16         0.8160   -6.2020   -6.7030 ha        1 5QC      0.166000
     49 H18         2.9510   -3.2750   -8.7160 hc        1 5QC      0.181000
     50 H19         1.2550   -2.7070   -8.9420 hc        1 5QC      0.181000
     51 H111        3.9530   -5.4530   -8.3480 h1        1 5QC      0.081500
     52 H112        4.7270   -6.1540   -9.8390 h1        1 5QC      0.081500
     53 H201        2.4240   -8.2440  -10.2040 h1        1 5QC      0.104000
     54 H202        3.1130   -9.4870   -9.0570 h1        1 5QC      0.104000
     55 H231        5.6160   -7.8650   -8.0810 h1        1 5QC      0.095000
     56 H232        4.5720   -6.9970   -6.8650 h1        1 5QC      0.095000
     57 H12         1.0410   -6.5820   -8.9730 hc        1 5QC      0.158000
     58 H21         0.4300   -3.9730  -10.5880 ha        1 5QC      0.125000
     59 H22         1.9960   -4.9470  -11.9460 ha        1 5QC      0.125500
     60 H26         3.7580   -5.4980  -11.8290 ha        1 5QC      0.125500
     61 H27         4.6780   -7.9330  -11.2500 hc        1 5QC      0.077000
     62 H281        5.4090   -9.1030  -10.0730 hc        1 5QC      0.077000
     63 H282        4.1700   -9.6710  -11.2650 hc        1 5QC      0.077000
     64 HO2         4.5240  -10.0480   -5.3730 ho        1 5QC      0.259000
     65 H291        2.5520   -1.4540   -4.8700 hn        1 5QC      0.251000
     66 H292       -0.2180   -2.2660   -4.1740 hx        1 5QC      0.115000
     67 H311        0.3070   -0.8490   -5.2130 hx        1 5QC      0.115000
     68 H312        0.0280    0.2860   -3.0640 ha        1 5QC      0.168000
     69 H3          2.3820   -4.9810   -1.7760 ha        1 5QC      0.154000
     70 N1          8.1390   -5.9350    1.5190 nv        1 5QC     -0.298000
@<TRIPOS>BOND
     1    1   20 1   
     2    2   20 1   
     3    3   20 1   
     4    4    6 1   
     5    4   10 1   
     6    5   21 1   
     7    6   12 1   
     8    7    8 1   
     9    7   15 1   
    10    7   19 1   
    11    8   17 1   
    12    9   21 1   
    13    9   22 1   
    14    9   41 1   
    15    9   65 1   
    16   10   11 1   
    17   10   13 1   
    18   11   12 1   
    19   11   16 1   
    20   12   70 1   
    21   13   14 1   
    22   13   45 1   
    23   14   15 1   
    24   14   69 1   
    25   15   46 1   
    26   17   18 1   
    27   17   20 1   
    28   18   19 1   
    29   18   42 1   
    30   19   21 1   
    31   22   23 1   
    32   22   27 1   
    33   23   24 1   
    34   23   47 1   
    35   24   25 1   
    36   24   48 1   
    37   25   26 1   
    38   25   28 1   
    39   26   27 1   
    40   26   49 1   
    41   26   50 1   
    42   28   29 1   
    43   28   34 1   
    44   28   57 1   
    45   29   30 1   
    46   29   36 1   
    47   30   31 1   
    48   30   51 1   
    49   30   52 1   
    50   31   32 1   
    51   31   33 1   
    52   32   39 1   
    53   32   53 1   
    54   32   54 1   
    55   33   38 1   
    56   33   55 1   
    57   33   56 1   
    58   34   35 1   
    59   34   58 1   
    60   35   37 1   
    61   36   59 1   
    62   36   60 1   
    63   38   40 1   
    64   39   61 1   
    65   39   62 1   
    66   39   63 1   
    67   40   64 1   
    68   41   42 1   
    69   41   66 1   
    70   41   67 1   
    71   42   68 1   
    72   43   70 1   
    73   44   70 1   
@<TRIPOS>SUBSTRUCTURE
     1 5QC         1 TEMP              0 ****  ****    0 ROOT
