@<TRIPOS>MOLECULE
5QC
   71    73     1     0     0
SMALL
bcc


@<TRIPOS>ATOM
      1 F           1.2950    0.3130    1.3800 f         1 5QC     -0.132333
      2 F1          3.4590    0.5360    1.1780 f         1 5QC     -0.132333
      3 F2          2.1380    1.2120   -0.4160 f         1 5QC     -0.132333
      4 O3          4.5400   -8.1590    1.7240 os        1 5QC      0.238000
      5 O1          1.8560   -4.8360   -3.0400 o         1 5QC     -0.316000
      6 N           4.5460   -7.9910    2.9380 n2        1 5QC      0.074000
      7 N2          2.6480   -3.3940   -0.3120 na        1 5QC      0.055000
      8 N3          2.5950   -2.2930    0.5440 n2        1 5QC      0.011000
      9 N4          2.4120   -2.7910   -4.0900 n4        1 5QC      0.005000
     10 C           4.0270   -7.0590    1.0010 c2        1 5QC     -0.267000
     11 C1          3.6670   -6.0410    1.9660 c2        1 5QC     -0.018000
     12 C2          3.9970   -6.6450    3.2930 c2        1 5QC     -0.029000
     13 C3          3.8730   -6.9890   -0.3650 c1        1 5QC     -0.004000
     14 C4          3.2740   -5.7390   -0.8420 c3        1 5QC     -0.197000
     15 C5          3.0060   -4.6140    0.1340 c2        1 5QC      0.126000
     16 C6          3.1610   -4.8530    1.5730 c2        1 5QC     -0.109000
     17 C7          2.4080   -1.1890   -0.1640 c2        1 5QC     -0.049000
     18 C8          2.2790   -1.4880   -1.6080 c2        1 5QC     -0.019000
     19 C9          2.4400   -2.9500   -1.6560 c2        1 5QC     -0.389000
     20 C10         2.3260    0.2010    0.4870 c3        1 5QC      0.502000
     21 C13         2.1910   -3.6620   -2.8440 c2        1 5QC      0.332000
     22 C14         2.0370   -3.4370   -5.3540 c2        1 5QC     -0.229000
     23 C15         0.8610   -4.1460   -5.5240 c2        1 5QC      0.095000
     24 C16         0.5690   -4.7090   -6.8010 c2        1 5QC     -0.220000
     25 C17         1.4310   -4.5800   -7.8540 c2        1 5QC      0.050000
     26 C18         2.7230   -3.8780   -7.6780 c3        1 5QC     -0.211000
     27 C19         2.9970   -3.2950   -6.3850 c1        1 5QC     -0.112000
     28 C24         1.0780   -5.1390   -9.1990 c3        1 5QC     -0.076000
     29 C25         2.0340   -6.2210   -9.6140 c2        1 5QC     -0.142000
     30 C11         3.2820   -5.7940  -10.3380 c3        1 5QC     -0.043000
     31 N7          4.4980   -6.2310   -9.6680 n3        1 5QC     -0.257000
     32 C20         4.5620   -9.7870   -9.6390 c2        1 5QC     -0.225000
     33 C23         5.6840   -5.8290  -10.3140 c2        1 5QC     -0.217000
     34 C12         0.9420   -4.0880  -10.2560 c2        1 5QC      0.185000
     35 C21         0.8660   -2.7940  -10.0180 c1        1 5QC     -0.599000
     36 C22         1.7580   -7.5070   -9.3800 c2        1 5QC     -0.171000
     37 C26         0.7640   -1.5310   -9.8420 c1        1 5QC      0.236000
     38 C27         6.7620   -6.6220  -10.5080 c2        1 5QC     -0.047000
     39 C28         3.6080  -10.5580  -10.1450 c2        1 5QC     -0.225000
     40 O2          7.9540   -6.1790  -11.0110 oh        1 5QC     -0.242000
     41 C29         1.7720   -1.4360   -3.9960 c3        1 5QC     -0.076000
     42 C31         1.9770   -0.7540   -2.6860 c2        1 5QC     -0.157000
     43 HN11        5.2790   -2.7770   -5.2200 ha        1 5QC      0.002500
     44 HN12        4.1070   -6.6140    5.2590 hn        1 5QC      0.207000
     45 H6          2.8770   -4.0840    2.3110 ha        1 5QC      0.197000
     46 H15         0.1350   -4.3040   -4.7060 ha        1 5QC      0.164000
     47 H16        -0.3880   -5.2480   -6.9070 ha        1 5QC      0.161000
     48 H18         3.5850   -4.5920   -7.9040 hc        1 5QC      0.218500
     49 H19         2.8250   -3.0570   -8.4590 hc        1 5QC      0.218500
     50 H111        3.3250   -4.6680  -10.3990 h1        1 5QC      0.087000
     51 H112        3.2130   -6.1810  -11.3990 h1        1 5QC      0.087000
     52 H201        5.4040   -9.4170  -10.2410 ha        1 5QC      0.113750
     53 H202        4.5900   -9.4910   -8.5820 ha        1 5QC      0.113750
     54 H231        4.4790   -7.2230   -9.4950 hn        1 5QC      0.172000
     55 H232        5.7050   -4.7600  -10.5950 h4        1 5QC      0.143000
     56 H12         0.0400   -5.6040   -9.1270 hc        1 5QC      0.142000
     57 H21         0.8740   -4.4900  -11.2890 ha        1 5QC      0.151000
     58 H22         0.8370   -7.8360   -8.8790 ha        1 5QC      0.134000
     59 H26         2.4390   -8.3220   -9.6780 ha        1 5QC      0.134000
     60 H27         3.5920  -10.8700  -11.1980 ha        1 5QC      0.113750
     61 H281        6.8380   -7.6940  -10.2640 h4        1 5QC      0.170000
     62 H282        2.7770  -10.9470   -9.5400 ha        1 5QC      0.113750
     63 HO2         7.8780   -5.2400  -11.2390 ho        1 5QC      0.214000
     64 H291        3.4410   -2.6440   -4.1480 hn        1 5QC      0.275000
     65 H292        2.1990   -0.8110   -4.8360 hx        1 5QC      0.151500
     66 H311        0.6620   -1.5570   -4.1720 hx        1 5QC      0.151500
     67 H312        1.8170    0.3350   -2.6690 ha        1 5QC      0.192000
     68 H3          3.9290   -5.3580   -1.6820 hc        1 5QC      0.191500
     69 N1          3.8370   -6.1040    4.4400 n2        1 5QC     -0.079000
     70 H13         5.5260   -2.6470   -4.6010 ha        1 5QC      0.002500
     71 H4          2.2940   -6.0520   -1.3330 hc        1 5QC      0.191500
@<TRIPOS>BOND
     1    1   20 1   
     2    2   20 1   
     3    3   20 1   
     4    4    6 1   
     5    4   10 1   
     6    5   21 1   
     7    6   12 1   
     8    7    8 1   
     9    7   15 1   
    10    7   19 1   
    11    8   17 1   
    12    9   21 1   
    13    9   22 1   
    14    9   41 1   
    15    9   64 1   
    16   10   11 1   
    17   10   13 1   
    18   11   12 1   
    19   11   16 1   
    20   12   69 1   
    21   13   14 1   
    22   14   15 1   
    23   14   68 1   
    24   14   71 1   
    25   15   16 1   
    26   16   45 1   
    27   17   18 1   
    28   17   20 1   
    29   18   19 1   
    30   18   42 1   
    31   19   21 1   
    32   22   23 1   
    33   22   27 1   
    34   23   24 1   
    35   23   46 1   
    36   24   25 1   
    37   24   47 1   
    38   25   26 1   
    39   25   28 1   
    40   26   27 1   
    41   26   48 1   
    42   26   49 1   
    43   28   29 1   
    44   28   34 1   
    45   28   56 1   
    46   29   30 1   
    47   29   36 1   
    48   30   31 1   
    49   30   50 1   
    50   30   51 1   
    51   31   33 1   
    52   31   54 1   
    53   32   39 1   
    54   32   52 1   
    55   32   53 1   
    56   33   38 1   
    57   33   55 1   
    58   34   35 1   
    59   34   57 1   
    60   35   37 1   
    61   36   58 1   
    62   36   59 1   
    63   38   40 1   
    64   38   61 1   
    65   39   60 1   
    66   39   62 1   
    67   40   63 1   
    68   41   42 1   
    69   41   65 1   
    70   41   66 1   
    71   42   67 1   
    72   43   70 1   
    73   44   69 1   
@<TRIPOS>SUBSTRUCTURE
     1 5QC         1 TEMP              0 ****  ****    0 ROOT
