@<TRIPOS>MOLECULE
5QC
   70    76     1     0     0
SMALL
bcc


@<TRIPOS>ATOM
      1 F           6.2010    3.7090    1.4330 f         1 5QC     -0.229300
      2 F1          6.4410    3.4410   -0.7090 f         1 5QC     -0.229300
      3 F2          4.9800    4.8510    0.0490 f         1 5QC     -0.229300
      4 O3          3.8910   -5.0960    0.4030 os        1 5QC     -0.003600
      5 O1          0.6430   -0.1310    0.5720 o         1 5QC     -0.619500
      6 N           4.7980   -5.3240   -0.5470 nc        1 5QC     -0.459200
      7 N2          3.6470    0.4700    0.3870 na        1 5QC      0.232300
      8 N3          4.7790    1.1750    0.3850 nc        1 5QC     -0.437800
      9 N4          0.2520    2.0620   -0.0750 n         1 5QC     -0.376000
     10 C           3.6900   -3.7150    0.5450 ca        1 5QC      0.083100
     11 C1          4.5230   -3.0370   -0.3920 ca        1 5QC     -0.244900
     12 C2          5.2210   -4.1480   -1.0850 cd        1 5QC      0.560800
     13 C3          2.8460   -3.0440    1.4210 ca        1 5QC     -0.120000
     14 C4          2.8450   -1.6540    1.3490 ca        1 5QC     -0.049000
     15 C5          3.6600   -0.9650    0.4160 ca        1 5QC     -0.041200
     16 C6          4.5140   -1.6550   -0.4700 ca        1 5QC     -0.028000
     17 C7          4.4410    2.5010    0.2870 cd        1 5QC      0.211600
     18 C8          3.0150    2.6360    0.2130 cd        1 5QC     -0.155600
     19 C9          2.5270    1.3110    0.2800 cc        1 5QC     -0.167900
     20 C10         5.4880    3.5940    0.2660 c3        1 5QC      0.635600
     21 C13         1.0830    0.9890    0.2600 c         1 5QC      0.751100
     22 C14        -1.1570    1.8930   -0.1610 ca        1 5QC      0.052600
     23 C15        -1.8600    1.1590    0.8170 ca        1 5QC     -0.147500
     24 C16        -3.2430    1.0300    0.7400 ca        1 5QC     -0.094000
     25 C17        -3.9620    1.6260   -0.3010 cp        1 5QC     -0.051000
     26 C18        -3.2670    2.3570   -1.2740 ca        1 5QC     -0.094000
     27 C19        -1.8850    2.4850   -1.2170 ca        1 5QC     -0.147500
     28 C24        -5.4230    1.5270   -0.3710 cp        1 5QC     -0.022000
     29 C25        -6.0820    0.3190   -0.6540 ca        1 5QC     -0.061300
     30 C11        -5.3190   -0.9460   -0.9300 c3        1 5QC      0.202100
     31 N7         -4.9560   -1.6960    0.2670 n3        1 5QC     -0.713600
     32 C20        -6.0900   -2.2010    1.0450 c3        1 5QC      0.156800
     33 C23        -4.0700   -2.8250   -0.0250 c3        1 5QC      0.156800
     34 C12        -6.1790    2.6920   -0.1710 ca        1 5QC     -0.122000
     35 C21        -7.5680    2.6600   -0.2440 ca        1 5QC     -0.130000
     36 C22        -7.4790    0.3020   -0.7390 ca        1 5QC     -0.130000
     37 C26        -8.2210    1.4620   -0.5330 ca        1 5QC     -0.128000
     38 C27        -4.7690   -4.1490    0.3730 c3        1 5QC      0.118100
     39 C28        -6.0770   -3.7380    1.0580 c3        1 5QC     -0.136400
     40 O2         -4.9940   -4.8730   -0.8250 oh        1 5QC     -0.597800
     41 C29         0.7930    3.3150   -0.5700 c3        1 5QC      0.097000
     42 C31         2.1020    3.7740    0.0880 c3        1 5QC     -0.029100
     43 HN11        6.6120   -4.7700   -2.4220 hn        1 5QC      0.412300
     44 HN12        6.5950   -3.1230   -2.1200 hn        1 5QC      0.412300
     45 H4          2.1730   -1.0860    2.0160 ha        1 5QC      0.172000
     46 H6          5.1520   -1.1250   -1.1940 ha        1 5QC      0.162000
     47 H15        -1.3160    0.6640    1.6370 ha        1 5QC      0.144000
     48 H16        -3.7760    0.4430    1.5060 ha        1 5QC      0.148500
     49 H18        -3.8220    2.8290   -2.0990 ha        1 5QC      0.148500
     50 H19        -1.3690    3.0500   -2.0080 ha        1 5QC      0.144000
     51 H111       -5.9220   -1.5740   -1.6530 h1        1 5QC      0.047700
     52 H112       -4.3520   -0.6700   -1.4460 h1        1 5QC      0.047700
     53 H201       -5.9620   -1.8090    2.0910 h1        1 5QC      0.050200
     54 H202       -7.0710   -1.8200    0.6540 h1        1 5QC      0.050200
     55 H231       -3.7620   -2.8710   -1.1050 h1        1 5QC      0.066700
     56 H232       -3.1490   -2.6910    0.6040 h1        1 5QC      0.066700
     57 H12        -5.6610    3.6390    0.0490 ha        1 5QC      0.135000
     58 H21        -8.1490    3.5800   -0.0790 ha        1 5QC      0.132000
     59 H22        -7.9980   -0.6380   -0.9830 ha        1 5QC      0.132000
     60 H26        -9.3180    1.4330   -0.5990 ha        1 5QC      0.132000
     61 H27        -4.1180   -4.7530    1.0590 h1        1 5QC      0.044700
     62 H281       -6.1180   -4.1210    2.1050 hc        1 5QC      0.053200
     63 H282       -6.9570   -4.1450    0.5010 hc        1 5QC      0.053200
     64 HO2        -5.4410   -5.6910   -0.5780 ho        1 5QC      0.400000
     65 H291        0.0190    4.1190   -0.4050 h1        1 5QC      0.058200
     66 H292        0.9690    3.2210   -1.6820 h1        1 5QC      0.058200
     67 H311        1.8960    4.2070    1.1050 hc        1 5QC      0.080700
     68 H312        2.5530    4.5870   -0.5410 hc        1 5QC      0.080700
     69 H3          2.2060   -3.5820    2.1330 ha        1 5QC      0.168000
     70 N1          6.0750   -3.9720   -2.1600 nh        1 5QC     -0.859800
@<TRIPOS>BOND
     1    1   20 1   
     2    2   20 1   
     3    3   20 1   
     4    4    6 1   
     5    4   10 1   
     6    5   21 2   
     7    6   12 2   
     8    7    8 1   
     9    7   15 1   
    10    7   19 1   
    11    8   17 2   
    12    9   21 1   
    13    9   22 1   
    14    9   41 1   
    15   10   11 ar  
    16   10   13 ar  
    17   11   12 1   
    18   11   16 ar  
    19   12   70 1   
    20   13   14 ar  
    21   13   69 1   
    22   14   15 ar  
    23   14   45 1   
    24   15   16 ar  
    25   16   46 1   
    26   17   18 1   
    27   17   20 1   
    28   18   19 2   
    29   18   42 1   
    30   19   21 1   
    31   22   23 ar  
    32   22   27 ar  
    33   23   24 ar  
    34   23   47 1   
    35   24   25 ar  
    36   24   48 1   
    37   25   26 ar  
    38   25   28 1   
    39   26   27 ar  
    40   26   49 1   
    41   27   50 1   
    42   28   29 ar  
    43   28   34 ar  
    44   29   30 1   
    45   29   36 ar  
    46   30   31 1   
    47   30   51 1   
    48   30   52 1   
    49   31   32 1   
    50   31   33 1   
    51   32   39 1   
    52   32   53 1   
    53   32   54 1   
    54   33   38 1   
    55   33   55 1   
    56   33   56 1   
    57   34   35 ar  
    58   34   57 1   
    59   35   37 ar  
    60   35   58 1   
    61   36   37 ar  
    62   36   59 1   
    63   37   60 1   
    64   38   39 1   
    65   38   40 1   
    66   38   61 1   
    67   39   62 1   
    68   39   63 1   
    69   40   64 1   
    70   41   42 1   
    71   41   65 1   
    72   41   66 1   
    73   42   67 1   
    74   42   68 1   
    75   43   70 1   
    76   44   70 1   
@<TRIPOS>SUBSTRUCTURE
     1 5QC         1 TEMP              0 ****  ****    0 ROOT
