@<TRIPOS>MOLECULE
5QC
   70    63     1     0     0
SMALL
bcc


@<TRIPOS>ATOM
      1 F           5.2920    3.5480    5.5200 f         1 5QC     -0.157333
      2 F1          5.2740    1.3350    5.7680 f         1 5QC     -0.157333
      3 F2          6.1560    2.2530    3.9950 f         1 5QC     -0.157333
      4 O3         -3.0180    5.4650    3.7990 os        1 5QC     -0.056000
      5 O1          0.3690    0.8420    1.3750 o         1 5QC     -0.341000
      6 N          -3.4170    5.0510    5.0510 n2        1 5QC     -0.073000
      7 N1         -2.8830    4.1010    6.8880 n3        1 5QC     -0.298000
      8 N2          1.7120    2.6840    3.5290 n3        1 5QC     -0.006000
      9 N3          2.7880    3.1500    4.3140 n2        1 5QC     -0.004000
     10 N4          2.2040   -0.3990    1.3960 n3        1 5QC     -0.280000
     11 C          -1.7960    4.8700    3.5220 c1        1 5QC      0.038000
     12 C1         -1.4460    4.0900    4.6070 c1        1 5QC     -0.082333
     13 C2         -2.4440    4.2000    5.5510 c1        1 5QC      0.035000
     14 C3         -1.0030    4.8590    2.3720 c1        1 5QC     -0.118000
     15 C4          0.1380    4.0630    2.3220 c1        1 5QC     -0.049000
     16 C5          0.4840    3.2850    3.4090 c1        1 5QC      0.003000
     17 C6         -0.3080    3.2960    4.5550 c1        1 5QC     -0.085333
     18 C7          3.8470    2.2860    4.1460 c1        1 5QC     -0.211000
     19 C8          3.4600    1.3150    3.2930 c1        1 5QC     -0.083000
     20 C9          2.1040    1.5780    2.9080 c1        1 5QC     -0.124000
     21 C10         5.1880    2.3590    4.8650 c2        1 5QC      0.516000
     22 C13         1.4280    0.5640    1.9060 c1        1 5QC      0.388000
     23 C14         1.8170   -1.0710    0.2140 c2        1 5QC      0.061000
     24 C15         0.9820   -2.1750    0.2880 c2        1 5QC     -0.160000
     25 C16         0.6220   -2.8620   -0.8750 c1        1 5QC     -0.107000
     26 C17         1.0970   -2.4430   -2.1020 c1        1 5QC     -0.082333
     27 C18         1.9320   -1.3390   -2.1810 c1        1 5QC     -0.085333
     28 C19         2.2940   -0.6480   -1.0070 c1        1 5QC     -0.122000
     29 C24         0.7170   -3.1370   -3.2850 c1        1 5QC     -0.082333
     30 C25        -0.2950   -2.6460   -4.0680 c1        1 5QC     -0.059000
     31 C11        -1.2040   -1.5530   -3.5340 c3        1 5QC     -0.047000
     32 N7         -2.4000   -1.4670   -4.3560 n3        1 5QC     -0.240000
     33 C20        -3.0380   -2.6200   -4.3260 c3        1 5QC     -0.079000
     34 C23        -3.4040   -0.3800   -3.7190 c3        1 5QC     -0.080000
     35 C12         1.4890   -4.2130   -3.7390 c1        1 5QC     -0.085333
     36 C21         1.2320   -4.7700   -4.9600 c1        1 5QC     -0.131500
     37 C22        -0.5510   -3.2120   -5.2970 c1        1 5QC     -0.110000
     38 C26         0.2130   -4.2740   -5.7440 c1        1 5QC     -0.131500
     39 C27        -4.6230   -0.7100   -4.1290 c3        1 5QC      0.008000
     40 C28        -4.5610   -2.2500   -4.3730 c3        1 5QC     -0.216000
     41 O2         -5.6340   -0.3830   -3.0760 oh        1 5QC     -0.323000
     42 C29         3.1590   -0.9490    2.2180 c3        1 5QC     -0.018000
     43 C31         4.0580   -0.0190    2.8760 c2        1 5QC     -0.115000
     44 HN11       -3.7210    4.3980    7.1200 hn        1 5QC      0.207000
     45 HN12       -2.3400    3.7970    7.5050 hn        1 5QC      0.207000
     46 H3         -1.2540    5.4160    1.5910 ha        1 5QC      0.170000
     47 H4          0.7670    4.1210    1.5140 ha        1 5QC      0.172000
     48 H6         -0.0840    2.6880    5.3250 ha        1 5QC      0.145667
     49 H15         0.6600   -2.4620    1.1170 ha        1 5QC      0.134000
     50 H16         0.0190   -3.6580   -0.8170 ha        1 5QC      0.140000
     51 H18         2.2610   -1.0470   -3.0350 ha        1 5QC      0.145667
     52 H19         2.9090    0.1650   -1.0590 ha        1 5QC      0.157000
     53 H111       -1.4630   -1.7670   -2.5860 h1        1 5QC      0.089500
     54 H112       -0.7340   -0.7020   -3.5570 h1        1 5QC      0.089500
     55 H201       -2.8080   -3.1380   -5.0790 h1        1 5QC      0.092000
     56 H202       -2.8220   -3.1170   -3.4770 h1        1 5QC      0.092000
     57 H231       -3.1670    0.5430   -4.0450 h1        1 5QC      0.102000
     58 H232       -3.3610   -0.4130   -2.7830 h1        1 5QC      0.102000
     59 H12         2.2170   -4.5690   -3.1790 ha        1 5QC      0.145667
     60 H21         1.7560   -5.5030   -5.2700 ha        1 5QC      0.132000
     61 H22        -1.2580   -2.8680   -5.8440 ha        1 5QC      0.149000
     62 H26         0.0340   -4.6630   -6.5940 ha        1 5QC      0.132000
     63 H27        -4.8230   -0.2720   -4.9090 h1        1 5QC      0.082000
     64 H281       -5.0400   -2.7200   -3.6700 hc        1 5QC      0.093500
     65 H282       -4.9500   -2.4800   -5.2760 hc        1 5QC      0.093500
     66 HO2        -6.4160   -0.1470   -3.4720 ho        1 5QC      0.201000
     67 H291        3.7090   -1.5310    1.6610 h1        1 5QC      0.097000
     68 H292        2.6650   -1.4450    2.9510 h1        1 5QC      0.097000
     69 H311        4.8000    0.1590    2.2750 ha        1 5QC      0.120000
     70 H312        4.4140   -0.4560    3.6790 ha        1 5QC      0.120000
@<TRIPOS>BOND
     1    1   21 1   
     2    2   21 1   
     3    3   21 1   
     4    4    6 1   
     5    4   11 1   
     6    5   22 1   
     7    6   13 1   
     8    7   13 1   
     9    7   44 1   
    10    7   45 1   
    11    8    9 1   
    12    8   16 1   
    13    8   20 1   
    14    9   18 1   
    15   10   22 1   
    16   10   23 1   
    17   10   42 1   
    18   11   14 1   
    19   12   17 1   
    20   14   46 1   
    21   15   16 1   
    22   15   47 1   
    23   17   48 1   
    24   18   19 1   
    25   19   20 1   
    26   23   24 1   
    27   23   28 1   
    28   24   25 1   
    29   24   49 1   
    30   25   50 1   
    31   26   27 1   
    32   27   51 1   
    33   28   52 1   
    34   29   35 1   
    35   30   31 1   
    36   30   37 1   
    37   31   32 1   
    38   31   53 1   
    39   31   54 1   
    40   32   33 1   
    41   32   34 1   
    42   33   40 1   
    43   33   55 1   
    44   33   56 1   
    45   34   39 1   
    46   34   57 1   
    47   34   58 1   
    48   35   59 1   
    49   36   38 1   
    50   36   60 1   
    51   37   61 1   
    52   38   62 1   
    53   39   40 1   
    54   39   41 1   
    55   39   63 1   
    56   40   64 1   
    57   40   65 1   
    58   41   66 1   
    59   42   43 1   
    60   42   67 1   
    61   42   68 1   
    62   43   69 1   
    63   43   70 1   
@<TRIPOS>SUBSTRUCTURE
     1 5QC         1 TEMP              0 ****  ****    0 ROOT
