@<TRIPOS>MOLECULE
5QM
   23    24     1     0     0
SMALL
bcc


@<TRIPOS>ATOM
      1 O1          0.1480   -0.0810   -0.2350 oh        1 5QM     -0.587800
      2 C2          1.3470    0.6130    0.0980 c3        1 5QM      0.215500
      3 C3          1.8530    0.1010    1.3430 c1        1 5QM     -0.114100
      4 C4          2.2870   -0.3140    2.3780 cg        1 5QM     -0.097000
      5 C5          2.8030   -0.7980    3.5950 ca        1 5QM      0.022000
      6 C6          3.9950   -0.2250    4.1270 ca        1 5QM     -0.094000
      7 C7          4.5200   -0.6770    5.3110 ca        1 5QM     -0.128000
      8 C8          3.8840   -1.7250    6.0270 ca        1 5QM     -0.007000
      9 C9          4.3820   -2.2340    7.2590 ca        1 5QM     -0.231300
     10 C10         3.6950   -3.2570    7.8870 ca        1 5QM      0.386200
     11 N11         2.5480   -3.8210    7.3930 nb        1 5QM     -0.664000
     12 C12         2.0770   -3.3540    6.2480 ca        1 5QM      0.426200
     13 C13         2.6970   -2.2970    5.5000 ca        1 5QM     -0.165300
     14 C14         2.1660   -1.8210    4.2780 ca        1 5QM     -0.073000
     15 HO1        -0.1510    0.2960   -1.0720 ho        1 5QM      0.404000
     16 H2          1.1310    1.7160    0.1970 h1        1 5QM      0.042700
     17 H2A         2.1110    0.4610   -0.7170 h1        1 5QM      0.042700
     18 H6          4.4860    0.5870    3.5680 ha        1 5QM      0.141000
     19 H7          5.4400   -0.2370    5.7240 ha        1 5QM      0.140000
     20 H9          5.2980   -1.8110    7.6910 ha        1 5QM      0.144000
     21 H10         4.0430   -3.6850    8.8440 h4        1 5QM      0.023100
     22 H12         1.1510   -3.8200    5.8620 h4        1 5QM      0.024100
     23 H14         1.2440   -2.2730    3.8800 ha        1 5QM      0.149000
@<TRIPOS>BOND
     1    1    2 1   
     2    1   15 1   
     3    2    3 1   
     4    2   16 1   
     5    2   17 1   
     6    3    4 3   
     7    4    5 1   
     8    5    6 ar  
     9    5   14 ar  
    10    6    7 ar  
    11    6   18 1   
    12    7    8 ar  
    13    7   19 1   
    14    8    9 ar  
    15    8   13 ar  
    16    9   10 ar  
    17    9   20 1   
    18   10   11 ar  
    19   10   21 1   
    20   11   12 ar  
    21   12   13 ar  
    22   12   22 1   
    23   13   14 ar  
    24   14   23 1   
@<TRIPOS>SUBSTRUCTURE
     1 5QM         1 TEMP              0 ****  ****    0 ROOT
