@<TRIPOS>MOLECULE
5QM
   23    24     1     0     0
SMALL
bcc


@<TRIPOS>ATOM
      1 O1          0.2130   -0.1460   -0.2900 oh        1 5QM     -0.587800
      2 C2          1.3740    0.5930    0.0790 c3        1 5QM      0.215500
      3 C3          1.8700    0.0890    1.3310 c1        1 5QM     -0.114100
      4 C4          2.2950   -0.3190    2.3740 cg        1 5QM     -0.097000
      5 C5          2.8010   -0.7940    3.5980 ca        1 5QM      0.022000
      6 C6          3.9670   -0.1920    4.1550 ca        1 5QM     -0.094000
      7 C7          4.4810   -0.6350    5.3470 ca        1 5QM     -0.128000
      8 C8          3.8590   -1.7020    6.0480 ca        1 5QM     -0.007000
      9 C9          4.3470   -2.2020    7.2860 ca        1 5QM     -0.231300
     10 C10         3.6760   -3.2460    7.8980 ca        1 5QM      0.386200
     11 N11         2.5540   -3.8390    7.3790 nb        1 5QM     -0.664000
     12 C12         2.0930   -3.3800    6.2280 ca        1 5QM      0.426200
     13 C13         2.6980   -2.3030    5.4950 ca        1 5QM     -0.165300
     14 C14         2.1790   -1.8360    4.2650 ca        1 5QM     -0.073000
     15 HO1        -0.0800    0.2270   -1.1300 ho        1 5QM      0.404000
     16 H2          1.1110    1.6850    0.1840 h1        1 5QM      0.042700
     17 H2A         2.1640    0.4810   -0.7180 h1        1 5QM      0.042700
     18 H6          4.4460    0.6360    3.6090 ha        1 5QM      0.141000
     19 H7          5.3810   -0.1720    5.7790 ha        1 5QM      0.140000
     20 H9          5.2440   -1.7570    7.7380 ha        1 5QM      0.144000
     21 H10         4.0170   -3.6680    8.8600 h4        1 5QM      0.023100
     22 H12         1.1870   -3.8680    5.8220 h4        1 5QM      0.024100
     23 H14         1.2770   -2.3120    3.8480 ha        1 5QM      0.149000
@<TRIPOS>BOND
     1    1    2 1   
     2    1   15 1   
     3    2    3 1   
     4    2   16 1   
     5    2   17 1   
     6    3    4 3   
     7    4    5 1   
     8    5    6 ar  
     9    5   14 ar  
    10    6    7 ar  
    11    6   18 1   
    12    7    8 ar  
    13    7   19 1   
    14    8    9 ar  
    15    8   13 ar  
    16    9   10 ar  
    17    9   20 1   
    18   10   11 ar  
    19   10   21 1   
    20   11   12 ar  
    21   12   13 ar  
    22   12   22 1   
    23   13   14 ar  
    24   14   23 1   
@<TRIPOS>SUBSTRUCTURE
     1 5QM         1 TEMP              0 ****  ****    0 ROOT
