@<TRIPOS>MOLECULE
5R1
   51    53     1     0     0
SMALL
bcc


@<TRIPOS>ATOM
      1 C01         1.0890    1.1730   -1.0090 c3        1 5R1      0.098700
      2 O02         1.0950    1.6190    0.3510 os        1 5R1     -0.345900
      3 C03         1.7880    0.8180    1.2380 ca        1 5R1      0.126100
      4 C04         1.0530    0.4490    2.3830 ca        1 5R1     -0.108000
      5 C05         1.6990   -0.2220    3.4210 cp        1 5R1     -0.269500
      6 C06         1.0530   -0.3810    4.7250 cp        1 5R1      0.491500
      7 N07        -0.1070   -1.0630    4.8900 nb        1 5R1     -0.610000
      8 C08        -0.6190   -1.1450    6.1390 cp        1 5R1      0.438500
      9 C09        -1.8710   -1.8740    6.3800 cp        1 5R1     -0.130500
     10 C10        -2.7570   -1.4040    7.3580 ca        1 5R1     -0.187000
     11 C11        -3.9460   -2.0980    7.6020 ca        1 5R1      0.131100
     12 O12        -4.8980   -1.7130    8.5200 os        1 5R1     -0.305900
     13 C13        -4.5810   -0.5800    9.3230 c3        1 5R1      0.108200
     14 C14        -4.2500   -3.2810    6.8870 ca        1 5R1      0.080100
     15 O15        -5.3520   -4.0150    7.2690 os        1 5R1     -0.307900
     16 C16        -6.3830   -4.0910    6.2810 c3        1 5R1      0.113700
     17 C17        -3.3510   -3.7250    5.8930 ca        1 5R1      0.131100
     18 O18        -3.7310   -4.8640    5.2180 os        1 5R1     -0.305900
     19 C19        -2.8450   -5.3260    4.2010 c3        1 5R1      0.108200
     20 C20        -2.1670   -3.0210    5.6370 ca        1 5R1     -0.187000
     21 C21         0.0530   -0.5300    7.2570 ca        1 5R1      0.287900
     22 N22         1.1820    0.1660    7.1220 nb        1 5R1     -0.611000
     23 C23         1.6810    0.2520    5.8520 ca        1 5R1      0.261900
     24 N24         2.9050    1.0380    5.6360 n4        1 5R1     -0.800300
     25 C25         3.0270   -0.6600    3.2650 ca        1 5R1     -0.198000
     26 C26         3.7300   -0.3050    2.1250 ca        1 5R1     -0.100000
     27 C27         3.1500    0.4980    1.1300 ca        1 5R1     -0.103600
     28 C28         4.1230    1.0850    0.0910 c         1 5R1      0.921200
     29 O29         4.8270    2.0300    0.5300 o         1 5R1     -0.786300
     30 O30         4.1680    0.5680   -1.0500 o         1 5R1     -0.786300
     31 H011        0.4380    0.2680   -1.0940 h1        1 5R1      0.060367
     32 H012        0.6370    2.0370   -1.5570 h1        1 5R1      0.060367
     33 H013        2.1230    0.9580   -1.3780 h1        1 5R1      0.060367
     34 H04        -0.0060    0.7340    2.4620 ha        1 5R1      0.152000
     35 H25         3.4880   -1.3070    4.0260 ha        1 5R1      0.114000
     36 H21        -0.3470   -0.6240    8.2840 h4        1 5R1      0.061100
     37 H10        -2.5320   -0.4810    7.9110 ha        1 5R1      0.152500
     38 H20        -1.4720   -3.3690    4.8580 ha        1 5R1      0.152500
     39 H131       -5.4670   -0.4950   10.0030 h1        1 5R1      0.050867
     40 H132       -3.6490   -0.7580    9.9110 h1        1 5R1      0.050867
     41 H133       -4.4810    0.3360    8.6910 h1        1 5R1      0.050867
     42 H161       -6.7730   -3.0710    6.0500 h1        1 5R1      0.048033
     43 H162       -7.1680   -4.7150    6.7780 h1        1 5R1      0.048033
     44 H163       -6.0030   -4.5880    5.3560 h1        1 5R1      0.048033
     45 H191       -2.7310   -4.5580    3.3980 h1        1 5R1      0.050867
     46 H192       -1.8530   -5.5960    4.6370 h1        1 5R1      0.050867
     47 H193       -3.3650   -6.2370    3.8080 h1        1 5R1      0.050867
     48 H241        3.7220    0.4390    5.8000 hn        1 5R1      0.472800
     49 H242        2.9210    1.3500    4.6470 hn        1 5R1      0.472800
     50 H26         4.7790   -0.6210    1.9930 ha        1 5R1      0.160000
     51 H243        2.9400    1.8470    6.2630 hn        1 5R1      0.472800
@<TRIPOS>BOND
     1    1    2 1   
     2    1   31 1   
     3    1   32 1   
     4    1   33 1   
     5    2    3 1   
     6    3    4 ar  
     7    3   27 ar  
     8    4    5 ar  
     9    4   34 1   
    10    5    6 1   
    11    5   25 ar  
    12    6    7 ar  
    13    6   23 ar  
    14    7    8 ar  
    15    8    9 1   
    16    8   21 ar  
    17    9   10 ar  
    18    9   20 ar  
    19   10   11 ar  
    20   10   37 1   
    21   11   12 1   
    22   11   14 ar  
    23   12   13 1   
    24   13   39 1   
    25   13   40 1   
    26   13   41 1   
    27   14   15 1   
    28   14   17 ar  
    29   15   16 1   
    30   16   42 1   
    31   16   43 1   
    32   16   44 1   
    33   17   18 1   
    34   17   20 ar  
    35   18   19 1   
    36   19   45 1   
    37   19   46 1   
    38   19   47 1   
    39   20   38 1   
    40   21   22 ar  
    41   21   36 1   
    42   22   23 ar  
    43   23   24 1   
    44   24   48 1   
    45   24   49 1   
    46   24   51 1   
    47   25   26 ar  
    48   25   35 1   
    49   26   27 ar  
    50   26   50 1   
    51   27   28 1   
    52   28   29 1   
    53   28   30 1   
@<TRIPOS>SUBSTRUCTURE
     1 5R1         1 TEMP              0 ****  ****    0 ROOT
