@<TRIPOS>MOLECULE
5R1
   50    52     1     0     0
SMALL
bcc


@<TRIPOS>ATOM
      1 C01         0.7300    0.9550   -0.7730 c3        1 5R1      0.099700
      2 O02         1.1070    1.6260    0.4290 os        1 5R1     -0.352900
      3 C03         1.8070    0.8340    1.3320 ca        1 5R1      0.102100
      4 C04         1.1550    0.5970    2.5540 ca        1 5R1     -0.124000
      5 C05         1.8290   -0.0710    3.5790 cp        1 5R1     -0.195500
      6 C06         1.1760   -0.2630    4.8850 cp        1 5R1      0.333500
      7 N07         0.0460   -0.9770    4.9680 nb        1 5R1     -0.588000
      8 C08        -0.5410   -1.1030    6.1940 cp        1 5R1      0.259500
      9 C09        -1.7770   -1.8850    6.3300 cp        1 5R1     -0.046500
     10 C10        -2.7620   -1.4610    7.2330 ca        1 5R1     -0.211500
     11 C11        -3.9300   -2.2130    7.3890 ca        1 5R1      0.133600
     12 O12        -4.9690   -1.8660    8.2330 os        1 5R1     -0.318400
     13 C13        -4.7510   -0.7260    9.0550 c3        1 5R1      0.111200
     14 C14        -4.1300   -3.3970    6.6470 ca        1 5R1      0.029100
     15 O15        -5.2150   -4.2200    6.8860 os        1 5R1     -0.313900
     16 C16        -6.4260   -3.7430    6.2970 c3        1 5R1      0.116700
     17 C17        -3.1430   -3.7880    5.7180 ca        1 5R1      0.133600
     18 O18        -3.4310   -4.9320    5.0010 os        1 5R1     -0.318400
     19 C19        -2.4470   -5.3400    4.0550 c3        1 5R1      0.111200
     20 C20        -1.9680   -3.0420    5.5690 ca        1 5R1     -0.211500
     21 C21         0.0330   -0.4880    7.3350 ca        1 5R1      0.332900
     22 N22         1.1580    0.2430    7.2920 nb        1 5R1     -0.728000
     23 C23         1.7700    0.3640    6.0690 ca        1 5R1      0.554900
     24 N24         2.9760    1.0310    5.9710 nv        1 5R1     -0.938500
     25 C25         3.1300   -0.5440    3.3630 ca        1 5R1     -0.148000
     26 C26         3.7580   -0.3100    2.1440 ca        1 5R1     -0.116000
     27 C27         3.1200    0.3900    1.1120 ca        1 5R1     -0.102600
     28 C28         3.9190    0.6370   -0.1660 c         1 5R1      0.917200
     29 O29         3.6440   -0.0630   -1.1810 o         1 5R1     -0.817300
     30 O30         4.8370    1.4970   -0.1120 o         1 5R1     -0.817300
     31 H011        1.6020    0.4260   -1.2340 h1        1 5R1      0.047033
     32 H012       -0.1000    0.2390   -0.5520 h1        1 5R1      0.047033
     33 H013        0.3650    1.7810   -1.4330 h1        1 5R1      0.047033
     34 H04         0.1260    0.9540    2.6970 ha        1 5R1      0.135000
     35 H25         3.6500   -1.1030    4.1540 ha        1 5R1      0.121000
     36 H21        -0.4290   -0.5910    8.3320 h4        1 5R1      0.020100
     37 H10        -2.6130   -0.5330    7.8010 ha        1 5R1      0.152000
     38 H20        -1.1960   -3.3520    4.8480 ha        1 5R1      0.152000
     39 H131       -3.8530   -0.8690    9.7040 h1        1 5R1      0.044867
     40 H132       -5.6810   -0.6720    9.6750 h1        1 5R1      0.044867
     41 H133       -4.6410    0.1950    8.4310 h1        1 5R1      0.044867
     42 H161       -6.6880   -2.7390    6.7120 h1        1 5R1      0.037033
     43 H162       -6.3250   -3.6950    5.1870 h1        1 5R1      0.037033
     44 H163       -7.1840   -4.5090    6.5950 h1        1 5R1      0.037033
     45 H191       -2.8950   -6.2590    3.6000 h1        1 5R1      0.044867
     46 H192       -2.2910   -4.5510    3.2800 h1        1 5R1      0.044867
     47 H193       -1.4850   -5.5840    4.5670 h1        1 5R1      0.044867
     48 H241        3.2420    1.6370    6.7100 hn        1 5R1      0.433300
     49 H242        3.2710    1.2760    5.0510 hn        1 5R1      0.433300
     50 H26         4.7870   -0.6640    1.9770 ha        1 5R1      0.141000
@<TRIPOS>BOND
     1    1    2 1   
     2    1   31 1   
     3    1   32 1   
     4    1   33 1   
     5    2    3 1   
     6    3    4 ar  
     7    3   27 ar  
     8    4    5 ar  
     9    4   34 1   
    10    5    6 1   
    11    5   25 ar  
    12    6    7 ar  
    13    6   23 ar  
    14    7    8 ar  
    15    8    9 1   
    16    8   21 ar  
    17    9   10 ar  
    18    9   20 ar  
    19   10   11 ar  
    20   10   37 1   
    21   11   12 1   
    22   11   14 ar  
    23   12   13 1   
    24   13   39 1   
    25   13   40 1   
    26   13   41 1   
    27   14   15 1   
    28   14   17 ar  
    29   15   16 1   
    30   16   42 1   
    31   16   43 1   
    32   16   44 1   
    33   17   18 1   
    34   17   20 ar  
    35   18   19 1   
    36   19   45 1   
    37   19   46 1   
    38   19   47 1   
    39   20   38 1   
    40   21   22 ar  
    41   21   36 1   
    42   22   23 ar  
    43   23   24 1   
    44   24   48 1   
    45   24   49 1   
    46   25   26 ar  
    47   25   35 1   
    48   26   27 ar  
    49   26   50 1   
    50   27   28 1   
    51   28   29 1   
    52   28   30 1   
@<TRIPOS>SUBSTRUCTURE
     1 5R1         1 TEMP              0 ****  ****    0 ROOT
