@<TRIPOS>MOLECULE
5R1
   50    52     1     0     0
SMALL
bcc


@<TRIPOS>ATOM
      1 C01         0.6840    0.9340   -0.7610 c3        1 5R1      0.099700
      2 O02         1.0900    1.6060    0.4310 os        1 5R1     -0.352900
      3 C03         1.7860    0.8060    1.3300 ca        1 5R1      0.102100
      4 C04         1.1460    0.5910    2.5630 ca        1 5R1     -0.124000
      5 C05         1.8190   -0.0830    3.5830 cp        1 5R1     -0.195500
      6 C06         1.1790   -0.2550    4.8980 cp        1 5R1      0.333500
      7 N07         0.0360   -0.9460    4.9990 nb        1 5R1     -0.588000
      8 C08        -0.5380   -1.0550    6.2330 cp        1 5R1      0.259500
      9 C09        -1.7870   -1.8130    6.3870 cp        1 5R1     -0.047500
     10 C10        -2.7500   -1.3720    7.3050 ca        1 5R1     -0.210500
     11 C11        -3.9340   -2.0960    7.4720 ca        1 5R1      0.132100
     12 O12        -4.9510   -1.7330    8.3340 os        1 5R1     -0.318900
     13 C13        -4.6950   -0.6030    9.1600 c3        1 5R1      0.111700
     14 C14        -4.1660   -3.2770    6.7340 ca        1 5R1      0.032100
     15 O15        -5.2800   -4.0460    7.0180 os        1 5R1     -0.313900
     16 C16        -6.2760   -4.0050    5.9940 c3        1 5R1      0.116700
     17 C17        -3.1970   -3.6910    5.7960 ca        1 5R1      0.132100
     18 O18        -3.5140   -4.8290    5.0820 os        1 5R1     -0.318900
     19 C19        -2.5560   -5.2480    4.1140 c3        1 5R1      0.111700
     20 C20        -2.0110   -2.9650    5.6270 ca        1 5R1     -0.210500
     21 C21         0.0620   -0.4470    7.3630 ca        1 5R1      0.332900
     22 N22         1.2010    0.2630    7.3030 nb        1 5R1     -0.727000
     23 C23         1.7990    0.3660    6.0720 ca        1 5R1      0.554900
     24 N24         3.0170    1.0090    5.9550 nh        1 5R1     -0.938500
     25 C25         3.1080   -0.5830    3.3540 ca        1 5R1     -0.148000
     26 C26         3.7240   -0.3700    2.1260 ca        1 5R1     -0.116000
     27 C27         3.0870    0.3350    1.0960 ca        1 5R1     -0.102600
     28 C28         3.8740    0.5540   -0.1940 c         1 5R1      0.917200
     29 O29         3.5710   -0.1470   -1.1990 o         1 5R1     -0.817300
     30 O30         4.8090    1.3960   -0.1590 o         1 5R1     -0.817300
     31 H011        0.3280    1.7630   -1.4230 h1        1 5R1      0.047033
     32 H012       -0.1570    0.2360   -0.5240 h1        1 5R1      0.047033
     33 H013        1.5390    0.3840   -1.2300 h1        1 5R1      0.047033
     34 H04         0.1260    0.9700    2.7160 ha        1 5R1      0.135000
     35 H25         3.6270   -1.1470    4.1430 ha        1 5R1      0.121000
     36 H21        -0.3890   -0.5350    8.3670 h4        1 5R1      0.020100
     37 H10        -2.5750   -0.4480    7.8730 ha        1 5R1      0.152000
     38 H20        -1.2560   -3.2890    4.8950 ha        1 5R1      0.152000
     39 H131       -4.5740    0.3190    8.5400 h1        1 5R1      0.045033
     40 H132       -5.6140   -0.5330    9.7940 h1        1 5R1      0.045033
     41 H133       -3.7910   -0.7700    9.7940 h1        1 5R1      0.045033
     42 H161       -5.8580   -4.3830    5.0300 h1        1 5R1      0.038033
     43 H162       -6.6640   -2.9650    5.8730 h1        1 5R1      0.038033
     44 H163       -7.0760   -4.6850    6.3780 h1        1 5R1      0.038033
     45 H191       -1.5880   -5.5090    4.6060 h1        1 5R1      0.045033
     46 H192       -2.4030   -4.4570    3.3400 h1        1 5R1      0.045033
     47 H193       -3.0270   -6.1580    3.6640 h1        1 5R1      0.045033
     48 H241        3.3030    1.6130    6.6870 hn        1 5R1      0.433300
     49 H242        3.3040    1.2440    5.0310 hn        1 5R1      0.433300
     50 H26         4.7440   -0.7460    1.9480 ha        1 5R1      0.141000
@<TRIPOS>BOND
     1    1    2 1   
     2    1   31 1   
     3    1   32 1   
     4    1   33 1   
     5    2    3 1   
     6    3    4 ar  
     7    3   27 ar  
     8    4    5 ar  
     9    4   34 1   
    10    5    6 1   
    11    5   25 ar  
    12    6    7 ar  
    13    6   23 ar  
    14    7    8 ar  
    15    8    9 1   
    16    8   21 ar  
    17    9   10 ar  
    18    9   20 ar  
    19   10   11 ar  
    20   10   37 1   
    21   11   12 1   
    22   11   14 ar  
    23   12   13 1   
    24   13   39 1   
    25   13   40 1   
    26   13   41 1   
    27   14   15 1   
    28   14   17 ar  
    29   15   16 1   
    30   16   42 1   
    31   16   43 1   
    32   16   44 1   
    33   17   18 1   
    34   17   20 ar  
    35   18   19 1   
    36   19   45 1   
    37   19   46 1   
    38   19   47 1   
    39   20   38 1   
    40   21   22 ar  
    41   21   36 1   
    42   22   23 ar  
    43   23   24 1   
    44   24   48 1   
    45   24   49 1   
    46   25   26 ar  
    47   25   35 1   
    48   26   27 ar  
    49   26   50 1   
    50   27   28 1   
    51   28   29 1   
    52   28   30 1   
@<TRIPOS>SUBSTRUCTURE
     1 5R1         1 TEMP              0 ****  ****    0 ROOT
