@<TRIPOS>MOLECULE
5R1
   50    52     1     0     0
SMALL
bcc


@<TRIPOS>ATOM
      1 C01        -4.3660   -2.4280    2.5570 c3        1 5R1      0.099700
      2 O02        -4.1790   -1.0130    2.5330 os        1 5R1     -0.352900
      3 C03        -3.9280   -0.4900    1.2700 ca        1 5R1      0.102100
      4 C04        -2.6610    0.0930    1.1020 ca        1 5R1     -0.124000
      5 C05        -2.3600    0.7660   -0.0840 cp        1 5R1     -0.195500
      6 C06        -1.0580    1.4340   -0.2400 cp        1 5R1      0.333500
      7 N07         0.0710    0.7160   -0.1940 nb        1 5R1     -0.588000
      8 C08         1.2580    1.3810   -0.3140 cp        1 5R1      0.259500
      9 C09         2.5180    0.6270   -0.2770 cp        1 5R1     -0.047500
     10 C10         3.6410    1.1950    0.3390 ca        1 5R1     -0.210500
     11 C11         4.8510    0.4940    0.3630 ca        1 5R1      0.132100
     12 O12         6.0060    0.9590    0.9620 os        1 5R1     -0.318900
     13 C13         5.9480    2.2800    1.4870 c3        1 5R1      0.111700
     14 C14         4.9570   -0.7780   -0.2390 ca        1 5R1      0.032100
     15 O15         6.1960   -1.3880   -0.3220 os        1 5R1     -0.313900
     16 C16         6.3310   -2.5200    0.5380 c3        1 5R1      0.116700
     17 C17         3.8090   -1.3440   -0.8320 ca        1 5R1      0.132100
     18 O18         3.9800   -2.6090   -1.3610 os        1 5R1     -0.318900
     19 C19         2.8250   -3.2050   -1.9430 c3        1 5R1      0.111700
     20 C20         2.5970   -0.6440   -0.8550 ca        1 5R1     -0.210500
     21 C21         1.2820    2.7880   -0.4750 ca        1 5R1      0.332900
     22 N22         0.1740    3.5460   -0.5160 nb        1 5R1     -0.727000
     23 C23        -1.0270    2.8900   -0.4150 ca        1 5R1      0.554900
     24 N24        -2.2070    3.5990   -0.5360 nh        1 5R1     -0.938500
     25 C25        -3.3070    0.8120   -1.1160 ca        1 5R1     -0.148000
     26 C26        -4.5540    0.2230   -0.9380 ca        1 5R1     -0.116000
     27 C27        -4.8960   -0.4270    0.2550 ca        1 5R1     -0.102600
     28 C28        -6.3090   -0.9960    0.3620 c         1 5R1      0.917200
     29 O29        -6.4540   -2.2460    0.2540 o         1 5R1     -0.817300
     30 O30        -7.2500   -0.1720    0.5090 o         1 5R1     -0.817300
     31 H011       -5.1120   -2.7540    1.7880 h1        1 5R1      0.047033
     32 H012       -3.3810   -2.9330    2.3960 h1        1 5R1      0.047033
     33 H013       -4.7410   -2.6270    3.5910 h1        1 5R1      0.047033
     34 H04        -1.9230    0.0250    1.9130 ha        1 5R1      0.135000
     35 H25        -3.0610    1.3100   -2.0650 ha        1 5R1      0.121000
     36 H21         2.2350    3.3350   -0.5810 h4        1 5R1      0.020100
     37 H10         3.5580    2.1810    0.8160 ha        1 5R1      0.152000
     38 H20         1.7020   -1.0870   -1.3170 ha        1 5R1      0.152000
     39 H131        5.2100    2.3400    2.3230 h1        1 5R1      0.045033
     40 H132        6.9870    2.4530    1.8650 h1        1 5R1      0.045033
     41 H133        5.6930    3.0160    0.6860 h1        1 5R1      0.045033
     42 H161        5.5700   -3.2960    0.2810 h1        1 5R1      0.038033
     43 H162        7.3650   -2.8890    0.3270 h1        1 5R1      0.038033
     44 H163        6.2300   -2.2110    1.6060 h1        1 5R1      0.038033
     45 H191        2.0130   -3.3200   -1.1840 h1        1 5R1      0.045033
     46 H192        2.4670   -2.6030   -2.8130 h1        1 5R1      0.045033
     47 H193        3.1950   -4.2060   -2.2810 h1        1 5R1      0.045033
     48 H241       -3.0360    3.1280   -0.2470 hn        1 5R1      0.433300
     49 H242       -2.1800    4.5840   -0.4190 hn        1 5R1      0.433300
     50 H26        -5.3070    0.2730   -1.7400 ha        1 5R1      0.141000
@<TRIPOS>BOND
     1    1    2 1   
     2    1   31 1   
     3    1   32 1   
     4    1   33 1   
     5    2    3 1   
     6    3    4 ar  
     7    3   27 ar  
     8    4    5 ar  
     9    4   34 1   
    10    5    6 1   
    11    5   25 ar  
    12    6    7 ar  
    13    6   23 ar  
    14    7    8 ar  
    15    8    9 1   
    16    8   21 ar  
    17    9   10 ar  
    18    9   20 ar  
    19   10   11 ar  
    20   10   37 1   
    21   11   12 1   
    22   11   14 ar  
    23   12   13 1   
    24   13   39 1   
    25   13   40 1   
    26   13   41 1   
    27   14   15 1   
    28   14   17 ar  
    29   15   16 1   
    30   16   42 1   
    31   16   43 1   
    32   16   44 1   
    33   17   18 1   
    34   17   20 ar  
    35   18   19 1   
    36   19   45 1   
    37   19   46 1   
    38   19   47 1   
    39   20   38 1   
    40   21   22 ar  
    41   21   36 1   
    42   22   23 ar  
    43   23   24 1   
    44   24   48 1   
    45   24   49 1   
    46   25   26 ar  
    47   25   35 1   
    48   26   27 ar  
    49   26   50 1   
    50   27   28 1   
    51   28   29 1   
    52   28   30 1   
@<TRIPOS>SUBSTRUCTURE
     1 5R1         1 TEMP              0 ****  ****    0 ROOT
