@<TRIPOS>MOLECULE
5R1
   50    42     1     0     0
SMALL
bcc


@<TRIPOS>ATOM
      1 C01         4.2090    1.6310   -3.5300 c3        1 5R1     -0.090000
      2 O02         3.6630    0.5210   -4.1780 os        1 5R1     -0.237000
      3 C03         2.2490    0.3910   -4.0160 c2        1 5R1      0.057000
      4 C04         1.7550   -0.3980   -3.0610 c1        1 5R1     -0.126000
      5 C05         0.3630   -0.5040   -2.8800 c1        1 5R1     -0.045667
      6 C06        -0.1680   -1.3770   -1.8720 c1        1 5R1     -0.036000
      7 N07        -0.3120   -0.9340   -0.6160 n1        1 5R1     -0.062000
      8 C08        -0.9140   -1.7150    0.3140 c1        1 5R1     -0.045667
      9 C09        -1.0340   -1.2490    1.6680 c1        1 5R1     -0.045667
     10 C10         0.0870   -1.1800    2.4740 c1        1 5R1     -0.136000
     11 C11        -0.0000   -0.6100    3.7300 c1        1 5R1      0.083000
     12 O12         1.1580   -0.6500    4.6320 os        1 5R1     -0.208000
     13 C13         2.0740    0.3570    4.4170 c3        1 5R1     -0.079000
     14 C14        -1.2170   -0.1070    4.1820 c1        1 5R1     -0.013000
     15 O15        -1.3390    0.3670    5.4980 o         1 5R1     -0.197000
     16 C16        -1.0560    1.7250    5.6360 c3        1 5R1     -0.073000
     17 C17        -2.3330   -0.1800    3.3720 c2        1 5R1      0.091000
     18 O18        -3.5910    0.1980    3.8800 os        1 5R1     -0.196000
     19 C19        -4.1270    1.3910    3.2800 c3        1 5R1     -0.077000
     20 C20        -2.2440   -0.7480    2.1200 c1        1 5R1     -0.227000
     21 C21        -1.3880   -2.9910   -0.0370 c1        1 5R1     -0.136000
     22 N22        -1.2440   -3.4370   -1.2960 n1        1 5R1     -0.201000
     23 C23        -0.6450   -2.6600   -2.2240 c1        1 5R1      0.097000
     24 N24        -0.5090   -3.1170   -3.5170 n3        1 5R1     -0.334000
     25 C25        -0.4830    0.1990   -3.6810 c1        1 5R1     -0.136000
     26 C26         0.0100    1.0010   -4.6510 c1        1 5R1     -0.115000
     27 C27         1.3950    1.1050   -4.8280 c2        1 5R1     -0.082000
     28 C28         1.9520    1.8830   -6.0100 c2        1 5R1      0.366000
     29 O29         2.0920    3.1610   -5.9240 o         1 5R1     -0.551500
     30 O30         2.0990    1.3030   -7.1480 o         1 5R1     -0.551500
     31 H011        3.5260    2.0150   -2.8810 h1        1 5R1      0.086000
     32 H012        4.9480    1.3800   -3.0760 h1        1 5R1      0.086000
     33 H013        4.4340    2.2670   -4.1480 h1        1 5R1      0.086000
     34 H04         2.3610   -0.9420   -2.5180 ha        1 5R1      0.132000
     35 H25        -1.5370    0.1100   -3.5470 ha        1 5R1      0.147333
     36 H21        -1.8280   -3.5590    0.6450 ha        1 5R1      0.147333
     37 H10         0.9640   -1.6360    2.1760 ha        1 5R1      0.147333
     38 H20        -3.0190   -0.7980    1.5600 ha        1 5R1      0.141000
     39 H131        1.6510    1.0920    3.7640 h1        1 5R1      0.087333
     40 H132        2.8960   -0.0200    4.0070 h1        1 5R1      0.087333
     41 H133        2.2910    0.7520    5.2300 h1        1 5R1      0.087333
     42 H161       -1.0740    2.1560    4.7500 h1        1 5R1      0.077000
     43 H162       -0.2360    1.8240    6.0010 h1        1 5R1      0.077000
     44 H163       -1.7180    2.1360    6.2100 h1        1 5R1      0.077000
     45 H191       -3.3890    1.9130    2.8720 h1        1 5R1      0.081333
     46 H192       -4.5450    1.9010    3.9270 h1        1 5R1      0.081333
     47 H193       -4.8130    1.1310    2.5480 h1        1 5R1      0.081333
     48 H241       -0.0130   -2.5800   -4.1780 hn        1 5R1      0.227500
     49 H242       -0.7650   -3.9370   -3.7210 hn        1 5R1      0.227500
     50 H26        -0.6350    1.4180   -5.3520 ha        1 5R1      0.141000
@<TRIPOS>BOND
     1    1    2 1   
     2    1   31 1   
     3    1   32 1   
     4    1   33 1   
     5    2    3 1   
     6    3    4 1   
     7    3   27 1   
     8    4   34 1   
     9    5   25 1   
    10    6    7 1   
    11    8   21 1   
    12    9   10 1   
    13   10   37 1   
    14   11   12 1   
    15   11   14 1   
    16   12   13 1   
    17   13   39 1   
    18   13   40 1   
    19   13   41 1   
    20   14   17 1   
    21   15   16 1   
    22   16   42 1   
    23   16   43 1   
    24   16   44 1   
    25   17   18 1   
    26   17   20 1   
    27   18   19 1   
    28   19   45 1   
    29   19   46 1   
    30   19   47 1   
    31   20   38 1   
    32   21   36 1   
    33   22   23 1   
    34   23   24 1   
    35   24   48 1   
    36   24   49 1   
    37   25   35 1   
    38   26   27 1   
    39   26   50 1   
    40   27   28 1   
    41   28   29 1   
    42   28   30 1   
@<TRIPOS>SUBSTRUCTURE
     1 5R1         1 TEMP              0 ****  ****    0 ROOT
