@<TRIPOS>MOLECULE
5RC
   54    57     1     0     0
SMALL
bcc


@<TRIPOS>ATOM
      1 C18        -0.1980    0.0290    1.0430 c3        1 5RC      0.028500
      2 C16        -1.2140   -2.2840    0.7010 c         1 5RC      0.652700
      3 C15        -2.8920   -5.4930    4.5370 c3        1 5RC     -0.055100
      4 C19         0.5010    0.5750   -0.2240 c3        1 5RC      0.105500
      5 C20         2.0170    0.3540   -0.1760 c3        1 5RC     -0.114400
      6 C21         2.5900    1.1090    1.0080 c3        1 5RC     -0.095400
      7 F30        -9.8380   -7.1940    4.8430 f         1 5RC     -0.215967
      8 C22         1.9420    0.7310    2.3160 c3        1 5RC     -0.137400
      9 C23         0.4070    0.8840    2.2720 c3        1 5RC      0.425600
     10 C11        -2.8740   -4.0450    1.0760 cc        1 5RC      0.023000
     11 C12        -1.8140   -3.2210    1.5540 cd        1 5RC     -0.337700
     12 N1         -6.4530   -6.8990    1.8290 na        1 5RC      0.039200
     13 C2         -5.7350   -5.7980    2.4490 cd        1 5RC      0.411500
     14 C3         -4.4510   -5.8140    1.8390 cc        1 5RC     -0.284800
     15 C4         -4.4940   -6.9180    0.9040 cc        1 5RC      0.419500
     16 N5         -5.6930   -7.5460    0.9210 nd        1 5RC     -0.509100
     17 C6         -7.7580   -7.1420    2.2100 cc        1 5RC      0.086700
     18 C7         -8.3230   -6.3180    3.1670 cd        1 5RC     -0.353600
     19 C8         -7.5560   -5.2440    3.7370 cc        1 5RC      0.503200
     20 N9         -6.3030   -4.9820    3.4010 nd        1 5RC     -0.663000
     21 C10        -3.3680   -4.9120    2.0670 cc        1 5RC     -0.018800
     22 S13        -1.5060   -3.5720    3.1790 ss        1 5RC      0.098200
     23 C14        -2.6720   -4.7470    3.2860 cd        1 5RC      0.084600
     24 N17        -0.0730   -1.4270    1.3200 ny        1 5RC     -0.691800
     25 F24        -0.0210    2.1810    2.1430 f         1 5RC     -0.190300
     26 O25        -1.4140   -2.0060   -0.4840 o         1 5RC     -0.572100
     27 F26        -0.1940    0.4680    3.4370 f         1 5RC     -0.190300
     28 N27        -0.1010    0.0990   -1.5090 nz        1 5RC     -0.838600
     29 C28        -9.7550   -6.5410    3.6390 c3        1 5RC      0.710200
     30 F29       -10.5170   -7.2850    2.7770 f         1 5RC     -0.215967
     31 F31       -10.4540   -5.3750    3.8220 f         1 5RC     -0.215967
     32 C32        -2.4420   -6.9340    4.4310 c3        1 5RC     -0.094100
     33 H1         -1.3070    0.2650    1.0000 hx        1 5RC      0.147700
     34 H2         -3.9930   -5.4650    4.7830 hc        1 5RC      0.094200
     35 H3         -2.3500   -4.9930    5.3870 hc        1 5RC      0.094200
     36 H4          0.3120    1.7030   -0.1950 hx        1 5RC      0.159700
     37 H5          2.4990    0.7510   -1.1130 hc        1 5RC      0.085700
     38 H6          2.2720   -0.7350   -0.1150 hc        1 5RC      0.085700
     39 H7          3.6950    0.8980    1.0720 hc        1 5RC      0.110200
     40 H8          2.4800    2.2160    0.8410 hc        1 5RC      0.110200
     41 H9          2.3320    1.4020    3.1350 hc        1 5RC      0.108200
     42 H10         2.1890   -0.3230    2.6070 hc        1 5RC      0.108200
     43 H11        -3.2630   -3.9970    0.0510 ha        1 5RC      0.196000
     44 H12        -3.6890   -7.2610    0.2480 h4        1 5RC      0.069800
     45 H13        -8.2980   -7.9850    1.7280 h4        1 5RC      0.224000
     46 H14        -8.0240   -4.5860    4.4990 h4        1 5RC      0.068100
     47 H15        -0.0900   -1.5560    2.3450 hn        1 5RC      0.464300
     48 H16         0.1040   -0.8970   -1.6690 hn        1 5RC      0.479133
     49 H17        -1.1250    0.2030   -1.4860 hn        1 5RC      0.479133
     50 H19        -2.6940   -7.4670    5.3810 hc        1 5RC      0.060367
     51 H20        -1.3390   -7.0000    4.2710 hc        1 5RC      0.060367
     52 H21        -2.9600   -7.4490    3.5860 hc        1 5RC      0.060367
     53 H172        0.8260   -1.7780    0.9740 hn        1 5RC      0.464300
     54 H273        0.2810    0.6480   -2.2900 hn        1 5RC      0.479133
@<TRIPOS>BOND
     1    1    4 1   
     2    1    9 1   
     3    1   24 1   
     4    1   33 1   
     5    2   11 1   
     6    2   24 1   
     7    2   26 2   
     8    3   23 1   
     9    3   32 1   
    10    3   34 1   
    11    3   35 1   
    12    4    5 1   
    13    4   28 1   
    14    4   36 1   
    15    5    6 1   
    16    5   37 1   
    17    5   38 1   
    18    6    8 1   
    19    6   39 1   
    20    6   40 1   
    21    7   29 1   
    22    8    9 1   
    23    8   41 1   
    24    8   42 1   
    25    9   25 1   
    26    9   27 1   
    27   10   11 2   
    28   10   21 1   
    29   10   43 1   
    30   11   22 1   
    31   12   13 1   
    32   12   16 1   
    33   12   17 1   
    34   13   14 2   
    35   13   20 1   
    36   14   15 1   
    37   14   21 1   
    38   15   16 2   
    39   15   44 1   
    40   17   18 2   
    41   17   45 1   
    42   18   19 1   
    43   18   29 1   
    44   19   20 2   
    45   19   46 1   
    46   21   23 2   
    47   22   23 1   
    48   24   47 1   
    49   24   53 1   
    50   28   48 1   
    51   28   49 1   
    52   28   54 1   
    53   29   30 1   
    54   29   31 1   
    55   32   50 1   
    56   32   51 1   
    57   32   52 1   
@<TRIPOS>SUBSTRUCTURE
     1 5RC         1 TEMP              0 ****  ****    0 ROOT
