@<TRIPOS>MOLECULE
5RC
   54    57     1     0     0
SMALL
bcc


@<TRIPOS>ATOM
      1 C18        -0.1970    0.0360    1.0790 c3        1 5RC      0.028500
      2 C16        -1.2550   -2.2500    0.6850 c         1 5RC      0.652700
      3 C15        -2.8120   -5.5940    4.4550 c3        1 5RC     -0.055100
      4 C19         0.4550    0.6270   -0.1940 c3        1 5RC      0.105500
      5 C20         1.9690    0.3890   -0.2200 c3        1 5RC     -0.114400
      6 C21         2.6010    1.0870    0.9680 c3        1 5RC     -0.095400
      7 F30        -9.7610   -7.2290    4.9820 f         1 5RC     -0.215967
      8 C22         2.0050    0.6600    2.2860 c3        1 5RC     -0.137400
      9 C23         0.4710    0.8320    2.3150 c3        1 5RC      0.425600
     10 C11        -2.9190   -4.0070    1.0580 cc        1 5RC      0.023000
     11 C12        -1.8310   -3.2140    1.5240 cd        1 5RC     -0.337700
     12 N1         -6.5000   -6.8510    1.8440 na        1 5RC      0.039200
     13 C2         -5.7430   -5.7830    2.4770 cd        1 5RC      0.411500
     14 C3         -4.4850   -5.7880    1.8140 cc        1 5RC     -0.284800
     15 C4         -4.5810   -6.8540    0.8390 cc        1 5RC      0.419500
     16 N5         -5.7850   -7.4680    0.8800 nd        1 5RC     -0.509100
     17 C6         -7.7910   -7.0940    2.2690 cc        1 5RC      0.086700
     18 C7         -8.3060   -6.3030    3.2810 cd        1 5RC     -0.353600
     19 C8         -7.5020   -5.2610    3.8610 cc        1 5RC      0.503200
     20 N9         -6.2610   -5.0000    3.4830 nd        1 5RC     -0.663000
     21 C10        -3.3820   -4.9080    2.0330 cc        1 5RC     -0.018800
     22 S13        -1.4590   -3.6350    3.1190 ss        1 5RC      0.098200
     23 C14        -2.6340   -4.8000    3.2280 cd        1 5RC      0.084600
     24 N17        -0.0770   -1.4320    1.2890 n4        1 5RC     -0.691800
     25 F24         0.0550    2.1370    2.2600 f         1 5RC     -0.190300
     26 O25        -1.5000   -1.9210   -0.4780 o         1 5RC     -0.572100
     27 F26        -0.0850    0.3730    3.4870 f         1 5RC     -0.190300
     28 N27        -0.2070    0.2120   -1.4700 n4        1 5RC     -0.838600
     29 C28        -9.7190   -6.5290    3.8030 c3        1 5RC      0.710200
     30 F29       -10.5260   -7.2300    2.9450 f         1 5RC     -0.215967
     31 F31       -10.3960   -5.3640    4.0610 f         1 5RC     -0.215967
     32 C32        -2.3840   -7.0350    4.2730 c3        1 5RC     -0.094100
     33 H1         -1.3030    0.2850    1.0930 hx        1 5RC      0.147700
     34 H2         -2.2300   -5.1350    5.3020 hc        1 5RC      0.094200
     35 H3         -3.9020   -5.5650    4.7480 hc        1 5RC      0.094200
     36 H4          0.2810    1.7550   -0.1090 hx        1 5RC      0.159700
     37 H5          2.4140    0.8200   -1.1600 hc        1 5RC      0.085700
     38 H6          2.2120   -0.7050   -0.2160 hc        1 5RC      0.085700
     39 H7          3.7040    0.8610    0.9750 hc        1 5RC      0.110200
     40 H8          2.4980    2.2010    0.8520 hc        1 5RC      0.110200
     41 H9          2.2510   -0.4070    2.5210 hc        1 5RC      0.108200
     42 H10         2.4380    1.2920    3.1140 hc        1 5RC      0.108200
     43 H11        -3.3500   -3.9130    0.0530 ha        1 5RC      0.196000
     44 H12        -3.8070   -7.1780    0.1360 h4        1 5RC      0.069800
     45 H13        -8.3610   -7.9120    1.7770 h4        1 5RC      0.224000
     46 H14        -7.9300   -4.6290    4.6670 h4        1 5RC      0.068100
     47 H15         0.8010   -1.7780    0.8900 hn        1 5RC      0.464300
     48 H16        -0.0220   -0.7790   -1.6800 hn        1 5RC      0.479133
     49 H17         0.1480    0.7900   -2.2430 hn        1 5RC      0.479133
     50 H19        -1.2900   -7.1050    4.0640 hc        1 5RC      0.060367
     51 H20        -2.9430   -7.5090    3.4300 hc        1 5RC      0.060367
     52 H21        -2.6030   -7.6030    5.2110 hc        1 5RC      0.060367
     53 H172       -0.0520   -1.6050    2.3080 hn        1 5RC      0.464300
     54 H273       -1.2280    0.3260   -1.3980 hn        1 5RC      0.479133
@<TRIPOS>BOND
     1    1    4 1   
     2    1    9 1   
     3    1   24 1   
     4    1   33 1   
     5    2   11 1   
     6    2   24 1   
     7    2   26 2   
     8    3   23 1   
     9    3   32 1   
    10    3   34 1   
    11    3   35 1   
    12    4    5 1   
    13    4   28 1   
    14    4   36 1   
    15    5    6 1   
    16    5   37 1   
    17    5   38 1   
    18    6    8 1   
    19    6   39 1   
    20    6   40 1   
    21    7   29 1   
    22    8    9 1   
    23    8   41 1   
    24    8   42 1   
    25    9   25 1   
    26    9   27 1   
    27   10   11 2   
    28   10   21 1   
    29   10   43 1   
    30   11   22 1   
    31   12   13 1   
    32   12   16 1   
    33   12   17 1   
    34   13   14 2   
    35   13   20 1   
    36   14   15 1   
    37   14   21 1   
    38   15   16 2   
    39   15   44 1   
    40   17   18 2   
    41   17   45 1   
    42   18   19 1   
    43   18   29 1   
    44   19   20 2   
    45   19   46 1   
    46   21   23 2   
    47   22   23 1   
    48   24   47 1   
    49   24   53 1   
    50   28   48 1   
    51   28   49 1   
    52   28   54 1   
    53   29   30 1   
    54   29   31 1   
    55   32   50 1   
    56   32   51 1   
    57   32   52 1   
@<TRIPOS>SUBSTRUCTURE
     1 5RC         1 TEMP              0 ****  ****    0 ROOT
