@<TRIPOS>MOLECULE
5RG
   16    16     1     0     0
SMALL
bcc


@<TRIPOS>ATOM
      1 NAA         0.0120    0.3020   -0.0730 nh        1 5RG     -0.814200
      2 OAB        -0.0390    0.4720    4.0810 o         1 5RG     -0.831800
      3 OAC        -1.1340   -0.4800    2.3900 o         1 5RG     -0.831800
      4 FAD         4.7960   -0.1470    2.7540 f         1 5RG     -0.174900
      5 CAE         2.4280    0.0180   -0.0240 ca        1 5RG     -0.197000
      6 CAF         3.6290   -0.0670    0.6690 ca        1 5RG     -0.157000
      7 CAG         2.4000   -0.0200    2.7660 ca        1 5RG     -0.107000
      8 CAH        -0.0890    0.0190    2.9050 c         1 5RG      0.914200
      9 CAI         1.1910    0.0950    0.6590 ca        1 5RG      0.141600
     10 CAJ         3.6210   -0.0760    2.0710 ca        1 5RG      0.040900
     11 CAK         1.1930    0.0440    2.0800 ca        1 5RG     -0.154600
     12 HNAA       -0.0320   -0.2730   -0.8870 hn        1 5RG      0.390800
     13 HNAB       -0.8150    0.2080    0.4950 hn        1 5RG      0.390800
     14 HAE         2.4500    0.0300   -1.1230 ha        1 5RG      0.111000
     15 HAF         4.5820   -0.1240    0.1270 ha        1 5RG      0.116000
     16 HAG         2.3820   -0.0260    3.8680 ha        1 5RG      0.162000
@<TRIPOS>BOND
     1    1    9 1   
     2    1   12 1   
     3    1   13 1   
     4    2    8 1   
     5    3    8 1   
     6    4   10 1   
     7    5    6 ar  
     8    5    9 ar  
     9    5   14 1   
    10    6   10 ar  
    11    6   15 1   
    12    7   10 ar  
    13    7   11 ar  
    14    7   16 1   
    15    8   11 1   
    16    9   11 ar  
@<TRIPOS>SUBSTRUCTURE
     1 5RG         1 TEMP              0 ****  ****    0 ROOT
