@<TRIPOS>MOLECULE
5RG
   17    17     1     0     0
SMALL
bcc


@<TRIPOS>ATOM
      1 NAA         0.1370    0.0380   -0.2610 nh        1 5RG     -0.836200
      2 OAB        -0.2870    1.4540    3.3470 o         1 5RG     -0.478000
      3 OAC        -1.1190   -0.3230    2.4110 oh        1 5RG     -0.586100
      4 FAD         4.7400   -0.2430    2.8610 f         1 5RG     -0.135900
      5 CAE         2.5530   -0.2520   -0.0660 ca        1 5RG     -0.178000
      6 CAF         3.6940   -0.3470    0.7100 ca        1 5RG     -0.098000
      7 CAG         2.3850    0.1260    2.7050 ca        1 5RG     -0.076000
      8 CAH        -0.0460    0.5040    2.6020 c         1 5RG      0.640700
      9 CAI         1.2890    0.0220    0.5200 ca        1 5RG      0.172600
     10 CAJ         3.6190   -0.1570    2.1050 ca        1 5RG      0.074900
     11 CAK         1.2290    0.2010    1.9250 ca        1 5RG     -0.222600
     12 HNAA       -0.8490   -1.1170    1.9280 ho        1 5RG      0.438000
     13 HNAB        0.2860    0.1740   -1.2350 hn        1 5RG      0.410300
     14 HAE         2.6310   -0.3950   -1.1550 ha        1 5RG      0.145000
     15 HAF         4.6680   -0.5660    0.2470 ha        1 5RG      0.154000
     16 HAG         2.3240    0.2950    3.7930 ha        1 5RG      0.167000
     17 HAA3       -0.6310    0.5520    0.1130 hn        1 5RG      0.410300
@<TRIPOS>BOND
     1    1    9 1   
     2    1   13 1   
     3    1   17 1   
     4    2    8 2   
     5    3    8 1   
     6    3   12 1   
     7    4   10 1   
     8    5    6 ar  
     9    5    9 ar  
    10    5   14 1   
    11    6   10 ar  
    12    6   15 1   
    13    7   10 ar  
    14    7   11 ar  
    15    7   16 1   
    16    8   11 1   
    17    9   11 ar  
@<TRIPOS>SUBSTRUCTURE
     1 5RG         1 TEMP              0 ****  ****    0 ROOT
