@<TRIPOS>MOLECULE
5RG
   16    16     1     0     0
SMALL
bcc


@<TRIPOS>ATOM
      1 NAA         1.3710    2.1630    0.2790 nh        1 5RG     -0.814200
      2 OAB         1.9340   -1.9540    0.4100 o         1 5RG     -0.831800
      3 OAC         2.7930   -0.1350   -0.5490 o         1 5RG     -0.831800
      4 FAD        -3.0390   -1.2270   -0.1010 f         1 5RG     -0.174900
      5 CAE        -1.0260    1.8190    0.0420 ca        1 5RG     -0.197000
      6 CAF        -2.1350    0.9850   -0.0250 ca        1 5RG     -0.157000
      7 CAG        -0.6570   -0.9460   -0.0220 ca        1 5RG     -0.107000
      8 CAH         1.8290   -0.7780   -0.0340 c         1 5RG      0.914200
      9 CAI         0.2860    1.2930    0.0880 ca        1 5RG      0.141600
     10 CAJ        -1.9560   -0.4050   -0.0470 ca        1 5RG      0.040900
     11 CAK         0.4580   -0.1160    0.0250 ca        1 5RG     -0.154600
     12 HNAA        1.3020    2.9800   -0.2890 hn        1 5RG      0.390800
     13 HNAB        2.2590    1.7020    0.1630 hn        1 5RG      0.390800
     14 HAE        -1.1830    2.9080    0.0660 ha        1 5RG      0.111000
     15 HAF        -3.1480    1.4070   -0.0580 ha        1 5RG      0.116000
     16 HAG        -0.5050   -2.0370   -0.0380 ha        1 5RG      0.162000
@<TRIPOS>BOND
     1    1    9 1   
     2    1   12 1   
     3    1   13 1   
     4    2    8 1   
     5    3    8 1   
     6    4   10 1   
     7    5    6 ar  
     8    5    9 ar  
     9    5   14 1   
    10    6   10 ar  
    11    6   15 1   
    12    7   10 ar  
    13    7   11 ar  
    14    7   16 1   
    15    8   11 1   
    16    9   11 ar  
@<TRIPOS>SUBSTRUCTURE
     1 5RG         1 TEMP              0 ****  ****    0 ROOT
