@<TRIPOS>MOLECULE
5RG
   16    16     1     0     0
SMALL
bcc


@<TRIPOS>ATOM
      1 NAA         0.0170    0.3130   -0.0770 nv        1 5RG     -0.814200
      2 OAB        -0.0430    0.4740    4.0770 o         1 5RG     -0.831800
      3 OAC        -1.1370   -0.4710    2.3820 o         1 5RG     -0.831800
      4 FAD         4.7930   -0.1580    2.7600 f         1 5RG     -0.174900
      5 CAE         2.4320    0.0200   -0.0230 ca        1 5RG     -0.197000
      6 CAF         3.6310   -0.0700    0.6720 ca        1 5RG     -0.157000
      7 CAG         2.3970   -0.0230    2.7670 ca        1 5RG     -0.107000
      8 CAH        -0.0910    0.0240    2.9000 c         1 5RG      0.914200
      9 CAI         1.1940    0.1000    0.6570 ca        1 5RG      0.141600
     10 CAJ         3.6200   -0.0820    2.0740 ca        1 5RG      0.040900
     11 CAK         1.1920    0.0460    2.0780 ca        1 5RG     -0.154600
     12 HNAA       -0.0270   -0.2600   -0.8930 hn        1 5RG      0.390800
     13 HNAB       -0.8110    0.2200    0.4890 hn        1 5RG      0.390800
     14 HAE         2.4560    0.0350   -1.1220 ha        1 5RG      0.111000
     15 HAF         4.5850   -0.1290    0.1320 ha        1 5RG      0.116000
     16 HAG         2.3770   -0.0310    3.8690 ha        1 5RG      0.162000
@<TRIPOS>BOND
     1    1    9 1   
     2    1   12 1   
     3    1   13 1   
     4    2    8 1   
     5    3    8 1   
     6    4   10 1   
     7    5    6 ar  
     8    5    9 ar  
     9    5   14 1   
    10    6   10 ar  
    11    6   15 1   
    12    7   10 ar  
    13    7   11 ar  
    14    7   16 1   
    15    8   11 1   
    16    9   11 ar  
@<TRIPOS>SUBSTRUCTURE
     1 5RG         1 TEMP              0 ****  ****    0 ROOT
