@<TRIPOS>MOLECULE
5RG
   16    13     1     0     0
SMALL
bcc


@<TRIPOS>ATOM
      1 NAA        -1.7080   -0.0410   -1.4710 n3        1 5RG     -0.788400
      2 OAB        -2.0560    1.2830    1.8380 o         1 5RG     -0.831800
      3 OAC        -2.1210   -0.8750    2.1450 o         1 5RG     -0.831800
      4 FAD         3.0990   -0.0600    1.2620 f         1 5RG     -0.142100
      5 CAE         0.7210   -0.0410   -1.4710 c1        1 5RG     -0.119500
      6 CAF         1.9260   -0.0410   -0.7860 c1        1 5RG     -0.119500
      7 CAG         0.7390   -0.0410    1.3010 c1        1 5RG     -0.049500
      8 CAH        -1.6150    0.1320    1.5840 c         1 5RG      0.862800
      9 CAI        -0.4750   -0.0410   -0.7700 c1        1 5RG      0.115800
     10 CAJ         1.9350   -0.0410    0.6000 c1        1 5RG      0.008100
     11 CAK        -0.4660   -0.0410    0.6160 cg        1 5RG     -0.103200
     12 HNAA       -2.0560    0.7430   -1.7830 hn        1 5RG      0.390800
     13 HNAB       -2.1510   -0.8250   -1.6140 hn        1 5RG      0.390800
     14 HAE         0.7140   -0.0410   -2.4470 ha        1 5RG      0.056000
     15 HAF         2.7680   -0.0410   -1.2800 ha        1 5RG      0.056000
     16 HAG         0.7460   -0.0330    2.2770 ha        1 5RG      0.104500
@<TRIPOS>BOND
     1    1    9 1   
     2    1   12 1   
     3    1   13 1   
     4    2    8 1   
     5    3    8 1   
     6    4   10 1   
     7    5    6 3   
     8    5   14 1   
     9    6   15 1   
    10    7   10 3   
    11    7   16 1   
    12    8   11 1   
    13    9   11 3   
@<TRIPOS>SUBSTRUCTURE
     1 5RG         1 TEMP              0 ****  ****    0 ROOT
