@<TRIPOS>MOLECULE
5RI
   53    55     1     0     0
SMALL
bcc


@<TRIPOS>ATOM
      1 CAB         0.3650    1.1750   -0.4260 c3        1 5RI      0.109700
      2 OAS         1.7440    1.0600   -0.0890 os        1 5RI     -0.304400
      3 CBA         2.0310    0.6000    1.1760 ca        1 5RI      0.150600
      4 CAK         1.0730    0.4360    2.1850 ca        1 5RI     -0.227000
      5 CBD         3.3890    0.2960    1.4080 ca        1 5RI      0.054100
      6 OAU         4.2720    0.3100    0.3480 os        1 5RI     -0.304900
      7 CAD         5.2390    1.3620    0.4070 c3        1 5RI      0.113700
      8 CBB         3.7770   -0.1350    2.6960 ca        1 5RI      0.150600
      9 OAT         5.1270   -0.3600    2.8570 os        1 5RI     -0.304400
     10 CAC         5.5270   -0.9890    4.0710 c3        1 5RI      0.109700
     11 CAL         2.8350   -0.2820    3.7170 ca        1 5RI     -0.227000
     12 CAW         1.4770   -0.0000    3.4560 ca        1 5RI      0.171600
     13 NAQ         0.5350   -0.2310    4.4900 nu        1 5RI     -0.704300
     14 CAX        -0.3760    0.7040    4.9390 ca        1 5RI      0.934900
     15 NAO        -1.1290    0.3480    6.0650 nb        1 5RI     -0.820000
     16 NAM        -0.5390    1.9190    4.2580 nb        1 5RI     -0.757000
     17 CAH        -1.4860    2.7270    4.7710 ca        1 5RI      0.704900
     18 NAN        -2.2780    2.5050    5.8560 nb        1 5RI     -0.824000
     19 CAY        -2.0470    1.2840    6.4740 ca        1 5RI      0.875900
     20 NAR        -2.7590    1.0100    7.6860 nu        1 5RI     -0.734300
     21 CAZ        -4.1320    1.3720    7.7240 ca        1 5RI      0.186600
     22 CAI        -5.0460    1.0830    6.6910 ca        1 5RI     -0.129000
     23 CAF        -6.3800    1.4640    6.8010 ca        1 5RI     -0.056000
     24 CAG        -6.8370    2.1410    7.9360 ca        1 5RI     -0.117000
     25 CAJ        -5.9510    2.4530    8.9610 ca        1 5RI     -0.091000
     26 CBC        -4.6060    2.0770    8.8580 ca        1 5RI     -0.201600
     27 CAV        -3.6680    2.3910    9.9410 c         1 5RI      0.600700
     28 OAE        -3.0880    1.6710   10.7310 o         1 5RI     -0.393100
     29 NAP        -3.3720    3.8860   10.0810 ny        1 5RI     -0.678800
     30 CAA        -2.2880    4.2960    9.1590 c3        1 5RI      0.079100
     31 HAB1       -0.1620    0.2000   -0.2920 h1        1 5RI      0.049533
     32 HAB2        0.3920    1.4660   -1.5080 h1        1 5RI      0.049533
     33 HAB3       -0.1220    1.9740    0.1840 h1        1 5RI      0.049533
     34 HAK         0.0160    0.6540    1.9760 ha        1 5RI      0.150500
     35 HAD1        4.7320    2.3560    0.3740 h1        1 5RI      0.046367
     36 HAD2        5.8620    1.2660    1.3290 h1        1 5RI      0.046367
     37 HAD3        5.8540    1.1980   -0.5120 h1        1 5RI      0.046367
     38 HAL         3.1530   -0.6210    4.7130 ha        1 5RI      0.150500
     39 HAC1        4.9920   -1.9580    4.2130 h1        1 5RI      0.049533
     40 HAC2        6.6230   -1.1610    3.9200 h1        1 5RI      0.049533
     41 HAC3        5.3510   -0.3090    4.9400 h1        1 5RI      0.049533
     42 HAH        -1.6390    3.6960    4.2450 h5        1 5RI      0.067100
     43 HAQ         0.7020   -1.0310    5.0660 hn        1 5RI      0.467800
     44 HAR        -2.5910    0.0880    8.0560 hn        1 5RI      0.451800
     45 HAI        -4.7000    0.5530    5.7870 ha        1 5RI      0.171000
     46 HAF        -7.0840    1.2230    5.9870 ha        1 5RI      0.169000
     47 HAG        -7.8980    2.4270    8.0190 ha        1 5RI      0.169000
     48 HAJ        -6.3160    2.9720    9.8610 ha        1 5RI      0.143000
     49 HAP        -3.0910    4.0890   11.0470 hn        1 5RI      0.455300
     50 HAA1       -2.1100    5.3990    9.2630 hx        1 5RI      0.115700
     51 HAA2       -1.3500    3.7330    9.4210 hx        1 5RI      0.115700
     52 HAA3       -2.5820    4.0540    8.1000 hx        1 5RI      0.115700
     53 HAP2       -4.2250    4.4120    9.8620 hn        1 5RI      0.455300
@<TRIPOS>BOND
     1    1    2 1   
     2    1   31 1   
     3    1   32 1   
     4    1   33 1   
     5    2    3 1   
     6    3    4 ar  
     7    3    5 ar  
     8    4   12 ar  
     9    4   34 1   
    10    5    6 1   
    11    5    8 ar  
    12    6    7 1   
    13    7   35 1   
    14    7   36 1   
    15    7   37 1   
    16    8    9 1   
    17    8   11 ar  
    18    9   10 1   
    19   10   39 1   
    20   10   40 1   
    21   10   41 1   
    22   11   12 ar  
    23   11   38 1   
    24   12   13 1   
    25   13   14 1   
    26   13   43 1   
    27   14   15 ar  
    28   14   16 ar  
    29   15   19 ar  
    30   16   17 ar  
    31   17   18 ar  
    32   17   42 1   
    33   18   19 ar  
    34   19   20 1   
    35   20   21 1   
    36   20   44 1   
    37   21   22 ar  
    38   21   26 ar  
    39   22   23 ar  
    40   22   45 1   
    41   23   24 ar  
    42   23   46 1   
    43   24   25 ar  
    44   24   47 1   
    45   25   26 ar  
    46   25   48 1   
    47   26   27 1   
    48   27   28 2   
    49   27   29 1   
    50   29   30 1   
    51   29   49 1   
    52   29   53 1   
    53   30   50 1   
    54   30   51 1   
    55   30   52 1   
@<TRIPOS>SUBSTRUCTURE
     1 5RI         1 TEMP              0 ****  ****    0 ROOT
