@<TRIPOS>MOLECULE
5RI
   53    55     1     0     0
SMALL
bcc


@<TRIPOS>ATOM
      1 CAB         0.5350    1.1660   -0.3740 c3        1 5RI      0.109700
      2 OAS         1.9030    1.0100   -0.0090 os        1 5RI     -0.303900
      3 CBA         2.1530    0.5460    1.2650 ca        1 5RI      0.150100
      4 CAK         1.1650    0.3990    2.2480 ca        1 5RI     -0.226500
      5 CBD         3.5000    0.2310    1.5360 ca        1 5RI      0.055100
      6 OAU         4.4620    0.2180    0.5470 os        1 5RI     -0.304900
      7 CAD         4.8540    1.5170    0.0950 c3        1 5RI      0.113700
      8 CBB         3.8480   -0.2030    2.8350 ca        1 5RI      0.150100
      9 OAT         5.1890   -0.4390    3.0320 os        1 5RI     -0.303900
     10 CAC         5.5470   -1.0960    4.2450 c3        1 5RI      0.109700
     11 CAL         2.8730   -0.3520    3.8250 ca        1 5RI     -0.226500
     12 CAW         1.5280   -0.0500    3.5270 ca        1 5RI      0.170600
     13 NAQ         0.5520   -0.2730    4.5320 nh        1 5RI     -0.704300
     14 CAX        -0.3500    0.6770    4.9670 ca        1 5RI      0.934900
     15 NAO        -1.1340    0.3290    6.0740 nb        1 5RI     -0.820000
     16 NAM        -0.4760    1.8980    4.2900 nb        1 5RI     -0.757000
     17 CAH        -1.4180    2.7210    4.7870 ca        1 5RI      0.704900
     18 NAN        -2.2390    2.5070    5.8540 nb        1 5RI     -0.824000
     19 CAY        -2.0440    1.2780    6.4690 ca        1 5RI      0.875900
     20 NAR        -2.7850    1.0110    7.6640 nh        1 5RI     -0.735300
     21 CAZ        -4.1510    1.4050    7.6790 ca        1 5RI      0.186600
     22 CAI        -5.0500    1.1530    6.6250 ca        1 5RI     -0.129000
     23 CAF        -6.3760    1.5640    6.7140 ca        1 5RI     -0.056000
     24 CAG        -6.8400    2.2360    7.8490 ca        1 5RI     -0.117000
     25 CAJ        -5.9680    2.5120    8.8960 ca        1 5RI     -0.090000
     26 CBC        -4.6300    2.1050    8.8140 ca        1 5RI     -0.201600
     27 CAV        -3.7080    2.3810    9.9200 c         1 5RI      0.600700
     28 OAE        -3.1640    1.6360   10.7140 o         1 5RI     -0.393100
     29 NAP        -3.3740    3.8650   10.0830 n4        1 5RI     -0.678800
     30 CAA        -2.2590    4.2550    9.1900 c3        1 5RI      0.079100
     31 HAB1       -0.0210    0.2050   -0.2540 h1        1 5RI      0.049533
     32 HAB2        0.5920    1.4590   -1.4540 h1        1 5RI      0.049533
     33 HAB3        0.0600    1.9770    0.2300 h1        1 5RI      0.049533
     34 HAK         0.1170    0.6330    2.0110 ha        1 5RI      0.150500
     35 HAD1        5.3110    2.0960    0.9320 h1        1 5RI      0.046367
     36 HAD2        5.6120    1.2950   -0.6980 h1        1 5RI      0.046367
     37 HAD3        3.9770    2.0620   -0.3310 h1        1 5RI      0.046367
     38 HAL         3.1590   -0.7010    4.8280 ha        1 5RI      0.150500
     39 HAC1        4.9990   -2.0620    4.3530 h1        1 5RI      0.049533
     40 HAC2        5.3530   -0.4300    5.1210 h1        1 5RI      0.049533
     41 HAC3        6.6460   -1.2750    4.1220 h1        1 5RI      0.049533
     42 HAH        -1.5420    3.6950    4.2640 h5        1 5RI      0.067100
     43 HAQ         0.6930   -1.0790    5.1080 hn        1 5RI      0.467800
     44 HAR        -2.6460    0.0830    8.0300 hn        1 5RI      0.451800
     45 HAI        -4.6980    0.6280    5.7200 ha        1 5RI      0.171000
     46 HAF        -7.0690    1.3520    5.8820 ha        1 5RI      0.169000
     47 HAG        -7.8960    2.5460    7.9150 ha        1 5RI      0.169000
     48 HAJ        -6.3380    3.0270    9.7960 ha        1 5RI      0.143000
     49 HAP        -4.2070    4.4170    9.8530 hn        1 5RI      0.455300
     50 HAA1       -2.0540    5.3530    9.3080 hx        1 5RI      0.115700
     51 HAA2       -1.3430    3.6650    9.4640 hx        1 5RI      0.115700
     52 HAA3       -2.5370    4.0320    8.1210 hx        1 5RI      0.115700
     53 HAP2       -3.1070    4.0500   11.0580 hn        1 5RI      0.455300
@<TRIPOS>BOND
     1    1    2 1   
     2    1   31 1   
     3    1   32 1   
     4    1   33 1   
     5    2    3 1   
     6    3    4 ar  
     7    3    5 ar  
     8    4   12 ar  
     9    4   34 1   
    10    5    6 1   
    11    5    8 ar  
    12    6    7 1   
    13    7   35 1   
    14    7   36 1   
    15    7   37 1   
    16    8    9 1   
    17    8   11 ar  
    18    9   10 1   
    19   10   39 1   
    20   10   40 1   
    21   10   41 1   
    22   11   12 ar  
    23   11   38 1   
    24   12   13 1   
    25   13   14 1   
    26   13   43 1   
    27   14   15 ar  
    28   14   16 ar  
    29   15   19 ar  
    30   16   17 ar  
    31   17   18 ar  
    32   17   42 1   
    33   18   19 ar  
    34   19   20 1   
    35   20   21 1   
    36   20   44 1   
    37   21   22 ar  
    38   21   26 ar  
    39   22   23 ar  
    40   22   45 1   
    41   23   24 ar  
    42   23   46 1   
    43   24   25 ar  
    44   24   47 1   
    45   25   26 ar  
    46   25   48 1   
    47   26   27 1   
    48   27   28 2   
    49   27   29 1   
    50   29   30 1   
    51   29   49 1   
    52   29   53 1   
    53   30   50 1   
    54   30   51 1   
    55   30   52 1   
@<TRIPOS>SUBSTRUCTURE
     1 5RI         1 TEMP              0 ****  ****    0 ROOT
