@<TRIPOS>MOLECULE
5RI
   55    57     1     0     0
SMALL
bcc


@<TRIPOS>ATOM
      1 CAB         0.2270   -1.5710   -0.0390 c3        1 5RI      0.102200
      2 OAS         0.3550   -0.2440    0.4920 os        1 5RI     -0.301900
      3 CBA         1.2280   -0.1320    1.5580 ca        1 5RI      0.088100
      4 CAK         0.8680   -0.6810    2.7930 ca        1 5RI     -0.142500
      5 CBD         2.4080    0.6300    1.4150 ca        1 5RI      0.215100
      6 OAU         2.8650    1.2510    0.3100 os        1 5RI     -0.252900
      7 CAD         2.1610    1.1040   -0.9320 c3        1 5RI      0.109700
      8 CBB         3.2440    0.8170    2.5770 ca        1 5RI      0.088100
      9 OAT         4.3560    1.5750    2.3420 os        1 5RI     -0.301900
     10 CAC         5.3670    1.5850    3.3530 c3        1 5RI      0.102200
     11 CAL         2.8950    0.2730    3.8030 ca        1 5RI     -0.142500
     12 CAW         1.7010   -0.4820    3.9000 ca        1 5RI     -0.125400
     13 NAQ         1.3610   -1.1010    5.1810 n4        1 5RI     -0.588100
     14 CAX         0.6540   -0.1260    6.0780 ca        1 5RI      0.810900
     15 NAO        -0.7250   -0.0720    6.0050 nb        1 5RI     -0.692000
     16 NAM         1.4330    0.6660    6.8890 nb        1 5RI     -0.630000
     17 CAH         0.7460    1.5550    7.6570 ca        1 5RI      0.749900
     18 NAN        -0.6140    1.7100    7.6850 nb        1 5RI     -0.668000
     19 CAY        -1.2880    0.8660    6.8420 ca        1 5RI      0.782900
     20 NAR        -2.7900    0.9380    6.8410 n4        1 5RI     -0.633100
     21 CAZ        -3.2980    2.3130    6.6890 ca        1 5RI      0.025600
     22 CAI        -3.3180    2.8350    5.3870 ca        1 5RI     -0.094000
     23 CAF        -3.8220    4.1190    5.1450 ca        1 5RI     -0.024000
     24 CAG        -4.3000    4.8850    6.2030 ca        1 5RI     -0.056000
     25 CAJ        -4.2830    4.3690    7.5030 ca        1 5RI     -0.064000
     26 CBC        -3.7920    3.0860    7.7820 ca        1 5RI     -0.156600
     27 CAV        -3.8040    2.5560    9.1580 c         1 5RI      0.568700
     28 OAE        -3.3920    1.4510    9.5070 o         1 5RI     -0.458100
     29 NAP        -4.3760    3.4140   10.2540 n4        1 5RI     -0.654800
     30 CAA        -4.3960    2.7410   11.5840 c3        1 5RI      0.082100
     31 HAB1       -0.5010   -1.4380   -0.8810 h1        1 5RI      0.065700
     32 HAB2        1.2120   -1.9370   -0.4170 h1        1 5RI      0.065700
     33 HAB3       -0.1800   -2.2610    0.7370 h1        1 5RI      0.065700
     34 HAK        -0.0610   -1.2720    2.8500 ha        1 5RI      0.164000
     35 HAD1        1.1320    1.5300   -0.8440 h1        1 5RI      0.079367
     36 HAD2        2.1270    0.0290   -1.2320 h1        1 5RI      0.079367
     37 HAD3        2.7980    1.7050   -1.6350 h1        1 5RI      0.079367
     38 HAL         3.5540    0.4180    4.6740 ha        1 5RI      0.164000
     39 HAC1        4.9970    2.1120    4.2640 h1        1 5RI      0.065700
     40 HAC2        5.7000    0.5470    3.5910 h1        1 5RI      0.065700
     41 HAC3        6.1940    2.1670    2.8640 h1        1 5RI      0.065700
     42 HAH         1.3520    2.2190    8.3320 h5        1 5RI      0.144100
     43 HAQ         0.7530   -1.9210    5.0190 hn        1 5RI      0.498800
     44 HAR        -3.1550    0.3690    6.0520 hn        1 5RI      0.506300
     45 HAI        -2.9480    2.2490    4.5240 ha        1 5RI      0.187000
     46 HAF        -3.8380    4.5150    4.1090 ha        1 5RI      0.216000
     47 HAG        -4.6990    5.9040    6.0200 ha        1 5RI      0.216000
     48 HAJ        -4.6800    5.0290    8.2950 ha        1 5RI      0.165000
     49 HAP        -5.3410    3.6750    9.9990 hn        1 5RI      0.481300
     50 HAA1       -4.8360    3.4560   12.3360 hx        1 5RI      0.132033
     51 HAA2       -3.3490    2.4640   11.8850 hx        1 5RI      0.132033
     52 HAA3       -5.0250    1.8100   11.5280 hx        1 5RI      0.132033
     53 HAQ2        2.2340   -1.4050    5.6500 hn        1 5RI      0.498800
     54 HAR2       -3.1180    0.5110    7.7290 hn        1 5RI      0.506300
     55 HAP2       -3.8140    4.2760   10.3230 hn        1 5RI      0.481300
@<TRIPOS>BOND
     1    1    2 1   
     2    1   31 1   
     3    1   32 1   
     4    1   33 1   
     5    2    3 1   
     6    3    4 ar  
     7    3    5 ar  
     8    4   12 ar  
     9    4   34 1   
    10    5    6 1   
    11    5    8 ar  
    12    6    7 1   
    13    7   35 1   
    14    7   36 1   
    15    7   37 1   
    16    8    9 1   
    17    8   11 ar  
    18    9   10 1   
    19   10   39 1   
    20   10   40 1   
    21   10   41 1   
    22   11   12 ar  
    23   11   38 1   
    24   12   13 1   
    25   13   14 1   
    26   13   43 1   
    27   13   53 1   
    28   14   15 ar  
    29   14   16 ar  
    30   15   19 ar  
    31   16   17 ar  
    32   17   18 ar  
    33   17   42 1   
    34   18   19 ar  
    35   19   20 1   
    36   20   21 1   
    37   20   44 1   
    38   20   54 1   
    39   21   22 ar  
    40   21   26 ar  
    41   22   23 ar  
    42   22   45 1   
    43   23   24 ar  
    44   23   46 1   
    45   24   25 ar  
    46   24   47 1   
    47   25   26 ar  
    48   25   48 1   
    49   26   27 1   
    50   27   28 2   
    51   27   29 1   
    52   29   30 1   
    53   29   49 1   
    54   29   55 1   
    55   30   50 1   
    56   30   51 1   
    57   30   52 1   
@<TRIPOS>SUBSTRUCTURE
     1 5RI         1 TEMP              0 ****  ****    0 ROOT
