@<TRIPOS>MOLECULE
5RM
   38    39     1     0     0
SMALL
bcc


@<TRIPOS>ATOM
      1 O19        -3.5310   -2.5210    0.5990 o         1 5RM     -0.590500
      2 C4         -3.3400   -1.3360    0.3270 c         1 5RM      0.799600
      3 O5         -2.4070   -1.0540   -0.6640 os        1 5RM     -0.403900
      4 N3         -3.9550   -0.1630    0.8010 n         1 5RM     -0.536900
      5 C2         -3.2910    0.9870    0.2160 c3        1 5RM      0.036000
      6 C1         -2.2690    0.3940   -0.8120 c3        1 5RM      0.192100
      7 C18        -2.6460    0.7390   -2.2420 c3        1 5RM     -0.095100
      8 C6         -0.8610    0.8030   -0.4980 ca        1 5RM     -0.107300
      9 C7         -0.5530    2.1590   -0.3860 ca        1 5RM     -0.127000
     10 C8          0.7520    2.5710   -0.1110 ca        1 5RM     -0.181000
     11 C9          1.7620    1.6230    0.0530 ca        1 5RM      0.108100
     12 O10         3.0810    1.9130    0.3310 os        1 5RM     -0.300900
     13 C11         3.4090    3.2940    0.4240 c3        1 5RM      0.109700
     14 C12         1.4530    0.2390   -0.0640 ca        1 5RM      0.110100
     15 C17         0.1460   -0.1590   -0.3400 ca        1 5RM     -0.156000
     16 O13         2.5180   -0.6160    0.1150 os        1 5RM     -0.308900
     17 C14         2.2210   -2.0150   -0.0080 c3        1 5RM      0.124400
     18 C15         3.5390   -2.7350    0.2240 c3        1 5RM     -0.085400
     19 C16         3.3480   -4.2250    0.1190 c3        1 5RM     -0.094100
     20 H2         -4.0560    1.6170   -0.3120 h1        1 5RM      0.066200
     21 H181       -3.7000    0.4310   -2.4460 hc        1 5RM      0.056033
     22 H182       -2.5420    1.8390   -2.3990 hc        1 5RM      0.056033
     23 H183       -1.9730    0.2010   -2.9510 hc        1 5RM      0.056033
     24 H7         -1.3400    2.9170   -0.5190 ha        1 5RM      0.131000
     25 H8          0.9730    3.6440   -0.0280 ha        1 5RM      0.141000
     26 H111        4.5080    3.2830    0.6370 h1        1 5RM      0.045033
     27 H112        3.2000    3.8180   -0.5400 h1        1 5RM      0.045033
     28 H113        2.8500    3.7780    1.2620 h1        1 5RM      0.045033
     29 H17        -0.1120   -1.2250   -0.4390 ha        1 5RM      0.166000
     30 H141        1.4600   -2.3070    0.7610 h1        1 5RM      0.042200
     31 H142        1.8210   -2.2250   -1.0350 h1        1 5RM      0.042200
     32 H151        4.2900   -2.3830   -0.5310 hc        1 5RM      0.057200
     33 H152        3.9350   -2.4620    1.2370 hc        1 5RM      0.057200
     34 H161        4.3200   -4.7480    0.2910 hc        1 5RM      0.037367
     35 H162        2.6140   -4.5860    0.8790 hc        1 5RM      0.037367
     36 H163        2.9710   -4.5070   -0.8940 hc        1 5RM      0.037367
     37 H18        -4.2070   -0.1300    1.7610 hn        1 5RM      0.322500
     38 H19        -2.7680    1.6150    0.9860 h1        1 5RM      0.066200
@<TRIPOS>BOND
     1    1    2 2   
     2    2    3 1   
     3    2    4 1   
     4    3    6 1   
     5    4    5 1   
     6    4   37 1   
     7    5    6 1   
     8    5   20 1   
     9    5   38 1   
    10    6    7 1   
    11    6    8 1   
    12    7   21 1   
    13    7   22 1   
    14    7   23 1   
    15    8    9 ar  
    16    8   15 ar  
    17    9   10 ar  
    18    9   24 1   
    19   10   11 ar  
    20   10   25 1   
    21   11   12 1   
    22   11   14 ar  
    23   12   13 1   
    24   13   26 1   
    25   13   27 1   
    26   13   28 1   
    27   14   15 ar  
    28   14   16 1   
    29   15   29 1   
    30   16   17 1   
    31   17   18 1   
    32   17   30 1   
    33   17   31 1   
    34   18   19 1   
    35   18   32 1   
    36   18   33 1   
    37   19   34 1   
    38   19   35 1   
    39   19   36 1   
@<TRIPOS>SUBSTRUCTURE
     1 5RM         1 TEMP              0 ****  ****    0 ROOT
