@<TRIPOS>MOLECULE
5RM
   38    36     1     0     0
SMALL
bcc


@<TRIPOS>ATOM
      1 O19        -1.7160   -3.2040   -4.3500 o         1 5RM     -0.310000
      2 C4         -0.9890   -3.1020   -3.4040 c1        1 5RM      0.366000
      3 O5         -1.2560   -2.3450   -2.2180 o         1 5RM     -0.240000
      4 N3          0.2540   -3.7930   -3.2170 n3        1 5RM     -0.345000
      5 C2          0.6430   -3.6350   -1.8590 c3        1 5RM     -0.080000
      6 C1         -0.3630   -2.7600   -1.2290 c3        1 5RM      0.113000
      7 C18        -1.1340   -3.5460   -0.1230 c3        1 5RM     -0.214000
      8 C6          0.3570   -1.4920   -0.5860 c2        1 5RM     -0.123000
      9 C7          1.5650   -1.6360    0.0450 c2        1 5RM     -0.103000
     10 C8          2.1930   -0.5170    0.6310 c1        1 5RM     -0.194000
     11 C9          1.5840    0.7370    0.5700 c1        1 5RM      0.062000
     12 O10         2.2880    1.9120    1.0630 os        1 5RM     -0.202000
     13 C11         2.5430    1.8910    2.4530 c3        1 5RM     -0.078000
     14 C12         0.3610    0.8830   -0.0680 c1        1 5RM      0.033000
     15 C17        -0.2590   -0.2240   -0.6470 c1        1 5RM     -0.083000
     16 O13        -0.2120    2.2070   -0.2460 os        1 5RM     -0.215000
     17 C14        -1.0020    2.6570    0.8760 c3        1 5RM     -0.021000
     18 C15        -1.8020    3.8670    0.4760 c3        1 5RM     -0.165000
     19 C16        -1.8960    4.8510    1.6880 c3        1 5RM     -0.210000
     20 H2          0.5550   -4.4990   -1.4440 h1        1 5RM      0.104500
     21 H181       -1.5890   -4.2880   -0.5180 hc        1 5RM      0.095000
     22 H182       -1.7910   -2.9480    0.3060 hc        1 5RM      0.095000
     23 H183       -0.4880   -3.8790    0.5640 hc        1 5RM      0.095000
     24 H7          2.0150   -2.5610    0.0880 ha        1 5RM      0.131000
     25 H8          3.0680   -0.6230    1.0870 ha        1 5RM      0.141000
     26 H111        1.8210    1.4120    2.9100 h1        1 5RM      0.085667
     27 H112        3.4290    1.4200    2.6300 h1        1 5RM      0.085667
     28 H113        2.5900    2.8320    2.7960 h1        1 5RM      0.085667
     29 H17        -1.1260   -0.1190   -1.1010 ha        1 5RM      0.174000
     30 H141       -0.3980    2.8950    1.6310 h1        1 5RM      0.081500
     31 H142       -1.6040    1.9470    1.1540 h1        1 5RM      0.081500
     32 H151       -1.3560    4.3210   -0.2870 hc        1 5RM      0.095000
     33 H152       -2.6980    3.5930    0.2100 hc        1 5RM      0.095000
     34 H161       -2.2960    5.7090    1.3890 hc        1 5RM      0.074667
     35 H162       -0.9800    5.0210    2.0530 hc        1 5RM      0.074667
     36 H163       -2.4650    4.4520    2.3970 hc        1 5RM      0.074667
     37 H18         0.6970   -4.2880   -3.8520 hn        1 5RM      0.235000
     38 H19         1.4550   -3.1510   -1.8670 h1        1 5RM      0.104500
@<TRIPOS>BOND
     1    1    2 1   
     2    2    4 1   
     3    3    6 1   
     4    4    5 1   
     5    4   37 1   
     6    5    6 1   
     7    5   20 1   
     8    5   38 1   
     9    6    7 1   
    10    6    8 1   
    11    7   21 1   
    12    7   22 1   
    13    7   23 1   
    14    8    9 1   
    15    8   15 1   
    16    9   10 1   
    17    9   24 1   
    18   10   25 1   
    19   11   12 1   
    20   11   14 1   
    21   12   13 1   
    22   13   26 1   
    23   13   27 1   
    24   13   28 1   
    25   14   16 1   
    26   15   29 1   
    27   16   17 1   
    28   17   18 1   
    29   17   30 1   
    30   17   31 1   
    31   18   19 1   
    32   18   32 1   
    33   18   33 1   
    34   19   34 1   
    35   19   35 1   
    36   19   36 1   
@<TRIPOS>SUBSTRUCTURE
     1 5RM         1 TEMP              0 ****  ****    0 ROOT
