@<TRIPOS>MOLECULE
5RM
   38    39     1     0     0
SMALL
bcc


@<TRIPOS>ATOM
      1 O19         0.0130   -0.4820    0.7770 o         1 5RM     -0.590500
      2 C4          1.1640   -0.3230    0.3700 c         1 5RM      0.799600
      3 O5          2.1840   -0.3750    1.3120 os        1 5RM     -0.403900
      4 N3          1.6740   -0.1530   -0.9300 ns        1 5RM     -0.536900
      5 C2          3.1030    0.0830   -0.8480 c3        1 5RM      0.036000
      6 C1          3.4670   -0.1100    0.6650 c3        1 5RM      0.192100
      7 C18         4.3430   -1.3300    0.8800 c3        1 5RM     -0.095100
      8 C6          4.0840    1.1250    1.2510 ca        1 5RM     -0.107300
      9 C7          5.2160    1.6740    0.6480 ca        1 5RM     -0.127000
     10 C8          5.8230    2.8130    1.1810 ca        1 5RM     -0.181000
     11 C9          5.2970    3.4110    2.3260 ca        1 5RM      0.108100
     12 O10         5.8090    4.5370    2.9360 os        1 5RM     -0.300900
     13 C11         6.9770    5.0910    2.3410 c3        1 5RM      0.109700
     14 C12         4.1440    2.8530    2.9460 ca        1 5RM      0.110100
     15 C17         3.5500    1.7140    2.4040 ca        1 5RM     -0.156000
     16 O13         3.7040    3.5160    4.0700 os        1 5RM     -0.308900
     17 C14         2.5460    2.9580    4.7080 c3        1 5RM      0.124400
     18 C15         2.2670    3.8530    5.9040 c3        1 5RM     -0.085400
     19 C16         1.0590    3.3610    6.6570 c3        1 5RM     -0.094100
     20 H2          3.6330   -0.6820   -1.4770 h1        1 5RM      0.066200
     21 H181        5.3400   -1.1610    0.4080 hc        1 5RM      0.056033
     22 H182        3.8640   -2.2320    0.4290 hc        1 5RM      0.056033
     23 H183        4.4800   -1.5090    1.9740 hc        1 5RM      0.056033
     24 H7          5.6440    1.2080   -0.2520 ha        1 5RM      0.131000
     25 H8          6.7140    3.2280    0.6910 ha        1 5RM      0.141000
     26 H111        7.2090    5.9670    2.9990 h1        1 5RM      0.045033
     27 H112        6.7680    5.4270    1.2970 h1        1 5RM      0.045033
     28 H113        7.8170    4.3550    2.3560 h1        1 5RM      0.045033
     29 H17         2.6600    1.2640    2.8720 ha        1 5RM      0.166000
     30 H141        2.7650    1.9070    5.0320 h1        1 5RM      0.042200
     31 H142        1.6840    2.9600    3.9910 h1        1 5RM      0.042200
     32 H151        3.1660    3.8660    6.5730 hc        1 5RM      0.057200
     33 H152        2.1040    4.9030    5.5480 hc        1 5RM      0.057200
     34 H161        0.1550    3.3610    6.0010 hc        1 5RM      0.037367
     35 H162        0.8600    4.0230    7.5340 hc        1 5RM      0.037367
     36 H163        1.2210    2.3200    7.0310 hc        1 5RM      0.037367
     37 H18         1.1390    0.3870   -1.5690 hn        1 5RM      0.322500
     38 H19         3.3880    1.1090   -1.2020 h1        1 5RM      0.066200
@<TRIPOS>BOND
     1    1    2 2   
     2    2    3 1   
     3    2    4 1   
     4    3    6 1   
     5    4    5 1   
     6    4   37 1   
     7    5    6 1   
     8    5   20 1   
     9    5   38 1   
    10    6    7 1   
    11    6    8 1   
    12    7   21 1   
    13    7   22 1   
    14    7   23 1   
    15    8    9 ar  
    16    8   15 ar  
    17    9   10 ar  
    18    9   24 1   
    19   10   11 ar  
    20   10   25 1   
    21   11   12 1   
    22   11   14 ar  
    23   12   13 1   
    24   13   26 1   
    25   13   27 1   
    26   13   28 1   
    27   14   15 ar  
    28   14   16 1   
    29   15   29 1   
    30   16   17 1   
    31   17   18 1   
    32   17   30 1   
    33   17   31 1   
    34   18   19 1   
    35   18   32 1   
    36   18   33 1   
    37   19   34 1   
    38   19   35 1   
    39   19   36 1   
@<TRIPOS>SUBSTRUCTURE
     1 5RM         1 TEMP              0 ****  ****    0 ROOT
