@<TRIPOS>MOLECULE
5RP
   23    22     1     0     0
SMALL
bcc


@<TRIPOS>ATOM
      1 C2         -2.8050    0.7860   -1.5180 c3        1 5RP      0.016400
      2 C3         -1.3390    0.7550   -1.5660 c         1 5RP      0.533100
      3 C5         -0.5470    0.7960   -0.2810 c3        1 5RP      0.061100
      4 O13         0.0900    2.0360   -0.1640 oh        1 5RP     -0.608800
      5 C6          0.4880   -0.2990   -0.2900 c3        1 5RP      0.058100
      6 O14        -0.1110   -1.4900   -0.6020 oh        1 5RP     -0.673800
      7 C7          1.1420   -0.4020    1.1100 c3        1 5RP      0.222400
      8 O8          2.1400   -1.4290    1.1010 os        1 5RP     -0.560200
      9 P9          3.1020   -1.5590    2.3660 p5        1 5RP      1.308900
     10 O12         3.9170   -0.2780    2.5170 o         1 5RP     -0.926167
     11 O11         2.2690   -1.7770    3.6120 o         1 5RP     -0.926167
     12 O10         4.0400   -2.7380    2.1730 o         1 5RP     -0.926167
     13 O4         -0.7630    0.8350   -2.6390 o         1 5RP     -0.575100
     14 O1         -3.3130    1.0170   -2.8040 oh        1 5RP     -0.629800
     15 H21        -3.1420   -0.0800   -1.1800 h1        1 5RP      0.082200
     16 H22        -3.1000    1.5150   -0.9110 h1        1 5RP      0.082200
     17 H5         -1.1430    0.6700    0.4680 h1        1 5RP      0.066700
     18 H13        -0.3560    2.5410    0.3900 ho        1 5RP      0.436000
     19 H6          1.1740   -0.0950   -0.9580 h1        1 5RP      0.098700
     20 H14         0.3850   -1.9210   -1.2050 ho        1 5RP      0.457000
     21 H71         0.4430   -0.6220    1.7870 h1        1 5RP     -0.003800
     22 H72         1.5560    0.4520    1.3380 h1        1 5RP     -0.003800
     23 HO1        -4.1260    1.2870   -2.7460 ho        1 5RP      0.411000
@<TRIPOS>BOND
     1    1    2 1   
     2    1   14 1   
     3    1   15 1   
     4    1   16 1   
     5    2    3 1   
     6    2   13 2   
     7    3    4 1   
     8    3    5 1   
     9    3   17 1   
    10    4   18 1   
    11    5    6 1   
    12    5    7 1   
    13    5   19 1   
    14    6   20 1   
    15    7    8 1   
    16    7   21 1   
    17    7   22 1   
    18    8    9 1   
    19    9   10 1   
    20    9   11 1   
    21    9   12 1   
    22   14   23 1   
@<TRIPOS>SUBSTRUCTURE
     1 5RP         1 TEMP              0 ****  ****    0 ROOT
