@<TRIPOS>MOLECULE
5RP
   23    22     1     0     0
SMALL
bcc


@<TRIPOS>ATOM
      1 C2          1.1090    0.9810    3.1300 c3        1 5RP      0.002400
      2 C3         -0.2910    0.4790    2.8530 c         1 5RP      0.571100
      3 C5         -0.6120    0.3210    1.3940 c3        1 5RP     -0.004900
      4 O13        -2.0100    0.4480    1.2110 oh        1 5RP     -0.647800
      5 C6         -0.0860   -1.0340    0.8500 c3        1 5RP      0.104100
      6 O14         1.3240   -1.0500    0.9560 oh        1 5RP     -0.673800
      7 C7         -0.5150   -1.2080   -0.6360 c3        1 5RP      0.204400
      8 O8          0.4000   -0.7030   -1.5230 os        1 5RP     -0.576200
      9 P9          0.3710    1.0070   -1.8150 p5        1 5RP      1.325900
     10 O12         1.3770    1.3610   -0.7430 o         1 5RP     -0.925500
     11 O11         0.7390    1.1730   -3.2550 o         1 5RP     -0.925500
     12 O10        -1.0370    1.3560   -1.3880 o         1 5RP     -0.925500
     13 O4         -1.0470    0.2250    3.8050 o         1 5RP     -0.613100
     14 O1          1.3880    1.1590    4.5110 oh        1 5RP     -0.641800
     15 H21         1.2620    1.9780    2.6350 h1        1 5RP      0.095700
     16 H22         1.8470    0.2440    2.7040 h1        1 5RP      0.095700
     17 H5         -0.0630    1.1170    0.7710 h1        1 5RP      0.167700
     18 H13        -2.1110    0.8610    0.3270 ho        1 5RP      0.473000
     19 H6         -0.4610   -1.8840    1.4760 h1        1 5RP      0.017700
     20 H14         1.6430   -0.4330    0.2490 ho        1 5RP      0.483000
     21 H71        -0.6000   -2.3210   -0.8160 h1        1 5RP     -0.004300
     22 H72        -1.5240   -0.7370   -0.7920 h1        1 5RP     -0.004300
     23 HO1         0.6690    0.7470    5.0090 ho        1 5RP      0.402000
@<TRIPOS>BOND
     1    1    2 1   
     2    1   14 1   
     3    1   15 1   
     4    1   16 1   
     5    2    3 1   
     6    2   13 2   
     7    3    4 1   
     8    3    5 1   
     9    3   17 1   
    10    4   18 1   
    11    5    6 1   
    12    5    7 1   
    13    5   19 1   
    14    6   20 1   
    15    7    8 1   
    16    7   21 1   
    17    7   22 1   
    18    8    9 1   
    19    9   10 1   
    20    9   11 1   
    21    9   12 1   
    22   14   23 1   
@<TRIPOS>SUBSTRUCTURE
     1 5RP         1 TEMP              0 ****  ****    0 ROOT
