@<TRIPOS>MOLECULE
5SC
   42    45     1     0     0
SMALL
bcc


@<TRIPOS>ATOM
      1 C01         2.2740    2.3250   -0.0160 cc        1 5SC     -0.270900
      2 C02         1.6820    1.0360   -0.1110 cd        1 5SC      0.426500
      3 N03         0.2720    1.2950   -0.3300 na        1 5SC      0.005200
      4 N04         0.0010    2.6130   -0.3800 nd        1 5SC     -0.580100
      5 C05         1.1820    3.2510   -0.1900 cc        1 5SC      0.419500
      6 N06         2.2150   -0.2260   -0.0220 nd        1 5SC     -0.645000
      7 C07         1.3620   -1.2410   -0.1620 cc        1 5SC      0.541800
      8 C08        -0.0430   -1.0750   -0.4030 cc        1 5SC     -0.378300
      9 C09        -0.6040    0.2060   -0.5030 cd        1 5SC      0.283300
     10 N10        -1.9440    0.4250   -0.8260 nh        1 5SC     -0.742600
     11 C11         1.8730   -2.6280   -0.1020 ca        1 5SC     -0.159500
     12 C12        -2.8960   -0.6230   -0.5280 c3        1 5SC      0.247100
     13 C13        -4.3100   -0.1270   -0.4610 ca        1 5SC     -0.068300
     14 C14        -5.0840   -0.4610    0.6550 ca        1 5SC     -0.214300
     15 N15        -6.4150   -0.0730    0.7680 na        1 5SC      0.255600
     16 C16        -6.9540    0.6780   -0.2760 ca        1 5SC     -0.212300
     17 C17        -6.1980    1.0250   -1.3930 ca        1 5SC     -0.085000
     18 C18        -4.8660    0.6240   -1.5000 ca        1 5SC     -0.159000
     19 C19         1.5930   -3.4570    0.9970 ca        1 5SC     -0.048300
     20 C20         2.0750   -4.7720    0.9910 ca        1 5SC     -0.136000
     21 C21         2.8290   -5.2500   -0.0780 ca        1 5SC     -0.114000
     22 C22         3.1180   -4.4150   -1.1570 ca        1 5SC     -0.138000
     23 C23         2.6460   -3.1050   -1.1670 ca        1 5SC     -0.092000
     24 BR24        4.0270    2.7330    0.2630 br        1 5SC      0.003300
     25 C25         0.8280   -2.9600    2.1640 c3        1 5SC     -0.060800
     26 O26        -7.0840   -0.3770    1.7460 o         1 5SC     -0.278000
     27 H05         1.2420    4.3430   -0.1790 h4        1 5SC      0.063800
     28 H08        -0.6640   -1.9700   -0.5340 ha        1 5SC      0.165000
     29 HN10       -2.2920    1.3590   -0.7460 hn        1 5SC      0.447800
     30 H121       -2.8290   -1.3910   -1.3570 h1        1 5SC      0.064700
     31 H122       -2.6290   -1.1450    0.4390 h1        1 5SC      0.064700
     32 H14        -4.6910   -1.0480    1.5040 h4        1 5SC      0.189000
     33 H16        -8.0100    0.9710   -0.1490 h4        1 5SC      0.190000
     34 H17        -6.6730    1.6190   -2.1880 ha        1 5SC      0.159000
     35 H18        -4.2700    0.8880   -2.3860 ha        1 5SC      0.159000
     36 H20         1.8590   -5.4310    1.8460 ha        1 5SC      0.135000
     37 H21         3.2020   -6.2850   -0.0670 ha        1 5SC      0.134000
     38 H22         3.7230   -4.7870   -1.9980 ha        1 5SC      0.136000
     39 H23         2.8830   -2.4380   -2.0110 ha        1 5SC      0.144000
     40 H251       -0.0460   -2.3440    1.8340 hc        1 5SC      0.049367
     41 H252        0.4500   -3.8060    2.7890 hc        1 5SC      0.049367
     42 H253        1.4860   -2.3180    2.8030 hc        1 5SC      0.049367
@<TRIPOS>BOND
     1    1    2 2   
     2    1    5 1   
     3    1   24 1   
     4    2    3 1   
     5    2    6 1   
     6    3    4 1   
     7    3    9 1   
     8    4    5 2   
     9    5   27 1   
    10    6    7 2   
    11    7    8 1   
    12    7   11 1   
    13    8    9 2   
    14    8   28 1   
    15    9   10 1   
    16   10   12 1   
    17   10   29 1   
    18   11   19 ar  
    19   11   23 ar  
    20   12   13 1   
    21   12   30 1   
    22   12   31 1   
    23   13   14 ar  
    24   13   18 ar  
    25   14   15 2   
    26   14   32 1   
    27   15   16 1   
    28   15   26 1   
    29   16   17 ar  
    30   16   33 1   
    31   17   18 ar  
    32   17   34 1   
    33   18   35 1   
    34   19   20 ar  
    35   19   25 1   
    36   20   21 ar  
    37   20   36 1   
    38   21   22 ar  
    39   21   37 1   
    40   22   23 ar  
    41   22   38 1   
    42   23   39 1   
    43   25   40 1   
    44   25   41 1   
    45   25   42 1   
@<TRIPOS>SUBSTRUCTURE
     1 5SC         1 TEMP              0 ****  ****    0 ROOT
