@<TRIPOS>MOLECULE
5SC
   43    46     1     0     0
SMALL
bcc


@<TRIPOS>ATOM
      1 C01        -0.1420   -0.0270   -0.1280 cc        1 5SC     -0.207900
      2 C02         1.2780   -0.0020   -0.1450 cd        1 5SC      0.401500
      3 N03         1.6560   -0.0090    1.2650 na        1 5SC      0.004200
      4 N04         0.5920   -0.0380    2.0820 nd        1 5SC     -0.587100
      5 C05        -0.5000   -0.0480    1.2730 cc        1 5SC      0.447500
      6 N06         2.2020    0.0250   -1.1570 nd        1 5SC     -0.555000
      7 C07         3.4860    0.0470   -0.8210 cc        1 5SC      0.519800
      8 C08         3.9450    0.0420    0.5630 cc        1 5SC     -0.207300
      9 C09         3.0180    0.0080    1.5860 cd        1 5SC      0.063300
     10 N10         3.3700   -0.0130    3.0200 n4        1 5SC     -0.641400
     11 C11         4.5300    0.0370   -1.8610 ca        1 5SC     -0.198500
     12 C12         4.8490   -0.0100    3.2850 c3        1 5SC      0.178100
     13 C13         5.1090   -0.0030    4.7540 ca        1 5SC     -0.139300
     14 C14         4.9570    1.2060    5.4500 ca        1 5SC     -0.241300
     15 N15         5.2150    1.3010    6.8130 na        1 5SC      0.265600
     16 C16         5.6400    0.1340    7.4660 ca        1 5SC     -0.171300
     17 C17         5.7980   -1.0670    6.7880 ca        1 5SC     -0.073000
     18 C18         5.5260   -1.1550    5.4160 ca        1 5SC     -0.137000
     19 C19         5.5340    1.0200   -1.9010 ca        1 5SC     -0.052300
     20 C20         6.5110    0.9460   -2.9020 ca        1 5SC     -0.129000
     21 C21         6.4890   -0.0750   -3.8490 ca        1 5SC     -0.087000
     22 C22         5.4770   -1.0360   -3.8160 ca        1 5SC     -0.128000
     23 C23         4.4960   -0.9770   -2.8300 ca        1 5SC     -0.078000
     24 BR24       -1.2730   -0.0300   -1.5520 br        1 5SC      0.070300
     25 C25         5.5850    2.1470   -0.9390 c3        1 5SC     -0.063800
     26 O26         5.0710    2.3490    7.4110 o         1 5SC     -0.216000
     27 H05        -1.5160   -0.0690    1.6890 h4        1 5SC      0.091800
     28 H08         5.0320    0.0620    0.7340 ha        1 5SC      0.186000
     29 HN10        2.9470    0.8110    3.4790 hn        1 5SC      0.474800
     30 H121        5.2870    0.9120    2.8030 hx        1 5SC      0.118700
     31 H122        5.2930   -0.9290    2.8040 hx        1 5SC      0.118700
     32 H14         4.6590    2.1500    4.9620 h4        1 5SC      0.188000
     33 H16         5.8430    0.2530    8.5480 h4        1 5SC      0.214000
     34 H17         6.1420   -1.9530    7.3490 ha        1 5SC      0.184000
     35 H18         5.6600   -2.1090    4.8860 ha        1 5SC      0.160000
     36 H20         7.3000    1.7140   -2.9430 ha        1 5SC      0.149000
     37 H21         7.2640   -0.1170   -4.6300 ha        1 5SC      0.153000
     38 H22         5.4480   -1.8350   -4.5730 ha        1 5SC      0.154000
     39 H23         3.6890   -1.7270   -2.8150 ha        1 5SC      0.150000
     40 H251        4.5890    2.3350   -0.4690 hc        1 5SC      0.048367
     41 H252        5.9040    3.0870   -1.4580 hc        1 5SC      0.048367
     42 H253        6.3300    1.9310   -0.1310 hc        1 5SC      0.048367
     43 H102        2.9530   -0.8540    3.4510 hn        1 5SC      0.474800
@<TRIPOS>BOND
     1    1    2 2   
     2    1    5 1   
     3    1   24 1   
     4    2    3 1   
     5    2    6 1   
     6    3    4 1   
     7    3    9 1   
     8    4    5 2   
     9    5   27 1   
    10    6    7 2   
    11    7    8 1   
    12    7   11 1   
    13    8    9 2   
    14    8   28 1   
    15    9   10 1   
    16   10   12 1   
    17   10   29 1   
    18   10   43 1   
    19   11   19 ar  
    20   11   23 ar  
    21   12   13 1   
    22   12   30 1   
    23   12   31 1   
    24   13   14 ar  
    25   13   18 ar  
    26   14   15 2   
    27   14   32 1   
    28   15   16 1   
    29   15   26 1   
    30   16   17 ar  
    31   16   33 1   
    32   17   18 ar  
    33   17   34 1   
    34   18   35 1   
    35   19   20 ar  
    36   19   25 1   
    37   20   21 ar  
    38   20   36 1   
    39   21   22 ar  
    40   21   37 1   
    41   22   23 ar  
    42   22   38 1   
    43   23   39 1   
    44   25   40 1   
    45   25   41 1   
    46   25   42 1   
@<TRIPOS>SUBSTRUCTURE
     1 5SC         1 TEMP              0 ****  ****    0 ROOT
