@<TRIPOS>MOLECULE
5SC
   42    31     1     0     0
SMALL
bcc


@<TRIPOS>ATOM
      1 C01        -3.5450    0.1980   -1.3110 c1        1 5SC     -0.312000
      2 C02        -2.1590    0.1420   -1.3130 c1        1 5SC     -0.003000
      3 N03        -1.7430    0.0200   -0.0240 n1        1 5SC     -0.110000
      4 N04        -2.8740   -0.0020    0.7950 n1        1 5SC     -0.119000
      5 C05        -3.9730    0.1080    0.0010 c1        1 5SC     -0.003000
      6 N06        -1.2270    0.2120   -2.3410 n1        1 5SC     -0.119000
      7 C07         0.0860    0.1580   -2.0620 c1        1 5SC      0.026000
      8 C08         0.5090    0.0340   -0.7540 c1        1 5SC     -0.209500
      9 C09        -0.4100   -0.0340    0.2600 c1        1 5SC      0.226000
     10 N10        -0.2570    0.2570    1.6710 n2        1 5SC     -0.297000
     11 C11         0.7510    0.1460   -3.3050 c1        1 5SC      0.026000
     12 C12         0.5050   -0.6380    2.5170 c3        1 5SC      0.001000
     13 C13         0.3750   -0.1930    3.9850 c1        1 5SC     -0.062000
     14 C14        -0.6870   -0.6510    4.7580 c1        1 5SC     -0.189000
     15 N15        -0.7470   -0.3440    6.0880 n2        1 5SC      0.357000
     16 C16         0.2340    0.4120    6.6590 c2        1 5SC     -0.189000
     17 C17         1.2950    0.8700    5.8920 c1        1 5SC     -0.085000
     18 C18         1.3580    0.5640    4.5580 c1        1 5SC     -0.159000
     19 C19         1.2030   -0.7980   -4.2120 c1        1 5SC     -0.020000
     20 C20         1.8850   -0.3930   -5.3540 c1        1 5SC     -0.139000
     21 C21         2.1130    0.9560   -5.5850 c1        1 5SC     -0.126000
     22 C22         1.6610    1.9000   -4.6780 c1        1 5SC     -0.126000
     23 C23         0.9780    1.4960   -3.5360 c1        1 5SC     -0.209500
     24 BR24       -5.0020    0.4440   -2.5230 br        1 5SC      0.128000
     25 C25         0.9780   -2.2700   -3.9470 c3        1 5SC     -0.186000
     26 O26        -1.8360   -0.7180    6.8250 os        1 5SC     -0.428000
     27 H05        -4.9000    0.1070    0.3030 DU        1 5SC      0.192000
     28 H08         1.4670   -0.0050   -0.5510 ha        1 5SC      0.150000
     29 HN10       -0.6100    1.0250    2.0200 hn        1 5SC      0.242000
     30 H121        1.4460   -0.6150    2.2520 h1        1 5SC      0.105000
     31 H122        0.1610   -1.5520    2.4220 h1        1 5SC      0.105000
     32 H14        -1.3890   -1.1910    4.3500 ha        1 5SC      0.189000
     33 H16         0.1890    0.6310    7.6120 h4        1 5SC      0.190000
     34 H17         1.9970    1.4120    6.3030 ha        1 5SC      0.159000
     35 H18         2.1010    0.8850    4.0200 ha        1 5SC      0.159000
     36 H20         2.2060   -1.0620   -5.9960 ha        1 5SC      0.136000
     37 H21         2.5940    1.2400   -6.3880 ha        1 5SC      0.134500
     38 H22         1.8210    2.8500   -4.8400 ha        1 5SC      0.134500
     39 H23         0.6580    2.1630   -2.8940 ha        1 5SC      0.150000
     40 H251        1.4730   -2.5370   -3.1470 hc        1 5SC      0.092333
     41 H252        1.2930   -2.7940   -4.7180 hc        1 5SC      0.092333
     42 H253        0.0240   -2.4330   -3.8100 hc        1 5SC      0.092333
@<TRIPOS>BOND
     1    1    2 1   
     2    1    5 1   
     3    2    6 1   
     4    3    9 1   
     5    4    5 1   
     6    7    8 1   
     7    8   28 1   
     8   10   12 1   
     9   10   29 1   
    10   11   23 1   
    11   12   13 1   
    12   12   30 1   
    13   12   31 1   
    14   13   18 1   
    15   14   15 1   
    16   14   32 1   
    17   15   16 1   
    18   16   17 1   
    19   16   33 1   
    20   17   34 1   
    21   18   35 1   
    22   19   20 1   
    23   19   25 1   
    24   20   36 1   
    25   21   22 1   
    26   21   37 1   
    27   22   38 1   
    28   23   39 1   
    29   25   40 1   
    30   25   41 1   
    31   25   42 1   
@<TRIPOS>SUBSTRUCTURE
     1 5SC         1 TEMP              0 ****  ****    0 ROOT
