@<TRIPOS>MOLECULE
5SC
   42    45     1     0     0
SMALL
bcc


@<TRIPOS>ATOM
      1 C01        -0.0440   -0.1320   -0.0260 cc        1 5SC     -0.270900
      2 C02         1.3770   -0.1170   -0.0660 cd        1 5SC      0.426500
      3 N03         1.7850   -0.2600    1.3180 na        1 5SC      0.005200
      4 N04         0.7310   -0.3660    2.1490 nd        1 5SC     -0.580100
      5 C05        -0.3760   -0.2880    1.3690 cc        1 5SC      0.419500
      6 N06         2.2630    0.0090   -1.1070 nd        1 5SC     -0.645000
      7 C07         3.5580   -0.0200   -0.7910 cc        1 5SC      0.541800
      8 C08         4.0490   -0.1800    0.5480 cc        1 5SC     -0.378300
      9 C09         3.1590   -0.3160    1.6230 cd        1 5SC      0.283300
     10 N10         3.5800   -0.5650    2.9300 nu        1 5SC     -0.742600
     11 C11         4.5670    0.0850   -1.8680 ca        1 5SC     -0.159500
     12 C12         4.9140   -0.1490    3.3060 c3        1 5SC      0.247100
     13 C13         5.0900   -0.0210    4.7900 ca        1 5SC     -0.068300
     14 C14         5.6430    1.1590    5.2980 ca        1 5SC     -0.214300
     15 N15         5.8760    1.3340    6.6590 na        1 5SC      0.255600
     16 C16         5.5240    0.2870    7.5080 ca        1 5SC     -0.212300
     17 C17         4.9660   -0.8930    7.0220 ca        1 5SC     -0.085000
     18 C18         4.7450   -1.0620    5.6550 ca        1 5SC     -0.159000
     19 C19         5.3460    1.2440   -2.0210 ca        1 5SC     -0.048300
     20 C20         6.3090    1.2810   -3.0380 ca        1 5SC     -0.136000
     21 C21         6.4870    0.1950   -3.8910 ca        1 5SC     -0.114000
     22 C22         5.6980   -0.9460   -3.7440 ca        1 5SC     -0.138000
     23 C23         4.7360   -0.9990   -2.7370 ca        1 5SC     -0.092000
     24 Br24       -1.2040    0.0120   -1.4220 br        1 5SC      0.003300
     25 C25         5.1480    2.4280   -1.1530 c3        1 5SC     -0.060800
     26 O26         6.3670    2.3680    7.0910 o         1 5SC     -0.278000
     27 H05        -1.3790   -0.3410    1.8000 h4        1 5SC      0.063800
     28 H08         5.1330   -0.2210    0.7100 ha        1 5SC      0.165000
     29 HN10        2.8930   -0.5140    3.6540 hn        1 5SC      0.447800
     30 H121        5.6360   -0.9360    2.9310 h1        1 5SC      0.064700
     31 H122        5.1870    0.8270    2.8040 h1        1 5SC      0.064700
     32 H14         5.9290    2.0120    4.6580 h4        1 5SC      0.189000
     33 H16         5.7180    0.4630    8.5800 h4        1 5SC      0.190000
     34 H17         4.7070   -1.6890    7.7380 ha        1 5SC      0.159000
     35 H18         4.3150   -1.9970    5.2680 ha        1 5SC      0.159000
     36 H20         6.9260    2.1840   -3.1650 ha        1 5SC      0.135000
     37 H21         7.2460    0.2390   -4.6850 ha        1 5SC      0.134000
     38 H22         5.8290   -1.8010   -4.4230 ha        1 5SC      0.136000
     39 H23         4.1010   -1.8920   -2.6260 ha        1 5SC      0.144000
     40 H251        4.2330    2.9870   -1.4770 hc        1 5SC      0.049367
     41 H252        6.0220    3.1220   -1.2110 hc        1 5SC      0.049367
     42 H253        5.0090    2.1200   -0.0870 hc        1 5SC      0.049367
@<TRIPOS>BOND
     1    1    2 2   
     2    1    5 1   
     3    1   24 1   
     4    2    3 1   
     5    2    6 1   
     6    3    4 1   
     7    3    9 1   
     8    4    5 2   
     9    5   27 1   
    10    6    7 2   
    11    7    8 1   
    12    7   11 1   
    13    8    9 2   
    14    8   28 1   
    15    9   10 1   
    16   10   12 1   
    17   10   29 1   
    18   11   19 ar  
    19   11   23 ar  
    20   12   13 1   
    21   12   30 1   
    22   12   31 1   
    23   13   14 ar  
    24   13   18 ar  
    25   14   15 2   
    26   14   32 1   
    27   15   16 1   
    28   15   26 1   
    29   16   17 ar  
    30   16   33 1   
    31   17   18 ar  
    32   17   34 1   
    33   18   35 1   
    34   19   20 ar  
    35   19   25 1   
    36   20   21 ar  
    37   20   36 1   
    38   21   22 ar  
    39   21   37 1   
    40   22   23 ar  
    41   22   38 1   
    42   23   39 1   
    43   25   40 1   
    44   25   41 1   
    45   25   42 1   
@<TRIPOS>SUBSTRUCTURE
     1 5SC         1 TEMP              0 ****  ****    0 ROOT
