@<TRIPOS>MOLECULE
5SC
   42    45     1     0     0
SMALL
bcc


@<TRIPOS>ATOM
      1 C01        -0.0510   -0.0580   -0.0190 cc        1 5SC     -0.270900
      2 C02         1.3710   -0.0680   -0.0620 cd        1 5SC      0.426500
      3 N03         1.7790   -0.2220    1.3220 na        1 5SC      0.005200
      4 N04         0.7240   -0.3100    2.1540 nd        1 5SC     -0.580100
      5 C05        -0.3830   -0.2110    1.3760 cc        1 5SC      0.419500
      6 N06         2.2570    0.0440   -1.1040 nd        1 5SC     -0.645000
      7 C07         3.5510   -0.0090   -0.7910 cc        1 5SC      0.541800
      8 C08         4.0420   -0.1810    0.5470 cc        1 5SC     -0.378300
      9 C09         3.1520   -0.3020    1.6240 cd        1 5SC      0.283300
     10 N10         3.5710   -0.5620    2.9290 nh        1 5SC     -0.742600
     11 C11         4.5610    0.0800   -1.8690 ca        1 5SC     -0.159500
     12 C12         4.9120   -0.1670    3.3040 c3        1 5SC      0.247100
     13 C13         5.0900   -0.0370    4.7880 ca        1 5SC     -0.069300
     14 C14         5.6620    1.1360    5.2930 ca        1 5SC     -0.214300
     15 N15         5.8980    1.3110    6.6530 na        1 5SC      0.255600
     16 C16         5.5290    0.2710    7.5050 ca        1 5SC     -0.212300
     17 C17         4.9530   -0.9020    7.0220 ca        1 5SC     -0.085000
     18 C18         4.7290   -1.0710    5.6560 ca        1 5SC     -0.159000
     19 C19         5.3610    1.2250   -2.0200 ca        1 5SC     -0.049300
     20 C20         6.3220    1.2470   -3.0390 ca        1 5SC     -0.136000
     21 C21         6.4780    0.1600   -3.8960 ca        1 5SC     -0.114000
     22 C22         5.6680   -0.9660   -3.7500 ca        1 5SC     -0.138000
     23 C23         4.7070   -1.0040   -2.7420 ca        1 5SC     -0.092000
     24 BR24       -1.2100    0.1090   -1.4130 br        1 5SC      0.003300
     25 C25         5.1870    2.4100   -1.1480 c3        1 5SC     -0.060800
     26 O26         6.4050    2.3370    7.0820 o         1 5SC     -0.278000
     27 H05        -1.3860   -0.2470    1.8100 h4        1 5SC      0.063800
     28 H08         5.1260   -0.2420    0.7070 ha        1 5SC      0.165000
     29 HN10        2.8860   -0.5010    3.6550 hn        1 5SC      0.447800
     30 H121        5.6200   -0.9670    2.9310 h1        1 5SC      0.064700
     31 H122        5.2010    0.8030    2.7990 h1        1 5SC      0.064700
     32 H14         5.9610    1.9820    4.6510 h4        1 5SC      0.189000
     33 H16         5.7270    0.4480    8.5770 h4        1 5SC      0.190000
     34 H17         4.6810   -1.6910    7.7400 ha        1 5SC      0.159000
     35 H18         4.2840   -2.0000    5.2710 ha        1 5SC      0.159000
     36 H20         6.9550    2.1390   -3.1650 ha        1 5SC      0.135000
     37 H21         7.2370    0.1930   -4.6910 ha        1 5SC      0.134000
     38 H22         5.7810   -1.8210   -4.4320 ha        1 5SC      0.137000
     39 H23         4.0560   -1.8850   -2.6320 ha        1 5SC      0.144000
     40 H251        5.0450    2.1010   -0.0820 hc        1 5SC      0.049367
     41 H252        4.2820    2.9860   -1.4680 hc        1 5SC      0.049367
     42 H253        6.0740    3.0880   -1.2060 hc        1 5SC      0.049367
@<TRIPOS>BOND
     1    1    2 2   
     2    1    5 1   
     3    1   24 1   
     4    2    3 1   
     5    2    6 1   
     6    3    4 1   
     7    3    9 1   
     8    4    5 2   
     9    5   27 1   
    10    6    7 2   
    11    7    8 1   
    12    7   11 1   
    13    8    9 2   
    14    8   28 1   
    15    9   10 1   
    16   10   12 1   
    17   10   29 1   
    18   11   19 ar  
    19   11   23 ar  
    20   12   13 1   
    21   12   30 1   
    22   12   31 1   
    23   13   14 ar  
    24   13   18 ar  
    25   14   15 2   
    26   14   32 1   
    27   15   16 1   
    28   15   26 1   
    29   16   17 ar  
    30   16   33 1   
    31   17   18 ar  
    32   17   34 1   
    33   18   35 1   
    34   19   20 ar  
    35   19   25 1   
    36   20   21 ar  
    37   20   36 1   
    38   21   22 ar  
    39   21   37 1   
    40   22   23 ar  
    41   22   38 1   
    42   23   39 1   
    43   25   40 1   
    44   25   41 1   
    45   25   42 1   
@<TRIPOS>SUBSTRUCTURE
     1 5SC         1 TEMP              0 ****  ****    0 ROOT
