@<TRIPOS>MOLECULE
5SD
   49    52     1     0     0
SMALL
bcc


@<TRIPOS>ATOM
      1 C1          0.0820   -0.0290    0.0060 c3        1 5SD     -0.068400
      2 C2          1.5580    0.2440    0.2000 c3        1 5SD     -0.181400
      3 C3          1.9730    0.2240    1.6430 c         1 5SD      0.570100
      4 O3          2.7400    1.0690    2.1150 o         1 5SD     -0.533100
      5 C4          1.4330   -0.9090    2.4670 c3        1 5SD     -0.179400
      6 C5         -0.0550   -1.1040    2.2380 c3        1 5SD     -0.051700
      7 C6         -0.5760   -2.2570    3.0800 c3        1 5SD     -0.073400
      8 C7         -2.0790   -2.3670    2.9550 c3        1 5SD     -0.074400
      9 C8         -2.5010   -2.5150    1.5030 c3        1 5SD     -0.046700
     10 C9         -1.9470   -1.3590    0.6490 c3        1 5SD     -0.049700
     11 C10        -0.4080   -1.2790    0.7470 c3        1 5SD     -0.039000
     12 C11        -2.4420   -1.4220   -0.7920 c3        1 5SD     -0.076400
     13 C12        -3.9490   -1.5850   -0.9270 c3        1 5SD     -0.056400
     14 C13        -4.4360   -2.7540   -0.0930 c3        1 5SD     -0.152000
     15 C14        -4.0090   -2.4910    1.3690 c3        1 5SD     -0.064700
     16 C15        -4.8690   -3.4420    2.1940 c3        1 5SD     -0.072400
     17 C16        -6.2080   -3.4720    1.4520 c3        1 5SD     -0.188400
     18 C17        -5.9450   -2.9220    0.0630 c         1 5SD      0.577100
     19 O17        -6.8010   -2.6730   -0.7800 o         1 5SD     -0.519100
     20 C18        -3.9250   -4.0710   -0.6620 c3        1 5SD     -0.083100
     21 C19         0.2540   -2.5070    0.1430 c3        1 5SD     -0.086100
     22 H1C1       -0.5090    0.8580    0.3580 hc        1 5SD      0.049200
     23 H1C2       -0.1100   -0.1490   -1.0930 hc        1 5SD      0.049200
     24 H2C1        2.1660   -0.5340   -0.3370 hc        1 5SD      0.070200
     25 H2C2        1.8150    1.2390   -0.2510 hc        1 5SD      0.070200
     26 H4C1        1.9990   -1.8410    2.2020 hc        1 5SD      0.070700
     27 H4C2        1.6180   -0.7040    3.5560 hc        1 5SD      0.070700
     28 H5         -0.5760   -0.1640    2.5870 hc        1 5SD      0.053700
     29 H6C1       -0.3010   -2.0850    4.1540 hc        1 5SD      0.044700
     30 H6C2       -0.0900   -3.2150    2.7600 hc        1 5SD      0.044700
     31 H7C1       -2.5620   -1.4550    3.3960 hc        1 5SD      0.043200
     32 H7C2       -2.4450   -3.2540    3.5370 hc        1 5SD      0.043200
     33 H8         -2.1060   -3.4940    1.1160 hc        1 5SD      0.057700
     34 H9         -2.3490   -0.4010    1.0940 hc        1 5SD      0.047700
     35 H111       -2.1510   -0.4720   -1.3150 hc        1 5SD      0.043700
     36 H112       -1.9330   -2.2650   -1.3280 hc        1 5SD      0.043700
     37 H121       -4.4650   -0.6470   -0.5950 hc        1 5SD      0.052200
     38 H122       -4.2110   -1.7500   -2.0050 hc        1 5SD      0.052200
     39 H14        -4.3470   -1.4440    1.6350 hc        1 5SD      0.051700
     40 H151       -4.9900   -3.0740    3.2410 hc        1 5SD      0.049700
     41 H152       -4.4120   -4.4620    2.2380 hc        1 5SD      0.049700
     42 H161       -6.6130   -4.5110    1.3760 hc        1 5SD      0.074700
     43 H162       -6.9730   -2.8390    1.9680 hc        1 5SD      0.074700
     44 H181       -4.2000   -4.9200    0.0090 hc        1 5SD      0.043700
     45 H182       -2.8150   -4.0580   -0.7780 hc        1 5SD      0.043700
     46 H183       -4.3820   -4.2430   -1.6670 hc        1 5SD      0.043700
     47 H191        1.3570   -2.4860    0.3170 hc        1 5SD      0.037033
     48 H192       -0.1490   -3.4470    0.5890 hc        1 5SD      0.037033
     49 H193        0.0830   -2.5370   -0.9610 hc        1 5SD      0.037033
@<TRIPOS>BOND
     1    1    2 1   
     2    1   11 1   
     3    1   22 1   
     4    1   23 1   
     5    2    3 1   
     6    2   24 1   
     7    2   25 1   
     8    3    4 2   
     9    3    5 1   
    10    5    6 1   
    11    5   26 1   
    12    5   27 1   
    13    6    7 1   
    14    6   11 1   
    15    6   28 1   
    16    7    8 1   
    17    7   29 1   
    18    7   30 1   
    19    8    9 1   
    20    8   31 1   
    21    8   32 1   
    22    9   10 1   
    23    9   15 1   
    24    9   33 1   
    25   10   11 1   
    26   10   12 1   
    27   10   34 1   
    28   11   21 1   
    29   12   13 1   
    30   12   35 1   
    31   12   36 1   
    32   13   14 1   
    33   13   37 1   
    34   13   38 1   
    35   14   15 1   
    36   14   18 1   
    37   14   20 1   
    38   15   16 1   
    39   15   39 1   
    40   16   17 1   
    41   16   40 1   
    42   16   41 1   
    43   17   18 1   
    44   17   42 1   
    45   17   43 1   
    46   18   19 2   
    47   20   44 1   
    48   20   45 1   
    49   20   46 1   
    50   21   47 1   
    51   21   48 1   
    52   21   49 1   
@<TRIPOS>SUBSTRUCTURE
     1 5SD         1 TEMP              0 ****  ****    0 ROOT
