@<TRIPOS>MOLECULE
5SD
   49    52     1     0     0
SMALL
bcc


@<TRIPOS>ATOM
      1 C1          1.4960    0.4280    2.4180 c3        1 5SD     -0.068400
      2 C2          1.4420    0.1290    3.9010 c3        1 5SD     -0.181400
      3 C3          0.0900    0.3850    4.5020 c         1 5SD      0.570100
      4 O3         -0.0450    0.9500    5.5910 o         1 5SD     -0.533100
      5 C4         -1.0860   -0.1230    3.7170 c3        1 5SD     -0.179400
      6 C5         -0.9720    0.2370    2.2470 c3        1 5SD     -0.051700
      7 C6         -2.1700   -0.2910    1.4760 c3        1 5SD     -0.073400
      8 C7         -2.1260    0.1800    0.0400 c3        1 5SD     -0.074400
      9 C8         -0.8220   -0.2220   -0.6300 c3        1 5SD     -0.046700
     10 C9          0.3890    0.2930    0.1700 c3        1 5SD     -0.049700
     11 C10         0.3600   -0.2280    1.6240 c3        1 5SD     -0.039000
     12 C11         1.7090   -0.0030   -0.5340 c3        1 5SD     -0.076400
     13 C12         1.7450    0.4210   -1.9950 c3        1 5SD     -0.056400
     14 C13         0.5490   -0.1360   -2.7430 c3        1 5SD     -0.152000
     15 C14        -0.7240    0.3650   -2.0220 c3        1 5SD     -0.064700
     16 C15        -1.8450    0.1420   -3.0320 c3        1 5SD     -0.072400
     17 C16        -1.1890    0.4290   -4.3860 c3        1 5SD     -0.188400
     18 C17         0.3100    0.3730   -4.1610 c         1 5SD      0.577100
     19 O17         1.1670    0.6750   -4.9850 o         1 5SD     -0.519100
     20 C18         0.6440   -1.6530   -2.8530 c3        1 5SD     -0.083100
     21 C19         0.5210   -1.7380    1.6790 c3        1 5SD     -0.086100
     22 H1C1        2.4820    0.0660    2.0250 hc        1 5SD      0.049200
     23 H1C2        1.4560    1.5380    2.2620 hc        1 5SD      0.049200
     24 H2C1        1.6930   -0.9520    4.0830 hc        1 5SD      0.070200
     25 H2C2        2.2130    0.7460    4.4340 hc        1 5SD      0.070200
     26 H4C1       -1.1430   -1.2360    3.8490 hc        1 5SD      0.070700
     27 H4C2       -2.0330    0.3110    4.1350 hc        1 5SD      0.070700
     28 H5         -0.9890    1.3640    2.1740 hc        1 5SD      0.053700
     29 H6C1       -2.1870   -1.4120    1.5150 hc        1 5SD      0.044700
     30 H6C2       -3.1140    0.0740    1.9610 hc        1 5SD      0.044700
     31 H7C1       -2.9840   -0.2610   -0.5320 hc        1 5SD      0.043200
     32 H7C2       -2.2380    1.2960    0.0060 hc        1 5SD      0.043200
     33 H8         -0.7860   -1.3430   -0.6930 hc        1 5SD      0.057700
     34 H9          0.2900    1.4170    0.2270 hc        1 5SD      0.047700
     35 H111        2.5330    0.5400    0.0010 hc        1 5SD      0.043700
     36 H112        1.9350   -1.0990   -0.4660 hc        1 5SD      0.043700
     37 H121        1.7420    1.5400   -2.0670 hc        1 5SD      0.052200
     38 H122        2.6940    0.0560   -2.4670 hc        1 5SD      0.052200
     39 H14        -0.6220    1.4860   -1.9020 hc        1 5SD      0.051700
     40 H151       -2.2250   -0.9070   -2.9850 hc        1 5SD      0.049700
     41 H152       -2.7040    0.8290   -2.8410 hc        1 5SD      0.049700
     42 H161       -1.4840   -0.3280   -5.1540 hc        1 5SD      0.074700
     43 H162       -1.4750    1.4400   -4.7700 hc        1 5SD      0.074700
     44 H181        0.7820   -2.1230   -1.8510 hc        1 5SD      0.043700
     45 H182       -0.2840   -2.0700   -3.3130 hc        1 5SD      0.043700
     46 H183        1.5180   -1.9240   -3.4940 hc        1 5SD      0.043700
     47 H191        0.3910   -2.1100    2.7240 hc        1 5SD      0.037033
     48 H192       -0.2290   -2.2510    1.0320 hc        1 5SD      0.037033
     49 H193        1.5430   -2.0320    1.3360 hc        1 5SD      0.037033
@<TRIPOS>BOND
     1    1    2 1   
     2    1   11 1   
     3    1   22 1   
     4    1   23 1   
     5    2    3 1   
     6    2   24 1   
     7    2   25 1   
     8    3    4 2   
     9    3    5 1   
    10    5    6 1   
    11    5   26 1   
    12    5   27 1   
    13    6    7 1   
    14    6   11 1   
    15    6   28 1   
    16    7    8 1   
    17    7   29 1   
    18    7   30 1   
    19    8    9 1   
    20    8   31 1   
    21    8   32 1   
    22    9   10 1   
    23    9   15 1   
    24    9   33 1   
    25   10   11 1   
    26   10   12 1   
    27   10   34 1   
    28   11   21 1   
    29   12   13 1   
    30   12   35 1   
    31   12   36 1   
    32   13   14 1   
    33   13   37 1   
    34   13   38 1   
    35   14   15 1   
    36   14   18 1   
    37   14   20 1   
    38   15   16 1   
    39   15   39 1   
    40   16   17 1   
    41   16   40 1   
    42   16   41 1   
    43   17   18 1   
    44   17   42 1   
    45   17   43 1   
    46   18   19 2   
    47   20   44 1   
    48   20   45 1   
    49   20   46 1   
    50   21   47 1   
    51   21   48 1   
    52   21   49 1   
@<TRIPOS>SUBSTRUCTURE
     1 5SD         1 TEMP              0 ****  ****    0 ROOT
