@<TRIPOS>MOLECULE
5SD
   49    52     1     0     0
SMALL
bcc


@<TRIPOS>ATOM
      1 C1          0.0670   -0.0160   -0.0040 c3        1 5SD     -0.068400
      2 C2          1.5420    0.2640    0.1810 c3        1 5SD     -0.181400
      3 C3          1.9670    0.2440    1.6210 c         1 5SD      0.570100
      4 O3          2.7320    1.0930    2.0890 o         1 5SD     -0.533100
      5 C4          1.4370   -0.8920    2.4470 c3        1 5SD     -0.179400
      6 C5         -0.0510   -1.0950    2.2270 c3        1 5SD     -0.051700
      7 C6         -0.5610   -2.2510    3.0710 c3        1 5SD     -0.073400
      8 C7         -2.0650   -2.3680    2.9550 c3        1 5SD     -0.074400
      9 C8         -2.4940   -2.5160    1.5050 c3        1 5SD     -0.046700
     10 C9         -1.9510   -1.3570    0.6490 c3        1 5SD     -0.049700
     11 C10        -0.4120   -1.2690    0.7380 c3        1 5SD     -0.039000
     12 C11        -2.4550   -1.4210   -0.7890 c3        1 5SD     -0.076400
     13 C12        -3.9620   -1.5910   -0.9150 c3        1 5SD     -0.056400
     14 C13        -4.4380   -2.7630   -0.0790 c3        1 5SD     -0.152000
     15 C14        -4.0030   -2.4990    1.3810 c3        1 5SD     -0.064700
     16 C15        -4.8540   -3.4560    2.2100 c3        1 5SD     -0.072400
     17 C16        -6.1970   -3.4920    1.4760 c3        1 5SD     -0.188400
     18 C17        -5.9450   -2.9390    0.0860 c         1 5SD      0.577100
     19 O17        -6.8080   -2.6930   -0.7520 o         1 5SD     -0.519100
     20 C18        -3.9240   -4.0770   -0.6530 c3        1 5SD     -0.083100
     21 C19         0.2520   -2.4930    0.1280 c3        1 5SD     -0.086100
     22 H1C1       -0.5260    0.8680    0.3520 hc        1 5SD      0.049200
     23 H1C2       -0.1310   -0.1350   -1.1020 hc        1 5SD      0.049200
     24 H2C1        1.7920    1.2610   -0.2710 hc        1 5SD      0.070200
     25 H2C2        2.1510   -0.5110   -0.3610 hc        1 5SD      0.070200
     26 H4C1        2.0060   -1.8210    2.1780 hc        1 5SD      0.070700
     27 H4C2        1.6280   -0.6880    3.5350 hc        1 5SD      0.070700
     28 H5         -0.5750   -0.1570    2.5800 hc        1 5SD      0.053700
     29 H6C1       -0.0730   -3.2060    2.7460 hc        1 5SD      0.044700
     30 H6C2       -0.2810   -2.0790    4.1440 hc        1 5SD      0.044700
     31 H7C1       -2.5490   -1.4590    3.4000 hc        1 5SD      0.043200
     32 H7C2       -2.4230   -3.2570    3.5380 hc        1 5SD      0.043200
     33 H8         -2.0970   -3.4930    1.1150 hc        1 5SD      0.057700
     34 H9         -2.3560   -0.4010    1.0980 hc        1 5SD      0.047700
     35 H111       -1.9450   -2.2600   -1.3290 hc        1 5SD      0.043700
     36 H112       -2.1730   -0.4680   -1.3120 hc        1 5SD      0.043700
     37 H121       -4.2300   -1.7550   -1.9910 hc        1 5SD      0.052200
     38 H122       -4.4810   -0.6560   -0.5780 hc        1 5SD      0.052200
     39 H14        -4.3450   -1.4550    1.6500 hc        1 5SD      0.051700
     40 H151       -4.3910   -4.4730    2.2500 hc        1 5SD      0.049700
     41 H152       -4.9710   -3.0900    3.2580 hc        1 5SD      0.049700
     42 H161       -6.9620   -2.8640    1.9970 hc        1 5SD      0.074700
     43 H162       -6.5980   -4.5330    1.4010 hc        1 5SD      0.074700
     44 H181       -4.1900   -4.9280    0.0190 hc        1 5SD      0.043700
     45 H182       -2.8150   -4.0580   -0.7750 hc        1 5SD      0.043700
     46 H183       -4.3860   -4.2500   -1.6560 hc        1 5SD      0.043700
     47 H191        1.3560   -2.4660    0.2960 hc        1 5SD      0.037033
     48 H192        0.0740   -2.5230   -0.9740 hc        1 5SD      0.037033
     49 H193       -0.1430   -3.4350    0.5760 hc        1 5SD      0.037033
@<TRIPOS>BOND
     1    1    2 1   
     2    1   11 1   
     3    1   22 1   
     4    1   23 1   
     5    2    3 1   
     6    2   24 1   
     7    2   25 1   
     8    3    4 2   
     9    3    5 1   
    10    5    6 1   
    11    5   26 1   
    12    5   27 1   
    13    6    7 1   
    14    6   11 1   
    15    6   28 1   
    16    7    8 1   
    17    7   29 1   
    18    7   30 1   
    19    8    9 1   
    20    8   31 1   
    21    8   32 1   
    22    9   10 1   
    23    9   15 1   
    24    9   33 1   
    25   10   11 1   
    26   10   12 1   
    27   10   34 1   
    28   11   21 1   
    29   12   13 1   
    30   12   35 1   
    31   12   36 1   
    32   13   14 1   
    33   13   37 1   
    34   13   38 1   
    35   14   15 1   
    36   14   18 1   
    37   14   20 1   
    38   15   16 1   
    39   15   39 1   
    40   16   17 1   
    41   16   40 1   
    42   16   41 1   
    43   17   18 1   
    44   17   42 1   
    45   17   43 1   
    46   18   19 2   
    47   20   44 1   
    48   20   45 1   
    49   20   46 1   
    50   21   47 1   
    51   21   48 1   
    52   21   49 1   
@<TRIPOS>SUBSTRUCTURE
     1 5SD         1 TEMP              0 ****  ****    0 ROOT
