@<TRIPOS>MOLECULE
5SE
   36    37     1     0     0
SMALL
bcc


@<TRIPOS>ATOM
      1 P           2.8880   -1.5930   -0.7300 p5        1 5SE      1.344900
      2 N1         -1.2100    1.7280    0.1730 n         1 5SE     -0.366000
      3 C2         -2.4370    2.3830    0.5530 c         1 5SE      0.825900
      4 O2         -2.5000    3.6370    0.4910 o         1 5SE     -0.685500
      5 N3         -3.5350    1.6410    0.9950 nc        1 5SE     -0.770100
      6 C4         -3.4210    0.2990    1.0520 cd        1 5SE      0.751500
      7 N4         -4.4650   -0.4370    1.6050 nh        1 5SE     -0.919800
      8 C5         -2.2330   -0.4040    0.5950 cd        1 5SE     -0.324000
      9 C6         -1.1440    0.3640    0.1950 cc        1 5SE      0.126600
     10 C1'        -0.0830    2.5710   -0.2700 c3        1 5SE      0.290500
     11 OP3         1.4960   -1.4620   -0.1300 o         1 5SE     -0.927833
     12 C2'         1.1400    2.5190    0.6670 c3        1 5SE     -0.118400
     13 OP2         3.2530   -2.9130   -1.3230 o         1 5SE     -0.927833
     14 C3'         2.1210    1.5950   -0.0530 c3        1 5SE      0.106100
     15 O3'         3.4420    2.0620    0.1010 oh        1 5SE     -0.656800
     16 C4'         1.6800    1.6140   -1.5320 c3        1 5SE      0.064100
     17 O4'         0.3540    2.1980   -1.5770 os        1 5SE     -0.440600
     18 C5'         1.6150    0.2220   -2.2040 c3        1 5SE      0.227400
     19 O5'         2.7690   -0.4960   -2.0630 os        1 5SE     -0.568200
     20 CA5        -0.9160   -2.7310    1.3210 c3        1 5SE     -0.074000
     21 SE5        -2.3060   -2.0910    0.4580 ss        1 5SE     -0.290700
     22 HN4        -5.3600   -0.0140    1.6530 hn        1 5SE      0.415800
     23 HN4A       -4.4330   -1.4170    1.4280 hn        1 5SE      0.415800
     24 H6         -0.1620   -0.1390   -0.0890 h4        1 5SE      0.291000
     25 H1'        -0.4880    3.6210   -0.3790 h2        1 5SE      0.091700
     26 H2'         1.5640    3.5480    0.7700 hc        1 5SE      0.050700
     27 H2'A        0.8970    2.1340    1.6830 hc        1 5SE      0.050700
     28 H3'         2.0450    0.5260    0.3360 h1        1 5SE      0.149700
     29 HO3'        3.9980    1.2510    0.0800 ho        1 5SE      0.483000
     30 H4'         2.3360    2.3040   -2.1250 h1        1 5SE      0.042700
     31 H5'         0.7280   -0.3410   -1.8000 h1        1 5SE     -0.002800
     32 H5'A        1.4390    0.4130   -3.3050 h1        1 5SE     -0.002800
     33 HA5         0.0510   -2.2720    0.9550 h1        1 5SE      0.091700
     34 HA5A       -1.0090   -2.5880    2.4180 h1        1 5SE      0.091700
     35 HA5B       -0.9000   -3.8160    1.0770 h1        1 5SE      0.091700
     36 OP1         3.8980   -0.8170    0.0770 o         1 5SE     -0.927833
@<TRIPOS>BOND
     1    1   11 1   
     2    1   13 1   
     3    1   19 1   
     4    1   36 1   
     5    2    3 1   
     6    2    9 1   
     7    2   10 1   
     8    3    4 2   
     9    3    5 1   
    10    5    6 2   
    11    6    7 1   
    12    6    8 1   
    13    7   22 1   
    14    7   23 1   
    15    8    9 2   
    16    8   21 1   
    17    9   24 1   
    18   10   12 1   
    19   10   17 1   
    20   10   25 1   
    21   12   14 1   
    22   12   26 1   
    23   12   27 1   
    24   14   15 1   
    25   14   16 1   
    26   14   28 1   
    27   15   29 1   
    28   16   17 1   
    29   16   18 1   
    30   16   30 1   
    31   18   19 1   
    32   18   31 1   
    33   18   32 1   
    34   20   21 1   
    35   20   33 1   
    36   20   34 1   
    37   20   35 1   
@<TRIPOS>SUBSTRUCTURE
     1 5SE         1 TEMP              0 ****  ****    0 ROOT
