@<TRIPOS>MOLECULE
5SE
   36    35     1     0     0
SMALL
bcc


@<TRIPOS>ATOM
      1 P           2.8810   -2.3670    2.4590 p3        1 5SE      2.516000
      2 N1         -0.6290   -0.2350   -1.1830 n         1 5SE     -0.256000
      3 C2         -1.1090   -1.5420   -0.7250 c2        1 5SE      0.343000
      4 O2         -0.5250   -2.5560   -1.0620 o         1 5SE     -0.412000
      5 N3         -2.3300   -1.6330    0.0830 n2        1 5SE     -0.333000
      6 C4         -3.1330   -0.4800    0.2920 c1        1 5SE      0.211000
      7 N4         -4.4450   -0.6140    0.8420 n2        1 5SE     -0.338000
      8 C5         -2.6570    0.8360   -0.1640 c2        1 5SE     -0.444000
      9 C6         -1.3610    0.9440   -0.8610 c2        1 5SE      0.087000
     10 C1'         0.4910   -0.1590   -2.0840 c3        1 5SE      0.143000
     11 OP3         2.8990   -3.6640    1.6840 o         1 5SE     -1.238000
     12 C2'         1.4470    1.0440   -1.6760 c3        1 5SE     -0.198000
     13 OP2         4.1030   -2.2950    3.3490 o         1 5SE     -1.238000
     14 C3'         2.7180    0.3720   -1.0320 c3        1 5SE      0.011000
     15 O3'         3.8680    0.4540   -1.9630 oh        1 5SE     -0.386000
     16 C4'         2.3850   -0.8580   -0.8410 c3        1 5SE     -0.047000
     17 O4'         1.2150   -1.2090   -1.9830 os        1 5SE     -0.297000
     18 C5'         1.8330   -1.0310    0.5220 c3        1 5SE      0.056000
     19 O5'         2.8910   -1.1450    1.4470 o         1 5SE     -0.749000
     20 CA5        -3.4230    3.3770    1.5230 c3        1 5SE     -0.365000
     21 SE5        -3.8240    2.3640   -0.0660 ss        1 5SE      0.111000
     22 HN4        -4.7460   -1.4370    1.1140 hn        1 5SE      0.202000
     23 HN4A       -4.9940    0.1180    0.9010 hn        1 5SE      0.202000
     24 H6         -1.0420    1.8150   -1.1650 h4        1 5SE      0.265000
     25 H1'         0.1800   -0.0480   -3.0020 h2        1 5SE      0.130000
     26 H2'         1.0050    1.6210   -1.0260 hc        1 5SE      0.091500
     27 H2'A        1.7010    1.5560   -2.4660 hc        1 5SE      0.091500
     28 H3'         2.9360    0.8000   -0.1840 h1        1 5SE      0.182000
     29 HO3'        4.3700    1.1580   -1.7530 ho        1 5SE      0.279000
     30 H4'         3.1590   -1.4370   -0.9650 h1        1 5SE      0.078000
     31 H5'         1.2800   -0.2530    0.7510 h1        1 5SE      0.052500
     32 H5'A        1.2850   -1.8420    0.5510 h1        1 5SE      0.052500
     33 HA5        -4.2550    3.7440    1.8950 h1        1 5SE      0.144667
     34 HA5A       -2.8130    4.1150    1.2960 h1        1 5SE      0.144667
     35 HA5B       -3.0000    2.7960    2.1830 h1        1 5SE      0.144667
     36 OP1         1.6380   -2.3070    3.3080 o         1 5SE     -1.238000
@<TRIPOS>BOND
     1    1   11 1   
     2    1   13 1   
     3    1   36 1   
     4    2    3 1   
     5    2    9 1   
     6    2   10 1   
     7    3    4 1   
     8    3    5 1   
     9    5    6 1   
    10    6    8 1   
    11    7   22 1   
    12    7   23 1   
    13    8    9 1   
    14    8   21 1   
    15    9   24 1   
    16   10   12 1   
    17   10   17 1   
    18   10   25 1   
    19   12   14 1   
    20   12   26 1   
    21   12   27 1   
    22   14   15 1   
    23   14   16 1   
    24   14   28 1   
    25   15   29 1   
    26   16   17 1   
    27   16   18 1   
    28   16   30 1   
    29   18   19 1   
    30   18   31 1   
    31   18   32 1   
    32   20   21 1   
    33   20   33 1   
    34   20   34 1   
    35   20   35 1   
@<TRIPOS>SUBSTRUCTURE
     1 5SE         1 TEMP              0 ****  ****    0 ROOT
