@<TRIPOS>MOLECULE
5SI
   48    50     1     0     0
SMALL
bcc


@<TRIPOS>ATOM
      1 N1          0.0000    0.0000    0.0000 n         1 5SI      0.295000
      2 C2          1.3660    0.0000    0.0000 cc        1 5SI     -0.155400
      3 C3          2.0850    0.0000    1.1350 cd        1 5SI     -0.273200
      4 C4          1.3940    0.0010    2.4240 ca        1 5SI     -0.001800
      5 C5         -0.0210    0.0020    2.4290 ca        1 5SI      0.015400
      6 C6         -0.7190    0.0060    1.1400 c         1 5SI      0.056000
      7 PA          0.5560   -3.9850   -5.3910 p5        1 5SI      0.964800
      8 PB         -0.2250   -6.7700   -6.0350 p5        1 5SI      1.021800
      9 PG         -0.8270   -9.5410   -5.1720 p5        1 5SI      0.861900
     10 C1'        -0.7070   -0.0000   -1.2820 c3        1 5SI      0.125500
     11 O1A         2.1030   -4.1510   -4.9780 o         1 5SI     -0.700500
     12 O1B        -1.1000   -6.5780   -7.3720 o         1 5SI     -0.648500
     13 O1G        -1.7630  -10.0740   -6.3700 o         1 5SI     -0.566167
     14 C2'        -0.3670    1.2760   -2.0840 c3        1 5SI     -0.111400
     15 O2A         0.4670   -3.5590   -6.8060 o         1 5SI     -0.700500
     16 O2B         1.1600   -7.1460   -6.4020 o         1 5SI     -0.648500
     17 O2G         0.5660   -9.9880   -5.3980 o         1 5SI     -0.566167
     18 C3'        -0.2980    0.7920   -3.5500 c3        1 5SI      0.146100
     19 O3'        -1.2840    1.4560   -4.3440 oh        1 5SI     -0.580800
     20 S36        -2.4310    0.0080    1.0830 s         1 5SI     -0.913400
     21 C37         2.0870    0.0010    3.6350 ca        1 5SI     -0.175000
     22 C38         1.3870    0.0020    4.8210 ca        1 5SI     -0.240300
     23 C39        -0.0020    0.0020    4.8240 ca        1 5SI     -0.091000
     24 O3A        -0.2040   -5.3910   -5.2040 os        1 5SI     -0.490800
     25 O3B        -0.8750   -7.9320   -5.1300 os        1 5SI     -0.469800
     26 O3G        -1.3600  -10.1310   -3.7710 o         1 5SI     -0.566167
     27 C4'        -0.6040   -0.7200   -3.4600 c3        1 5SI      0.148100
     28 O4'        -0.2450   -1.0890   -2.1110 os        1 5SI     -0.359600
     29 C40        -0.7100    0.0030    3.6420 ca        1 5SI     -0.199000
     30 C41         2.1340    0.0010    6.1290 c3        1 5SI      0.102200
     31 C5'         0.2460   -1.4960   -4.4690 c3        1 5SI      0.312400
     32 O5'        -0.1330   -2.8730   -4.4520 os        1 5SI     -0.488200
     33 H2          1.8880   -0.0050   -0.9490 h4        1 5SI      0.121000
     34 H3          3.1680    0.0000    1.0950 ha        1 5SI      0.094000
     35 H1'        -1.7770   -0.0730   -1.1290 h2        1 5SI      0.119700
     36 H2'        -1.1500    2.0160   -1.9660 hc        1 5SI      0.020200
     37 H2'A        0.5900    1.6740   -1.7720 hc        1 5SI      0.020200
     38 H3'         0.6940    0.9530   -3.9530 h1        1 5SI      0.001700
     39 HO3'       -0.8690    2.1210   -4.8680 ho        1 5SI      0.359000
     40 H37         3.1710    0.0010    3.6430 ha        1 5SI      0.077000
     41 H39        -0.5350    0.0010    5.7670 ha        1 5SI      0.058000
     42 H4'        -1.6590   -0.9000   -3.6300 h1        1 5SI      0.035700
     43 H40        -1.7930    0.0030    3.6540 ha        1 5SI      0.137000
     44 H41         2.4550   -1.0070    6.3610 hc        1 5SI     -0.029633
     45 H41A        3.0010    0.6470    6.0500 hc        1 5SI     -0.029633
     46 H41B        1.4850    0.3630    6.9160 hc        1 5SI     -0.029633
     47 H5'         0.0890   -1.0900   -5.4610 h1        1 5SI     -0.026800
     48 H5'A        1.2930   -1.4060   -4.2040 h1        1 5SI     -0.026800
@<TRIPOS>BOND
     1    1    2 1   
     2    1    6 1   
     3    1   10 1   
     4    2    3 2   
     5    2   33 1   
     6    3    4 1   
     7    3   34 1   
     8    4    5 ar  
     9    4   21 ar  
    10    5    6 1   
    11    5   29 ar  
    12    6   20 2   
    13    7   11 1   
    14    7   15 1   
    15    7   24 1   
    16    7   32 1   
    17    8   12 1   
    18    8   16 1   
    19    8   24 1   
    20    8   25 1   
    21    9   13 1   
    22    9   17 1   
    23    9   25 1   
    24    9   26 1   
    25   10   14 1   
    26   10   28 1   
    27   10   35 1   
    28   14   18 1   
    29   14   36 1   
    30   14   37 1   
    31   18   19 1   
    32   18   27 1   
    33   18   38 1   
    34   19   39 1   
    35   21   22 ar  
    36   21   40 1   
    37   22   23 ar  
    38   22   30 1   
    39   23   29 ar  
    40   23   41 1   
    41   27   28 1   
    42   27   31 1   
    43   27   42 1   
    44   29   43 1   
    45   30   44 1   
    46   30   45 1   
    47   30   46 1   
    48   31   32 1   
    49   31   47 1   
    50   31   48 1   
@<TRIPOS>SUBSTRUCTURE
     1 5SI         1 TEMP              0 ****  ****    0 ROOT
