@<TRIPOS>MOLECULE
5SP
   23    22     1     0     0
SMALL
bcc


@<TRIPOS>ATOM
      1 O1          4.4210    1.8560   -1.0890 oh        1 5SP     -0.623800
      2 C2          3.1630    1.2140   -0.9730 c3        1 5SP      0.009400
      3 C3          3.2250   -0.0690   -0.1710 c         1 5SP      0.533100
      4 O4          4.2510   -0.3360    0.4700 o         1 5SP     -0.579100
      5 C5          1.9770   -0.9180   -0.2230 c3        1 5SP      0.035100
      6 C6          0.8140   -0.1910    0.5170 c3        1 5SP      0.111100
      7 C7         -0.1880    0.3660   -0.5280 c3        1 5SP      0.207400
      8 O8         -1.2120    1.0310    0.0830 os        1 5SP     -0.556200
      9 P9         -2.7490    0.2180   -0.0780 p5        1 5SP      1.323900
     10 O10        -2.8360    0.0370   -1.5650 o         1 5SP     -0.914500
     11 O11        -2.3870   -1.0430    0.6840 o         1 5SP     -0.914500
     12 O12        -3.7160    1.1530    0.5770 o         1 5SP     -0.914500
     13 O13         2.2670   -2.2090    0.2700 oh        1 5SP     -0.620800
     14 O14         0.2380   -1.0880    1.4230 oh        1 5SP     -0.701800
     15 HO1         4.9390    1.6170   -0.3070 ho        1 5SP      0.408000
     16 H2          2.4310    1.9150   -0.4820 h1        1 5SP      0.081700
     17 H2A         2.8260    1.0080   -2.0230 h1        1 5SP      0.081700
     18 H5          1.7020   -1.0620   -1.3100 h1        1 5SP      0.067700
     19 H6          1.2450    0.6580    1.1200 h1        1 5SP      0.010700
     20 H7          0.4050    1.0750   -1.1850 h1        1 5SP     -0.005300
     21 H7A        -0.5700   -0.4850   -1.1610 h1        1 5SP     -0.005300
     22 HO13        1.7300   -2.3560    1.0650 ho        1 5SP      0.439000
     23 HO14       -0.7550   -1.1340    1.2290 ho        1 5SP      0.526000
@<TRIPOS>BOND
     1    1    2 1   
     2    1   15 1   
     3    2    3 1   
     4    2   16 1   
     5    2   17 1   
     6    3    4 2   
     7    3    5 1   
     8    5    6 1   
     9    5   13 1   
    10    5   18 1   
    11    6    7 1   
    12    6   14 1   
    13    6   19 1   
    14    7    8 1   
    15    7   20 1   
    16    7   21 1   
    17    8    9 1   
    18    9   10 1   
    19    9   11 1   
    20    9   12 1   
    21   13   22 1   
    22   14   23 1   
@<TRIPOS>SUBSTRUCTURE
     1 5SP         1 TEMP              0 ****  ****    0 ROOT
