@<TRIPOS>MOLECULE
5SP
   23    22     1     0     0
SMALL
bcc


@<TRIPOS>ATOM
      1 O1         -3.8570    0.6620   -2.1130 oh        1 5SP     -0.616800
      2 C2         -2.4470    0.6620   -2.1130 c3        1 5SP     -0.034600
      3 C3         -1.9420    0.6620   -0.6870 c         1 5SP      0.529100
      4 O4         -2.7260    0.5510    0.2340 o         1 5SP     -0.598100
      5 C5         -0.4630    0.8020   -0.4080 c3        1 5SP      0.045100
      6 C6         -0.0560   -0.1880    0.6590 c3        1 5SP      0.060100
      7 C7          1.4330   -0.4410    0.5700 c3        1 5SP      0.214400
      8 O8          1.8400   -1.2330    1.6610 os        1 5SP     -0.563200
      9 P9          3.3430   -1.7180    1.7200 p5        1 5SP      1.326900
     10 O10         4.2620   -0.5290    1.5670 o         1 5SP     -0.927167
     11 O11         3.6000   -2.6990    0.6020 o         1 5SP     -0.927167
     12 O12         3.6040   -2.3880    3.0480 o         1 5SP     -0.927167
     13 O13        -0.1900    2.1100    0.0360 oh        1 5SP     -0.606800
     14 O14        -0.3680    0.3350    1.9280 oh        1 5SP     -0.655800
     15 HO1        -4.1530    0.6730   -2.9500 ho        1 5SP      0.399000
     16 H2         -2.1210    1.4590   -2.5740 h1        1 5SP      0.145700
     17 H2A        -2.1210   -0.1350   -2.5740 h1        1 5SP      0.145700
     18 H5          0.0410    0.6250   -1.2260 h1        1 5SP      0.073700
     19 H6         -0.5370   -1.0270    0.5250 h1        1 5SP      0.087700
     20 H7          1.9090    0.4100    0.5900 h1        1 5SP     -0.004300
     21 H7A         1.6340   -0.9070   -0.2640 h1        1 5SP     -0.004300
     22 HO13        0.0800    2.6050   -0.6490 ho        1 5SP      0.410000
     23 HO14       -0.7660   -0.2900    2.4160 ho        1 5SP      0.428000
@<TRIPOS>BOND
     1    1    2 1   
     2    1   15 1   
     3    2    3 1   
     4    2   16 1   
     5    2   17 1   
     6    3    4 2   
     7    3    5 1   
     8    5    6 1   
     9    5   13 1   
    10    5   18 1   
    11    6    7 1   
    12    6   14 1   
    13    6   19 1   
    14    7    8 1   
    15    7   20 1   
    16    7   21 1   
    17    8    9 1   
    18    9   10 1   
    19    9   11 1   
    20    9   12 1   
    21   13   22 1   
    22   14   23 1   
@<TRIPOS>SUBSTRUCTURE
     1 5SP         1 TEMP              0 ****  ****    0 ROOT
