@<TRIPOS>MOLECULE
5TF
   43    46     1     0     0
SMALL
bcc


@<TRIPOS>ATOM
      1 C1         -0.0750   -0.0330   -0.0160 c3        1 5TF     -0.114100
      2 C2          1.4560   -0.0080   -0.0550 c3        1 5TF      0.199500
      3 C3          1.9820   -0.0190    1.3810 c3        1 5TF     -0.114100
      4 N4          1.9590   -1.0910   -0.8880 nh        1 5TF     -0.821900
      5 C5          3.2920   -1.1290   -1.3120 cc        1 5TF      0.618200
      6 C6          3.7540   -2.3800   -1.9350 cc        1 5TF     -0.268300
      7 C7          5.0050   -2.4510   -2.4660 cd        1 5TF     -0.008000
      8 C8          5.8360   -1.2860   -2.3950 cd        1 5TF     -0.159300
      9 N9          7.1120   -0.9910   -2.8120 nc        1 5TF     -0.052000
     10 N10         7.3860    0.2430   -2.4910 nc        1 5TF     -0.373700
     11 C11         6.3250    0.8440   -1.8470 cd        1 5TF      0.347800
     12 C12         6.2580    2.2510   -1.3350 c3        1 5TF      0.023200
     13 C13         7.3620    2.4700   -0.3110 c3        1 5TF     -0.087100
     14 C14         6.3560    3.2150   -2.4510 cc        1 5TF     -0.150400
     15 C15         7.3880    3.3220   -3.3870 cd        1 5TF     -0.064100
     16 N16         7.1370    4.3670   -4.2740 na        1 5TF     -0.286100
     17 C17         5.9110    4.9570   -3.9250 ca        1 5TF      0.417800
     18 N18         5.2820    6.0090   -4.5290 nb        1 5TF     -0.669000
     19 C19         4.1170    6.3590   -3.9720 ca        1 5TF      0.408200
     20 C20         3.5270    5.7290   -2.8450 ca        1 5TF     -0.274300
     21 C21         4.1690    4.6620   -2.2350 ca        1 5TF     -0.052000
     22 C22         5.3920    4.2420   -2.7630 ca        1 5TF     -0.183100
     23 N23         5.2900   -0.1120   -1.7600 na        1 5TF      0.113300
     24 N24         4.0810   -0.0270   -1.2180 nd        1 5TF     -0.547800
     25 H11C       -0.5030    0.0150   -1.0450 hc        1 5TF      0.045367
     26 H12C       -0.4290    0.8550    0.5600 hc        1 5TF      0.045367
     27 H13C       -0.4500   -0.9560    0.4870 hc        1 5TF      0.045367
     28 H2          1.7720    0.9640   -0.5410 h1        1 5TF      0.083700
     29 H31C        3.0960    0.0390    1.4030 hc        1 5TF      0.045367
     30 H32C        1.6600   -0.9440    1.9170 hc        1 5TF      0.045367
     31 H33C        1.5720    0.8650    1.9250 hc        1 5TF      0.045367
     32 H4          1.6060   -1.9900   -0.6340 hn        1 5TF      0.409800
     33 H6          3.0710   -3.2400   -1.9710 ha        1 5TF      0.154000
     34 H7          5.4070   -3.3550   -2.9450 ha        1 5TF      0.170000
     35 H12         5.2630    2.4090   -0.8220 hc        1 5TF      0.078700
     36 H131        7.2700    1.7300    0.5190 hc        1 5TF      0.045033
     37 H132        8.3670    2.3580   -0.7830 hc        1 5TF      0.045033
     38 H133        7.2790    3.5000    0.1120 hc        1 5TF      0.045033
     39 H15         8.2900    2.7110   -3.4860 h4        1 5TF      0.189000
     40 H16         7.6950    4.6260   -5.0450 hn        1 5TF      0.310700
     41 H19         3.6050    7.2090   -4.4580 h4        1 5TF      0.019100
     42 H20         2.5640    6.0980   -2.4700 ha        1 5TF      0.139000
     43 H21         3.7330    4.1540   -1.3630 ha        1 5TF      0.137000
@<TRIPOS>BOND
     1    1    2 1   
     2    1   25 1   
     3    1   26 1   
     4    1   27 1   
     5    2    3 1   
     6    2    4 1   
     7    2   28 1   
     8    3   29 1   
     9    3   30 1   
    10    3   31 1   
    11    4    5 1   
    12    4   32 1   
    13    5    6 1   
    14    5   24 2   
    15    6    7 2   
    16    6   33 1   
    17    7    8 1   
    18    7   34 1   
    19    8    9 2   
    20    8   23 1   
    21    9   10 1   
    22   10   11 2   
    23   11   12 1   
    24   11   23 1   
    25   12   13 1   
    26   12   14 1   
    27   12   35 1   
    28   13   36 1   
    29   13   37 1   
    30   13   38 1   
    31   14   15 2   
    32   14   22 1   
    33   15   16 1   
    34   15   39 1   
    35   16   17 1   
    36   16   40 1   
    37   17   18 ar  
    38   17   22 ar  
    39   18   19 ar  
    40   19   20 ar  
    41   19   41 1   
    42   20   21 ar  
    43   20   42 1   
    44   21   22 ar  
    45   21   43 1   
    46   23   24 1   
@<TRIPOS>SUBSTRUCTURE
     1 5TF         1 TEMP              0 ****  ****    0 ROOT
