@<TRIPOS>MOLECULE
5TF
   43    46     1     0     0
SMALL
bcc


@<TRIPOS>ATOM
      1 C1          4.0600    3.7170    0.3470 c3        1 5TF     -0.114100
      2 C2          3.4180    2.4310   -0.1820 c3        1 5TF      0.199500
      3 C3          3.7630    2.2880   -1.6650 c3        1 5TF     -0.114100
      4 N4          3.8090    1.2940    0.6390 nh        1 5TF     -0.822900
      5 C5          3.1510    0.0630    0.5440 cc        1 5TF      0.618200
      6 C6          3.7790   -1.0780    1.2310 cc        1 5TF     -0.268300
      7 C7          3.1410   -2.2790    1.2700 cd        1 5TF     -0.008000
      8 C8          1.8650   -2.3870    0.6290 cd        1 5TF     -0.159300
      9 N9          0.9540   -3.4050    0.4700 nc        1 5TF     -0.052000
     10 N10        -0.0650   -2.9570   -0.2090 nc        1 5TF     -0.373700
     11 C11         0.0970   -1.6290   -0.5440 cd        1 5TF      0.347800
     12 C12        -0.8590   -0.7670   -1.3120 c3        1 5TF      0.023200
     13 C13        -1.0950   -1.3730   -2.6870 c3        1 5TF     -0.087100
     14 C14        -2.1260   -0.6060   -0.5680 cc        1 5TF     -0.150400
     15 C15        -2.9800   -1.6190   -0.1230 cd        1 5TF     -0.064100
     16 N16        -4.0900   -1.0750    0.5220 na        1 5TF     -0.286100
     17 C17        -3.9620    0.3230    0.5150 ca        1 5TF      0.417800
     18 N18        -4.8200    1.2480    1.0410 nb        1 5TF     -0.669000
     19 C19        -4.4380    2.5200    0.8790 ca        1 5TF      0.408200
     20 C20        -3.2510    2.9420    0.2260 ca        1 5TF     -0.274300
     21 C21        -2.3840    2.0000   -0.3070 ca        1 5TF     -0.052000
     22 C22        -2.7200    0.6510   -0.1760 ca        1 5TF     -0.183100
     23 N23         1.3390   -1.2120   -0.0200 na        1 5TF      0.113300
     24 N24         1.9530   -0.0360   -0.0880 nd        1 5TF     -0.547800
     25 H11C        3.6760    4.5770   -0.2510 hc        1 5TF      0.045367
     26 H12C        3.8000    3.8830    1.4190 hc        1 5TF      0.045367
     27 H13C        5.1710    3.6830    0.2470 hc        1 5TF      0.045367
     28 H2          2.2960    2.5430   -0.0870 h1        1 5TF      0.083700
     29 H31C        3.3910    3.1860   -2.2130 hc        1 5TF      0.045367
     30 H32C        4.8660    2.2140   -1.8140 hc        1 5TF      0.045367
     31 H33C        3.2800    1.3830   -2.1050 hc        1 5TF      0.045367
     32 H4          4.7970    1.2010    0.7500 hn        1 5TF      0.409800
     33 H6          4.7550   -0.9360    1.7150 ha        1 5TF      0.154000
     34 H7          3.5560   -3.1680    1.7680 ha        1 5TF      0.170000
     35 H12        -0.4020    0.2570   -1.4500 hc        1 5TF      0.078700
     36 H131       -0.1260   -1.4880   -3.2290 hc        1 5TF      0.045033
     37 H132       -1.5790   -2.3740   -2.6000 hc        1 5TF      0.045033
     38 H133       -1.7630   -0.7030   -3.2800 hc        1 5TF      0.045033
     39 H15        -2.8660   -2.7030   -0.2190 h4        1 5TF      0.189000
     40 H16        -4.8190   -1.5790    0.9530 hn        1 5TF      0.310700
     41 H19        -5.1290    3.2710    1.3040 h4        1 5TF      0.019100
     42 H20        -3.0340    4.0150    0.1510 ha        1 5TF      0.139000
     43 H21        -1.4560    2.2980   -0.8160 ha        1 5TF      0.137000
@<TRIPOS>BOND
     1    1    2 1   
     2    1   25 1   
     3    1   26 1   
     4    1   27 1   
     5    2    3 1   
     6    2    4 1   
     7    2   28 1   
     8    3   29 1   
     9    3   30 1   
    10    3   31 1   
    11    4    5 1   
    12    4   32 1   
    13    5    6 1   
    14    5   24 2   
    15    6    7 2   
    16    6   33 1   
    17    7    8 1   
    18    7   34 1   
    19    8    9 2   
    20    8   23 1   
    21    9   10 1   
    22   10   11 2   
    23   11   12 1   
    24   11   23 1   
    25   12   13 1   
    26   12   14 1   
    27   12   35 1   
    28   13   36 1   
    29   13   37 1   
    30   13   38 1   
    31   14   15 2   
    32   14   22 1   
    33   15   16 1   
    34   15   39 1   
    35   16   17 1   
    36   16   40 1   
    37   17   18 ar  
    38   17   22 ar  
    39   18   19 ar  
    40   19   20 ar  
    41   19   41 1   
    42   20   21 ar  
    43   20   42 1   
    44   21   22 ar  
    45   21   43 1   
    46   23   24 1   
@<TRIPOS>SUBSTRUCTURE
     1 5TF         1 TEMP              0 ****  ****    0 ROOT
