@<TRIPOS>MOLECULE
5TF
   44    47     1     0     0
SMALL
bcc


@<TRIPOS>ATOM
      1 C1          0.2120    0.9090   -0.6450 c3        1 5TF     -0.137100
      2 C2          1.5180    0.1700   -0.3880 c3        1 5TF      0.139500
      3 C3          1.2610   -1.1170    0.3790 c3        1 5TF     -0.137100
      4 N4          2.2280   -0.1020   -1.7050 n4        1 5TF     -0.743700
      5 C5          3.6450   -0.4640   -1.5210 cc        1 5TF      0.414200
      6 C6          3.9990   -1.8730   -1.4950 cc        1 5TF     -0.258300
      7 C7          5.3150   -2.2110   -1.3440 cd        1 5TF      0.026000
      8 C8          6.2780   -1.1590   -1.2240 cd        1 5TF     -0.129300
      9 N9          7.6310   -1.1050   -1.0880 nc        1 5TF      0.009000
     10 N10         8.0160    0.1530   -1.0460 nc        1 5TF     -0.321700
     11 C11         6.9650    1.0180   -1.1460 cd        1 5TF      0.410800
     12 C12         6.9650    2.5190   -1.1520 c3        1 5TF      0.017200
     13 C13         8.3780    3.0550   -0.9930 c3        1 5TF     -0.090100
     14 C14         6.3180    3.0320   -2.3760 cc        1 5TF     -0.177400
     15 C15         6.7860    2.9230   -3.6900 cd        1 5TF     -0.062100
     16 N16         5.9000    3.5270   -4.5760 na        1 5TF     -0.274100
     17 C17         4.8480    4.0880   -3.8320 ca        1 5TF      0.413800
     18 N18         3.7730    4.7930   -4.2970 nb        1 5TF     -0.652000
     19 C19         2.9320    5.2220   -3.3510 ca        1 5TF      0.410200
     20 C20         3.0830    4.9930   -1.9570 ca        1 5TF     -0.276300
     21 C21         4.1680    4.2680   -1.4900 ca        1 5TF     -0.066000
     22 C22         5.0860    3.7830   -2.4260 ca        1 5TF     -0.189100
     23 N23         5.7810    0.2210   -1.2580 na        1 5TF      0.055300
     24 N24         4.5250    0.5520   -1.3950 nd        1 5TF     -0.385800
     25 H11C        0.3810    1.8790   -1.1750 hc        1 5TF      0.080367
     26 H12C       -0.2580    1.1350    0.3460 hc        1 5TF      0.080367
     27 H13C       -0.5050    0.2870   -1.2350 hc        1 5TF      0.080367
     28 H2          2.2140    0.8350    0.2090 hx        1 5TF      0.119700
     29 H31C        0.8420   -0.8480    1.3820 hc        1 5TF      0.080367
     30 H32C        2.2040   -1.6950    0.5380 hc        1 5TF      0.080367
     31 H33C        0.5170   -1.7650   -0.1470 hc        1 5TF      0.080367
     32 H4          1.7660   -0.8840   -2.1850 hn        1 5TF      0.466300
     33 H6          3.2200   -2.6420   -1.5950 ha        1 5TF      0.172000
     34 H7          5.6680   -3.2560   -1.3140 ha        1 5TF      0.204000
     35 H12         6.3560    2.8510   -0.2560 hc        1 5TF      0.082700
     36 H131        9.0210    2.7450   -1.8510 hc        1 5TF      0.060700
     37 H132        8.8360    2.6800   -0.0460 hc        1 5TF      0.060700
     38 H133        8.3420    4.1710   -0.9590 hc        1 5TF      0.060700
     39 H15         7.7010    2.4480   -4.0560 h4        1 5TF      0.186000
     40 H16         6.0500    3.6700   -5.5430 hn        1 5TF      0.323700
     41 H19         2.0710    5.8100   -3.7240 h4        1 5TF      0.035100
     42 H20         2.3460    5.4190   -1.2630 ha        1 5TF      0.148000
     43 H21         4.3200    4.0940   -0.4150 ha        1 5TF      0.137000
     44 H42         2.1510    0.7390   -2.2960 hn        1 5TF      0.466300
@<TRIPOS>BOND
     1    1    2 1   
     2    1   25 1   
     3    1   26 1   
     4    1   27 1   
     5    2    3 1   
     6    2    4 1   
     7    2   28 1   
     8    3   29 1   
     9    3   30 1   
    10    3   31 1   
    11    4    5 1   
    12    4   32 1   
    13    4   44 1   
    14    5    6 1   
    15    5   24 2   
    16    6    7 2   
    17    6   33 1   
    18    7    8 1   
    19    7   34 1   
    20    8    9 2   
    21    8   23 1   
    22    9   10 1   
    23   10   11 2   
    24   11   12 1   
    25   11   23 1   
    26   12   13 1   
    27   12   14 1   
    28   12   35 1   
    29   13   36 1   
    30   13   37 1   
    31   13   38 1   
    32   14   15 2   
    33   14   22 1   
    34   15   16 1   
    35   15   39 1   
    36   16   17 1   
    37   16   40 1   
    38   17   18 ar  
    39   17   22 ar  
    40   18   19 ar  
    41   19   20 ar  
    42   19   41 1   
    43   20   21 ar  
    44   20   42 1   
    45   21   22 ar  
    46   21   43 1   
    47   23   24 1   
@<TRIPOS>SUBSTRUCTURE
     1 5TF         1 TEMP              0 ****  ****    0 ROOT
