@<TRIPOS>MOLECULE
5TF
   43    37     1     0     0
SMALL
bcc


@<TRIPOS>ATOM
      1 C1         -3.9590   -1.4010    3.1480 c3        1 5TF     -0.232000
      2 C2         -3.0620   -2.5420    2.6930 c3        1 5TF      0.002000
      3 C3         -3.5910   -3.8410    3.2560 c3        1 5TF     -0.232000
      4 N4         -3.0480   -2.6030    1.2740 n3        1 5TF     -0.267000
      5 C5         -1.8080   -2.4360    0.5650 c2        1 5TF      0.097000
      6 C6         -1.5400   -3.5340   -0.2530 c2        1 5TF     -0.203000
      7 C7         -0.5440   -3.4690   -1.1630 c1        1 5TF     -0.008000
      8 C8          0.2230   -2.2890   -1.2850 c1        1 5TF     -0.135000
      9 N9          1.2800   -1.9650   -2.0870 n1        1 5TF     -0.052000
     10 N10         1.6610   -0.7180   -1.7870 n2        1 5TF     -0.086000
     11 C11         0.8610   -0.2590   -0.8120 c1        1 5TF     -0.054000
     12 C12         1.1320    1.1640   -0.3690 c2        1 5TF      0.055000
     13 C13         1.6000    1.1660    1.0370 c3        1 5TF     -0.205000
     14 C14         2.2170    1.7850   -1.2760 c2        1 5TF     -0.158000
     15 C15         3.3490    1.1380   -1.7410 c1        1 5TF     -0.037000
     16 N16         4.0790    2.0390   -2.4830 n2        1 5TF     -0.200000
     17 C17         3.3990    3.2540   -2.4800 c1        1 5TF      0.026000
     18 N18         3.7130    4.4890   -3.0060 n1        1 5TF     -0.143000
     19 C19         2.8840    5.5580   -2.7890 c1        1 5TF     -0.057000
     20 C20         1.7270    5.4010   -2.0390 c1        1 5TF     -0.130500
     21 C21         1.4140    4.1740   -1.5160 c1        1 5TF     -0.130500
     22 C22         2.2520    3.0950   -1.7360 c1        1 5TF     -0.106000
     23 N23        -0.0340   -1.2430   -0.5040 n2        1 5TF     -0.042000
     24 N24        -1.0720   -1.3090    0.4460 n1        1 5TF     -0.115000
     25 H11C       -3.6250   -0.5510    2.7830 hc        1 5TF      0.084667
     26 H12C       -3.9630   -1.3570    4.1460 hc        1 5TF      0.084667
     27 H13C       -4.8210   -1.5480    2.8430 hc        1 5TF      0.084667
     28 H2         -2.1190   -2.3880    3.0320 h1        1 5TF      0.123000
     29 H31C       -3.3920   -3.8790    4.2640 hc        1 5TF      0.084667
     30 H32C       -3.1360   -4.6290    2.7880 hc        1 5TF      0.084667
     31 H33C       -4.5430   -3.8880    3.1160 hc        1 5TF      0.084667
     32 H4         -3.8550   -2.7370    0.7950 hn        1 5TF      0.205000
     33 H6         -2.1310   -4.2870   -0.2490 ha        1 5TF      0.154000
     34 H7         -0.3510   -4.2540   -1.7490 ha        1 5TF      0.170000
     35 H12         0.3230    1.6780   -0.4380 ha        1 5TF      0.118000
     36 H131        0.8410    1.3330    1.6310 hc        1 5TF      0.084333
     37 H132        2.0060    0.2760    1.2560 hc        1 5TF      0.084333
     38 H133        2.2970    1.8940    1.1600 hc        1 5TF      0.084333
     39 H15         3.6170    0.1750   -1.5360 DU        1 5TF      0.225000
     40 H16         4.8970    1.8620   -2.9160 DU        1 5TF      0.225000
     41 H19         3.0990    6.4000   -3.1510 ha        1 5TF      0.156000
     42 H20         1.1200    6.1860   -1.8800 ha        1 5TF      0.138000
     43 H21         0.6020    4.0590   -0.9890 ha        1 5TF      0.138000
@<TRIPOS>BOND
     1    1    2 1   
     2    1   25 1   
     3    1   26 1   
     4    1   27 1   
     5    2    3 1   
     6    2    4 1   
     7    2   28 1   
     8    3   29 1   
     9    3   30 1   
    10    3   31 1   
    11    4    5 1   
    12    4   32 1   
    13    5    6 1   
    14    5   24 1   
    15    6    7 1   
    16    6   33 1   
    17    7   34 1   
    18    8   23 1   
    19    9   10 1   
    20   10   11 1   
    21   11   23 1   
    22   12   13 1   
    23   12   14 1   
    24   12   35 1   
    25   13   36 1   
    26   13   37 1   
    27   13   38 1   
    28   14   15 1   
    29   14   22 1   
    30   15   16 1   
    31   16   17 1   
    32   17   22 1   
    33   18   19 1   
    34   19   41 1   
    35   20   21 1   
    36   20   42 1   
    37   21   43 1   
@<TRIPOS>SUBSTRUCTURE
     1 5TF         1 TEMP              0 ****  ****    0 ROOT
