@<TRIPOS>MOLECULE
5TF
   43    46     1     0     0
SMALL
bcc


@<TRIPOS>ATOM
      1 C1         -0.0750   -0.0260   -0.0140 c3        1 5TF     -0.114100
      2 C2          1.4560   -0.0030   -0.0520 c3        1 5TF      0.199500
      3 C3          1.9800   -0.0110    1.3840 c3        1 5TF     -0.114100
      4 N4          1.9590   -1.0880   -0.8830 nu        1 5TF     -0.821900
      5 C5          3.2920   -1.1270   -1.3060 cc        1 5TF      0.618200
      6 C6          3.7530   -2.3810   -1.9270 cc        1 5TF     -0.268300
      7 C7          5.0030   -2.4530   -2.4570 cd        1 5TF     -0.008000
      8 C8          5.8350   -1.2890   -2.3880 cd        1 5TF     -0.159300
      9 N9          7.1120   -0.9960   -2.8050 nc        1 5TF     -0.052000
     10 N10         7.3870    0.2380   -2.4860 nc        1 5TF     -0.373700
     11 C11         6.3270    0.8420   -1.8430 cd        1 5TF      0.347800
     12 C12         6.2600    2.2490   -1.3340 c3        1 5TF      0.023200
     13 C13         7.3650    2.4710   -0.3110 c3        1 5TF     -0.087100
     14 C14         6.3580    3.2110   -2.4520 cc        1 5TF     -0.150400
     15 C15         7.3890    3.3170   -3.3890 cd        1 5TF     -0.064100
     16 N16         7.1380    4.3610   -4.2780 na        1 5TF     -0.286100
     17 C17         5.9120    4.9500   -3.9300 ca        1 5TF      0.417800
     18 N18         5.2820    6.0010   -4.5360 nb        1 5TF     -0.669000
     19 C19         4.1180    6.3510   -3.9790 ca        1 5TF      0.408200
     20 C20         3.5280    5.7240   -2.8510 ca        1 5TF     -0.274300
     21 C21         4.1700    4.6580   -2.2390 ca        1 5TF     -0.052000
     22 C22         5.3930    4.2380   -2.7670 ca        1 5TF     -0.183100
     23 N23         5.2910   -0.1130   -1.7550 na        1 5TF      0.113300
     24 N24         4.0810   -0.0260   -1.2140 nd        1 5TF     -0.547800
     25 H11C       -0.5020    0.0200   -1.0440 hc        1 5TF      0.045367
     26 H12C       -0.4290    0.8630    0.5600 hc        1 5TF      0.045367
     27 H13C       -0.4520   -0.9480    0.4910 hc        1 5TF      0.045367
     28 H2          1.7730    0.9680   -0.5410 h1        1 5TF      0.083700
     29 H31C        1.6570   -0.9350    1.9220 hc        1 5TF      0.045367
     30 H32C        1.5710    0.8750    1.9260 hc        1 5TF      0.045367
     31 H33C        3.0950    0.0460    1.4060 hc        1 5TF      0.045367
     32 H4          1.6040   -1.9860   -0.6260 hn        1 5TF      0.409800
     33 H6          3.0690   -3.2400   -1.9610 ha        1 5TF      0.154000
     34 H7          5.4060   -3.3590   -2.9340 ha        1 5TF      0.170000
     35 H12         5.2660    2.4090   -0.8210 hc        1 5TF      0.078700
     36 H131        7.2820    3.5010    0.1090 hc        1 5TF      0.045033
     37 H132        8.3690    2.3570   -0.7850 hc        1 5TF      0.045033
     38 H133        7.2730    1.7320    0.5200 hc        1 5TF      0.045033
     39 H15         8.2920    2.7060   -3.4870 h4        1 5TF      0.189000
     40 H16         7.6960    4.6180   -5.0490 hn        1 5TF      0.310700
     41 H19         3.6050    7.2010   -4.4670 h4        1 5TF      0.019100
     42 H20         2.5640    6.0930   -2.4760 ha        1 5TF      0.139000
     43 H21         3.7350    4.1520   -1.3650 ha        1 5TF      0.137000
@<TRIPOS>BOND
     1    1    2 1   
     2    1   25 1   
     3    1   26 1   
     4    1   27 1   
     5    2    3 1   
     6    2    4 1   
     7    2   28 1   
     8    3   29 1   
     9    3   30 1   
    10    3   31 1   
    11    4    5 1   
    12    4   32 1   
    13    5    6 1   
    14    5   24 2   
    15    6    7 2   
    16    6   33 1   
    17    7    8 1   
    18    7   34 1   
    19    8    9 2   
    20    8   23 1   
    21    9   10 1   
    22   10   11 2   
    23   11   12 1   
    24   11   23 1   
    25   12   13 1   
    26   12   14 1   
    27   12   35 1   
    28   13   36 1   
    29   13   37 1   
    30   13   38 1   
    31   14   15 2   
    32   14   22 1   
    33   15   16 1   
    34   15   39 1   
    35   16   17 1   
    36   16   40 1   
    37   17   18 ar  
    38   17   22 ar  
    39   18   19 ar  
    40   19   20 ar  
    41   19   41 1   
    42   20   21 ar  
    43   20   42 1   
    44   21   22 ar  
    45   21   43 1   
    46   23   24 1   
@<TRIPOS>SUBSTRUCTURE
     1 5TF         1 TEMP              0 ****  ****    0 ROOT
