@<TRIPOS>MOLECULE
5TN
   61    63     1     0     0
SMALL
bcc


@<TRIPOS>ATOM
      1 CAA         2.1280   -2.1900   -0.3550 c3        1 5TN     -0.089100
      2 CAP         2.6790   -0.7990   -0.1950 c3        1 5TN     -0.094400
      3 CAQ         2.9050   -0.4780    1.2720 c3        1 5TN      0.128400
      4 OAT         3.4080    0.8650    1.3110 os        1 5TN     -0.324900
      5 CAX         4.0960    1.2110    2.4580 ca        1 5TN      0.132100
      6 CAN         3.7900    0.6630    3.7060 ca        1 5TN     -0.203000
      7 CBA         4.4540    1.0860    4.8660 ca        1 5TN     -0.039300
      8 CBC         4.0930    0.4210    6.1680 c3        1 5TN     -0.003700
      9 CAB         4.0780   -1.0990    6.0030 c3        1 5TN     -0.083600
     10 CAC         2.7030    0.8780    6.6000 c3        1 5TN     -0.083600
     11 CAR         5.1120    0.7530    7.2580 c3        1 5TN     -0.067400
     12 CAS         5.4790    2.2150    7.2730 c3        1 5TN     -0.068400
     13 CBD         6.1350    2.6630    5.9660 c3        1 5TN      0.003300
     14 CAD         7.5890    2.2030    5.9330 c3        1 5TN     -0.084100
     15 CAE         6.1060    4.1910    5.9420 c3        1 5TN     -0.084100
     16 CBB         5.4090    2.1070    4.7700 ca        1 5TN     -0.098300
     17 CAO         5.7210    2.6340    3.5080 ca        1 5TN     -0.085000
     18 CAZ         5.0970    2.2040    2.3350 cp        1 5TN     -0.028000
     19 CAY         5.4970    2.7530    1.0410 cp        1 5TN     -0.052000
     20 CAM         5.6500    1.9010   -0.0610 ca        1 5TN     -0.084000
     21 CAW         5.7620    4.1250    0.8550 ca        1 5TN      0.096100
     22 OAH         5.6340    4.9730    1.9400 oh        1 5TN     -0.512100
     23 CAL         6.1600    4.6140   -0.3980 ca        1 5TN     -0.215000
     24 CAK         6.3030    3.7440   -1.4700 ca        1 5TN     -0.103000
     25 CAV         6.0490    2.3700   -1.3200 ca        1 5TN     -0.033800
     26 CAJ         6.1940    1.4910   -2.4660 ce        1 5TN     -0.178200
     27 CAI         5.9790    0.1700   -2.4810 cf        1 5TN     -0.164200
     28 CAU         6.1200   -0.6750   -3.7300 c         1 5TN      0.889800
     29 OAG         5.7490   -1.8820   -3.6450 o         1 5TN     -0.833800
     30 OAF         6.5890   -0.1490   -4.7790 o         1 5TN     -0.833800
     31 HAI         5.6720   -0.3960   -1.5870 ha        1 5TN      0.097000
     32 HAJ         6.5080    1.9800   -3.4080 ha        1 5TN      0.143000
     33 HAM         5.4300    0.8280    0.0710 ha        1 5TN      0.150000
     34 HAH         5.6530    5.8780    1.5990 ho        1 5TN      0.405000
     35 HAL         6.3550    5.6880   -0.5250 ha        1 5TN      0.116000
     36 HAK         6.6150    4.1320   -2.4520 ha        1 5TN      0.133000
     37 HAO         6.4890    3.4220    3.4250 ha        1 5TN      0.148000
     38 HAN         3.0100   -0.1100    3.7790 ha        1 5TN      0.133000
     39 HAQ1        3.6420   -1.1870    1.7310 h1        1 5TN      0.030700
     40 HAQ2        1.9420   -0.5140    1.8490 h1        1 5TN      0.030700
     41 HAP1        1.9730   -0.0460   -0.6340 hc        1 5TN      0.070700
     42 HAP2        3.6510   -0.7010   -0.7520 hc        1 5TN      0.070700
     43 HAA1        1.9960   -2.4220   -1.4400 hc        1 5TN      0.034033
     44 HAA2        2.8280   -2.9450    0.0790 hc        1 5TN      0.034033
     45 HAA3        1.1400   -2.2900    0.1550 hc        1 5TN      0.034033
     46 HAB1        4.0090   -1.5870    7.0050 hc        1 5TN      0.034367
     47 HAB2        5.0110   -1.4430    5.4980 hc        1 5TN      0.034367
     48 HAB3        3.2010   -1.4260    5.3960 hc        1 5TN      0.034367
     49 HAC1        2.4030    0.3580    7.5410 hc        1 5TN      0.034367
     50 HAC2        1.9560    0.6400    5.8040 hc        1 5TN      0.034367
     51 HAC3        2.6900    1.9800    6.7770 hc        1 5TN      0.034367
     52 HAR1        4.6870    0.4620    8.2550 hc        1 5TN      0.038700
     53 HAR2        6.0360    0.1360    7.0950 hc        1 5TN      0.038700
     54 HAS1        4.5570    2.8310    7.4510 hc        1 5TN      0.037200
     55 HAS2        6.1840    2.4160    8.1230 hc        1 5TN      0.037200
     56 HAD1        7.6510    1.0910    6.0060 hc        1 5TN      0.034867
     57 HAD2        8.0700    2.5220    4.9770 hc        1 5TN      0.034867
     58 HAD3        8.1530    2.6510    6.7860 hc        1 5TN      0.034867
     59 HAE1        6.4820    4.5930    6.9140 hc        1 5TN      0.034867
     60 HAE2        6.7520    4.5890    5.1240 hc        1 5TN      0.034867
     61 HAE3        5.0640    4.5560    5.7790 hc        1 5TN      0.034867
@<TRIPOS>BOND
     1    1    2 1   
     2    1   43 1   
     3    1   44 1   
     4    1   45 1   
     5    2    3 1   
     6    2   41 1   
     7    2   42 1   
     8    3    4 1   
     9    3   39 1   
    10    3   40 1   
    11    4    5 1   
    12    5    6 ar  
    13    5   18 ar  
    14    6    7 ar  
    15    6   38 1   
    16    7    8 1   
    17    7   16 ar  
    18    8    9 1   
    19    8   10 1   
    20    8   11 1   
    21    9   46 1   
    22    9   47 1   
    23    9   48 1   
    24   10   49 1   
    25   10   50 1   
    26   10   51 1   
    27   11   12 1   
    28   11   52 1   
    29   11   53 1   
    30   12   13 1   
    31   12   54 1   
    32   12   55 1   
    33   13   14 1   
    34   13   15 1   
    35   13   16 1   
    36   14   56 1   
    37   14   57 1   
    38   14   58 1   
    39   15   59 1   
    40   15   60 1   
    41   15   61 1   
    42   16   17 ar  
    43   17   18 ar  
    44   17   37 1   
    45   18   19 1   
    46   19   20 ar  
    47   19   21 ar  
    48   20   25 ar  
    49   20   33 1   
    50   21   22 1   
    51   21   23 ar  
    52   22   34 1   
    53   23   24 ar  
    54   23   35 1   
    55   24   25 ar  
    56   24   36 1   
    57   25   26 1   
    58   26   27 2   
    59   26   32 1   
    60   27   28 1   
    61   27   31 1   
    62   28   29 1   
    63   28   30 1   
@<TRIPOS>SUBSTRUCTURE
     1 5TN         1 TEMP              0 ****  ****    0 ROOT
