@<TRIPOS>MOLECULE
5TN
   61    63     1     0     0
SMALL
bcc


@<TRIPOS>ATOM
      1 CAA        -1.7160    2.8900    0.2220 c3        1 5TN     -0.089100
      2 CAP        -1.6960    1.3860    0.2770 c3        1 5TN     -0.094400
      3 CAQ        -0.4240    0.8450   -0.3530 c3        1 5TN      0.128400
      4 OAT        -0.5160   -0.5850   -0.2640 os        1 5TN     -0.324900
      5 CAX         0.6840   -1.2650   -0.3500 ca        1 5TN      0.132100
      6 CAN         1.7550   -0.7930   -1.1120 ca        1 5TN     -0.203000
      7 CBA         2.9350   -1.5390   -1.2420 ca        1 5TN     -0.039300
      8 CBC         4.0590   -0.9460   -2.0500 c3        1 5TN     -0.003700
      9 CAB         4.3070    0.5040   -1.6340 c3        1 5TN     -0.083600
     10 CAC         3.6860   -0.9720   -3.5290 c3        1 5TN     -0.083600
     11 CAR         5.3630   -1.7140   -1.8290 c3        1 5TN     -0.067400
     12 CAS         5.1600   -3.2080   -1.8630 c3        1 5TN     -0.068400
     13 CBD         4.2200   -3.6930   -0.7580 c3        1 5TN      0.003300
     14 CAD         4.9650   -3.7310    0.5730 c3        1 5TN     -0.084100
     15 CAE         3.7890   -5.1150   -1.1170 c3        1 5TN     -0.084100
     16 CBB         3.0160   -2.7980   -0.6310 ca        1 5TN     -0.098300
     17 CAO         1.9400   -3.2500    0.1470 ca        1 5TN     -0.085000
     18 CAZ         0.7700   -2.5090    0.3190 cp        1 5TN     -0.028000
     19 CAY        -0.3000   -3.0060    1.1820 cp        1 5TN     -0.052000
     20 CAM        -0.9520   -2.1300    2.0600 ca        1 5TN     -0.084000
     21 CAW        -0.6970   -4.3590    1.1860 ca        1 5TN      0.096100
     22 OAH        -0.0470   -5.2380    0.3380 oh        1 5TN     -0.512100
     23 CAL        -1.7160   -4.8040    2.0390 ca        1 5TN     -0.215000
     24 CAK        -2.3440   -3.9110    2.8980 ca        1 5TN     -0.103000
     25 CAV        -1.9720   -2.5560    2.9220 ca        1 5TN     -0.033800
     26 CAJ        -2.6590   -1.6470    3.8220 ce        1 5TN     -0.178200
     27 CAI        -2.4190   -0.3370    3.9550 cf        1 5TN     -0.164200
     28 CAU        -3.2050    0.5530    4.8960 c         1 5TN      0.889800
     29 OAG        -2.9810    1.7970    4.8210 o         1 5TN     -0.833800
     30 OAF        -4.0330    0.0290    5.6930 o         1 5TN     -0.833800
     31 HAI        -1.6400    0.1900    3.3820 ha        1 5TN      0.097000
     32 HAJ        -3.4550   -2.0990    4.4430 ha        1 5TN      0.143000
     33 HAM        -0.6600   -1.0670    2.0540 ha        1 5TN      0.150000
     34 HAH        -0.5650   -6.0540    0.3200 ho        1 5TN      0.405000
     35 HAL        -2.0170   -5.8610    2.0230 ha        1 5TN      0.116000
     36 HAK        -3.1430   -4.2650    3.5660 ha        1 5TN      0.133000
     37 HAO         2.0090   -4.2300    0.6500 ha        1 5TN      0.148000
     38 HAN         1.6690    0.1770   -1.6210 ha        1 5TN      0.133000
     39 HAQ1       -0.3550    1.1300   -1.4360 h1        1 5TN      0.030700
     40 HAQ2        0.4840    1.2150    0.1900 h1        1 5TN      0.030700
     41 HAP1       -2.5840    0.9630   -0.2600 hc        1 5TN      0.070700
     42 HAP2       -1.7620    1.0370    1.3440 hc        1 5TN      0.070700
     43 HAA1       -1.6980    3.2520   -0.8350 hc        1 5TN      0.034033
     44 HAA2       -2.6430    3.2730    0.7160 hc        1 5TN      0.034033
     45 HAA3       -0.8340    3.3180    0.7570 hc        1 5TN      0.034033
     46 HAB1        3.4790    1.1660   -1.9820 hc        1 5TN      0.034367
     47 HAB2        4.3830    0.5810   -0.5230 hc        1 5TN      0.034367
     48 HAB3        5.2600    0.8700   -2.0870 hc        1 5TN      0.034367
     49 HAC1        4.4910   -0.4930   -4.1360 hc        1 5TN      0.034367
     50 HAC2        3.5450   -2.0220   -3.8800 hc        1 5TN      0.034367
     51 HAC3        2.7320   -0.4140   -3.6930 hc        1 5TN      0.034367
     52 HAR1        5.7980   -1.4180   -0.8380 hc        1 5TN      0.038700
     53 HAR2        6.1000   -1.4170   -2.6210 hc        1 5TN      0.038700
     54 HAS1        4.7380   -3.5060   -2.8600 hc        1 5TN      0.037200
     55 HAS2        6.1500   -3.7230   -1.7520 hc        1 5TN      0.037200
     56 HAD1        5.3430   -2.7160    0.8400 hc        1 5TN      0.034867
     57 HAD2        4.2800   -4.0780    1.3850 hc        1 5TN      0.034867
     58 HAD3        5.8300   -4.4330    0.5090 hc        1 5TN      0.034867
     59 HAE1        4.6850   -5.7250   -1.3870 hc        1 5TN      0.034867
     60 HAE2        3.2770   -5.6050   -0.2560 hc        1 5TN      0.034867
     61 HAE3        3.0880   -5.0990   -1.9850 hc        1 5TN      0.034867
@<TRIPOS>BOND
     1    1    2 1   
     2    1   43 1   
     3    1   44 1   
     4    1   45 1   
     5    2    3 1   
     6    2   41 1   
     7    2   42 1   
     8    3    4 1   
     9    3   39 1   
    10    3   40 1   
    11    4    5 1   
    12    5    6 ar  
    13    5   18 ar  
    14    6    7 ar  
    15    6   38 1   
    16    7    8 1   
    17    7   16 ar  
    18    8    9 1   
    19    8   10 1   
    20    8   11 1   
    21    9   46 1   
    22    9   47 1   
    23    9   48 1   
    24   10   49 1   
    25   10   50 1   
    26   10   51 1   
    27   11   12 1   
    28   11   52 1   
    29   11   53 1   
    30   12   13 1   
    31   12   54 1   
    32   12   55 1   
    33   13   14 1   
    34   13   15 1   
    35   13   16 1   
    36   14   56 1   
    37   14   57 1   
    38   14   58 1   
    39   15   59 1   
    40   15   60 1   
    41   15   61 1   
    42   16   17 ar  
    43   17   18 ar  
    44   17   37 1   
    45   18   19 1   
    46   19   20 ar  
    47   19   21 ar  
    48   20   25 ar  
    49   20   33 1   
    50   21   22 1   
    51   21   23 ar  
    52   22   34 1   
    53   23   24 ar  
    54   23   35 1   
    55   24   25 ar  
    56   24   36 1   
    57   25   26 1   
    58   26   27 2   
    59   26   32 1   
    60   27   28 1   
    61   27   31 1   
    62   28   29 1   
    63   28   30 1   
@<TRIPOS>SUBSTRUCTURE
     1 5TN         1 TEMP              0 ****  ****    0 ROOT
