@<TRIPOS>MOLECULE
5TN
   61    59     1     0     0
SMALL
bcc


@<TRIPOS>ATOM
      1 CAA        -4.7260    0.1130   -3.7040 c3        1 5TN     -0.208000
      2 CAP        -3.2510    0.4590   -3.6210 c3        1 5TN     -0.171000
      3 CAQ        -2.7830    0.3190   -2.2030 c3        1 5TN     -0.019000
      4 OAT        -1.3650    0.5940   -2.1350 os        1 5TN     -0.206000
      5 CAX        -0.8360    0.5700   -0.8200 c2        1 5TN      0.073000
      6 CAN        -1.4980    1.3710    0.2750 c1        1 5TN     -0.201000
      7 CBA        -0.8760    1.3940    1.6960 c1        1 5TN     -0.041000
      8 CBC        -1.6800    1.6240    3.0490 c3        1 5TN     -0.009000
      9 CAB        -2.1040    0.2070    3.6300 c3        1 5TN     -0.200500
     10 CAC        -2.9310    2.4160    2.7420 c3        1 5TN     -0.200500
     11 CAR        -0.9160    2.3350    4.0670 c3        1 5TN     -0.145000
     12 CAS         0.5060    1.6800    4.3200 c3        1 5TN     -0.147000
     13 CBD         1.2700    1.5290    3.0880 c3        1 5TN     -0.005000
     14 CAD         1.6940    2.9360    2.5880 c3        1 5TN     -0.203000
     15 CAE         2.5540    0.7030    3.3960 c3        1 5TN     -0.203000
     16 CBB         0.4620    0.7970    1.9240 c2        1 5TN     -0.085000
     17 CAO         1.0960   -0.1060    0.8400 c2        1 5TN     -0.089000
     18 CAZ         0.4820   -0.1720   -0.5340 c2        1 5TN     -0.007000
     19 CAY         1.2050   -0.9060   -1.6570 c2        1 5TN     -0.083000
     20 CAM         1.2270   -2.4190   -1.6810 c2        1 5TN     -0.087000
     21 CAW         1.9220   -0.1250   -2.7280 c1        1 5TN      0.057000
     22 OAH         2.1120    1.2590   -2.5720 o         1 5TN     -0.273000
     23 CAL         2.6190   -0.8590   -3.8670 c2        1 5TN     -0.221000
     24 CAK         2.5900   -2.3600   -3.9240 c1        1 5TN     -0.070000
     25 CAV         1.9210   -3.1490   -2.8110 c1        1 5TN     -0.027000
     26 CAJ         1.7710   -4.6940   -2.9390 c2        1 5TN     -0.191000
     27 CAI         2.9130   -5.5250   -2.8750 c1        1 5TN     -0.129000
     28 CAU         4.3050   -4.9060   -2.6790 c1        1 5TN      0.345000
     29 OAG         5.0600   -4.7240   -3.6780 o         1 5TN     -0.568500
     30 OAF         4.7270   -4.6580   -1.5190 o         1 5TN     -0.568500
     31 HAI         2.8160   -6.5010   -2.9550 ha        1 5TN      0.097000
     32 HAJ         0.8990   -5.0840   -3.0630 ha        1 5TN      0.086000
     33 HAM         0.8080   -2.9260   -0.9570 ha        1 5TN      0.137000
     34 HAH         2.6440    1.5730   -3.2480 ho        1 5TN      0.206000
     35 HAL         3.1040   -0.3600   -4.5380 ha        1 5TN      0.123000
     36 HAK         3.0330   -2.8240   -4.6470 ha        1 5TN      0.210000
     37 HAO         1.8610   -0.6410    1.0480 ha        1 5TN      0.151000
     38 HAN        -2.2670    1.9430    0.0670 ha        1 5TN      0.128000
     39 HAQ1       -3.2670    0.9540   -1.6340 h1        1 5TN      0.069500
     40 HAQ2       -2.9570   -0.6110   -1.8870 h1        1 5TN      0.069500
     41 HAP1       -3.1170    1.3680   -3.9160 hc        1 5TN      0.103000
     42 HAP2       -2.7430   -0.1440   -4.1900 hc        1 5TN      0.103000
     43 HAA1       -4.8740   -0.7770   -3.3160 hc        1 5TN      0.069667
     44 HAA2       -5.0120    0.1120   -4.6540 hc        1 5TN      0.069667
     45 HAA3       -5.2550    0.7880   -3.1990 hc        1 5TN      0.069667
     46 HAB1       -2.8000   -0.1650    3.0860 hc        1 5TN      0.072500
     47 HAB2       -1.3290   -0.3940    3.6240 hc        1 5TN      0.072500
     48 HAB3       -2.4350    0.3140    4.5670 hc        1 5TN      0.072500
     49 HAC1       -3.5260    1.8790    2.1720 hc        1 5TN      0.072500
     50 HAC2       -2.6890    3.2420    2.2740 hc        1 5TN      0.072500
     51 HAC3       -3.3780    2.6300    3.5520 hc        1 5TN      0.072500
     52 HAR1       -1.4290    2.3280    4.9170 hc        1 5TN      0.076500
     53 HAR2       -0.7940    3.2430    3.7850 hc        1 5TN      0.076500
     54 HAS1        1.0170    2.2690    4.9340 hc        1 5TN      0.077000
     55 HAS2        0.3730    0.8080    4.7010 hc        1 5TN      0.077000
     56 HAD1        2.4400    2.8450    1.9370 hc        1 5TN      0.074833
     57 HAD2        0.9370    3.3670    2.1560 hc        1 5TN      0.074833
     58 HAD3        1.9970    3.4920    3.3690 hc        1 5TN      0.074833
     59 HAE1        2.3080   -0.2570    3.5320 hc        1 5TN      0.074833
     60 HAE2        3.1970    0.7800    2.6220 hc        1 5TN      0.074833
     61 HAE3        2.9700    1.0420    4.1900 hc        1 5TN      0.074833
@<TRIPOS>BOND
     1    1    2 1   
     2    1   43 1   
     3    1   44 1   
     4    1   45 1   
     5    2    3 1   
     6    2   41 1   
     7    2   42 1   
     8    3    4 1   
     9    3   39 1   
    10    3   40 1   
    11    4    5 1   
    12    5    6 1   
    13    5   18 1   
    14    6   38 1   
    15    7    8 1   
    16    7   16 1   
    17    8    9 1   
    18    8   10 1   
    19    8   11 1   
    20    9   46 1   
    21    9   47 1   
    22    9   48 1   
    23   10   49 1   
    24   10   50 1   
    25   10   51 1   
    26   11   12 1   
    27   11   52 1   
    28   11   53 1   
    29   12   13 1   
    30   12   54 1   
    31   12   55 1   
    32   13   14 1   
    33   13   15 1   
    34   13   16 1   
    35   14   56 1   
    36   14   57 1   
    37   14   58 1   
    38   15   59 1   
    39   15   60 1   
    40   15   61 1   
    41   16   17 1   
    42   17   18 1   
    43   17   37 1   
    44   18   19 1   
    45   19   20 1   
    46   19   21 1   
    47   20   25 1   
    48   20   33 1   
    49   21   23 1   
    50   22   34 1   
    51   23   24 1   
    52   23   35 1   
    53   24   36 1   
    54   25   26 1   
    55   26   27 1   
    56   26   32 1   
    57   27   31 1   
    58   28   29 1   
    59   28   30 1   
@<TRIPOS>SUBSTRUCTURE
     1 5TN         1 TEMP              0 ****  ****    0 ROOT
