@<TRIPOS>MOLECULE
5TN
   61    63     1     0     0
SMALL
bcc


@<TRIPOS>ATOM
      1 CAA         1.8130   -0.3710   -1.2430 c3        1 5TN     -0.095100
      2 CAP         2.7580   -0.9170   -0.2050 c3        1 5TN     -0.083400
      3 CAQ         3.0150    0.1170    0.8760 c3        1 5TN      0.128400
      4 OAT         4.0280   -0.4460    1.7290 os        1 5TN     -0.354900
      5 CAX         4.4490    0.4030    2.7440 ca        1 5TN      0.106100
      6 CAN         4.1780   -0.0290    4.0480 ca        1 5TN     -0.151000
      7 CBA         4.6460    0.6780    5.1600 ca        1 5TN     -0.062300
      8 CBC         4.3520    0.1250    6.5290 c3        1 5TN     -0.000700
      9 CAB         4.6880   -1.3650    6.5820 c3        1 5TN     -0.083600
     10 CAC         2.8680    0.3010    6.8360 c3        1 5TN     -0.083600
     11 CAR         5.1910    0.8230    7.6000 c3        1 5TN     -0.067400
     12 CAS         5.2210    2.3190    7.4170 c3        1 5TN     -0.068400
     13 CBD         5.8530    2.7310    6.0870 c3        1 5TN      0.001300
     14 CAD         7.3720    2.6180    6.1780 c3        1 5TN     -0.084100
     15 CAE         5.4860    4.1950    5.8410 c3        1 5TN     -0.084100
     16 CBB         5.3570    1.8720    4.9540 ca        1 5TN     -0.081300
     17 CAO         5.6320    2.2850    3.6450 ca        1 5TN     -0.099000
     18 CAZ         5.2000    1.5730    2.5190 cp        1 5TN     -0.020000
     19 CAY         5.5550    2.0480    1.1840 cp        1 5TN     -0.094000
     20 CAM         6.0040    1.1410    0.2120 ca        1 5TN     -0.099000
     21 CAW         5.4840    3.4090    0.8270 ca        1 5TN      0.102100
     22 OAH         5.0620    4.3170    1.7820 oh        1 5TN     -0.517100
     23 CAL         5.8350    3.8330   -0.4630 ca        1 5TN     -0.220000
     24 CAK         6.2680    2.9130   -1.4090 ca        1 5TN     -0.069000
     25 CAV         6.3560    1.5500   -1.0800 ca        1 5TN     -0.038800
     26 CAJ         6.8170    0.5570   -2.0370 ce        1 5TN     -0.184200
     27 CAI         6.6750    0.5800   -3.3660 cf        1 5TN     -0.148200
     28 CAU         5.9800    1.6050   -4.2310 c         1 5TN      0.895800
     29 OAG         4.8470    1.3000   -4.6980 o         1 5TN     -0.833800
     30 OAF         6.5800    2.6920   -4.4830 o         1 5TN     -0.833800
     31 HAI         7.0810   -0.2600   -3.9580 ha        1 5TN      0.100000
     32 HAJ         7.3200   -0.3060   -1.5630 ha        1 5TN      0.089000
     33 HAM         6.0530    0.0710    0.4770 ha        1 5TN      0.142000
     34 HAH         4.9060    5.1570    1.3270 ho        1 5TN      0.408000
     35 HAL         5.7580    4.8970   -0.7280 ha        1 5TN      0.124000
     36 HAK         6.5290    3.2400   -2.4380 ha        1 5TN      0.210000
     37 HAO         6.2060    3.2120    3.4770 ha        1 5TN      0.148000
     38 HAN         3.5930   -0.9530    4.1790 ha        1 5TN      0.136000
     39 HAQ1        2.0950    0.3090    1.4860 h1        1 5TN      0.042700
     40 HAQ2        3.3860    1.0800    0.4360 h1        1 5TN      0.042700
     41 HAP1        2.3370   -1.8450    0.2600 hc        1 5TN      0.050200
     42 HAP2        3.7340   -1.1940   -0.6840 hc        1 5TN      0.050200
     43 HAA1        2.2670    0.5050   -1.7680 hc        1 5TN      0.038700
     44 HAA2        0.8520   -0.0470   -0.7750 hc        1 5TN      0.038700
     45 HAA3        1.5890   -1.1550   -2.0060 hc        1 5TN      0.038700
     46 HAB1        3.9590   -1.9600    5.9830 hc        1 5TN      0.033867
     47 HAB2        4.6480   -1.7240    7.6390 hc        1 5TN      0.033867
     48 HAB3        5.7130   -1.5460    6.1790 hc        1 5TN      0.033867
     49 HAC1        2.6260   -0.1470    7.8290 hc        1 5TN      0.033867
     50 HAC2        2.2530   -0.2060    6.0540 hc        1 5TN      0.033867
     51 HAC3        2.5960    1.3830    6.8530 hc        1 5TN      0.033867
     52 HAR1        4.7720    0.5760    8.6100 hc        1 5TN      0.037700
     53 HAR2        6.2380    0.4200    7.5640 hc        1 5TN      0.037700
     54 HAS1        4.1750    2.7230    7.4670 hc        1 5TN      0.037200
     55 HAS2        5.8000    2.7870    8.2560 hc        1 5TN      0.037200
     56 HAD1        7.6730    1.5690    6.4120 hc        1 5TN      0.035200
     57 HAD2        7.7590    3.2910    6.9790 hc        1 5TN      0.035200
     58 HAD3        7.8370    2.9110    5.2060 hc        1 5TN      0.035200
     59 HAE1        5.6940    4.7960    6.7590 hc        1 5TN      0.035200
     60 HAE2        4.4040    4.2860    5.5880 hc        1 5TN      0.035200
     61 HAE3        6.0840    4.6200    5.0000 hc        1 5TN      0.035200
@<TRIPOS>BOND
     1    1    2 1   
     2    1   43 1   
     3    1   44 1   
     4    1   45 1   
     5    2    3 1   
     6    2   41 1   
     7    2   42 1   
     8    3    4 1   
     9    3   39 1   
    10    3   40 1   
    11    4    5 1   
    12    5    6 ar  
    13    5   18 ar  
    14    6    7 ar  
    15    6   38 1   
    16    7    8 1   
    17    7   16 ar  
    18    8    9 1   
    19    8   10 1   
    20    8   11 1   
    21    9   46 1   
    22    9   47 1   
    23    9   48 1   
    24   10   49 1   
    25   10   50 1   
    26   10   51 1   
    27   11   12 1   
    28   11   52 1   
    29   11   53 1   
    30   12   13 1   
    31   12   54 1   
    32   12   55 1   
    33   13   14 1   
    34   13   15 1   
    35   13   16 1   
    36   14   56 1   
    37   14   57 1   
    38   14   58 1   
    39   15   59 1   
    40   15   60 1   
    41   15   61 1   
    42   16   17 ar  
    43   17   18 ar  
    44   17   37 1   
    45   18   19 1   
    46   19   20 ar  
    47   19   21 ar  
    48   20   25 ar  
    49   20   33 1   
    50   21   22 1   
    51   21   23 ar  
    52   22   34 1   
    53   23   24 ar  
    54   23   35 1   
    55   24   25 ar  
    56   24   36 1   
    57   25   26 1   
    58   26   27 2   
    59   26   32 1   
    60   27   28 1   
    61   27   31 1   
    62   28   29 1   
    63   28   30 1   
@<TRIPOS>SUBSTRUCTURE
     1 5TN         1 TEMP              0 ****  ****    0 ROOT
