@<TRIPOS>MOLECULE
5TP
   31    32     1     0     0
SMALL
bcc


@<TRIPOS>ATOM
      1 N11         2.7800    0.9550   -0.6590 n3        1 5TP     -0.798200
      2 C21         2.5300   -0.1170    0.3010 c3        1 5TP      0.162500
      3 C31         3.6780   -1.1380    0.4120 c3        1 5TP     -0.111400
      4 C41         5.0020   -0.4450    0.6580 c3        1 5TP     -0.076400
      5 C51         5.2620    0.6310   -0.3760 c3        1 5TP     -0.115400
      6 C61         4.0710    1.5850   -0.4670 c3        1 5TP      0.153800
      7 C1'         1.2340   -0.8790    0.0030 c3        1 5TP     -0.072400
      8 C2'         0.0150    0.0020    0.1620 c3        1 5TP     -0.158400
      9 S1         -4.0420   -0.6350   -0.3650 ss        1 5TP      0.038700
     10 O2         -1.2930   -1.9540   -0.3710 o         1 5TP     -0.538100
     11 C52        -4.8040    0.7680    0.0670 cc        1 5TP     -0.274400
     12 C22        -2.5140    0.0190    0.0660 cc        1 5TP      0.272900
     13 C2'1       -1.2570   -0.7540   -0.0720 c         1 5TP      0.502600
     14 C42        -3.8810    1.7050    0.5340 cd        1 5TP      0.323200
     15 N3         -2.5740    1.2790    0.5330 nd        1 5TP     -0.603000
     16 H21         2.4210    0.3870    1.3080 h1        1 5TP      0.060700
     17 H31         3.4580   -1.8420    1.2540 hc        1 5TP      0.045700
     18 H32         3.7340   -1.7430   -0.5300 hc        1 5TP      0.045700
     19 H41         4.9950    0.0180    1.6800 hc        1 5TP      0.041200
     20 H42         5.8300   -1.2000    0.6370 hc        1 5TP      0.041200
     21 H51         6.1790    1.2120   -0.1000 hc        1 5TP      0.043700
     22 H52         5.4490    0.1580   -1.3750 hc        1 5TP      0.043700
     23 H61         4.2360    2.3060   -1.3150 h1        1 5TP      0.051200
     24 H62         4.0140    2.1820    0.4880 h1        1 5TP      0.051200
     25 H1'1        1.2590   -1.3070   -1.0340 hc        1 5TP      0.053700
     26 H1'2        1.1610   -1.7450    0.7130 hc        1 5TP      0.053700
     27 H2'1       -0.0110    0.4420    1.1950 hc        1 5TP      0.090700
     28 H2'2        0.0550    0.8640   -0.5590 hc        1 5TP      0.090700
     29 H43        -4.1090    2.7170    0.8880 h4        1 5TP      0.048100
     30 H2          2.7150    0.5880   -1.5930 hn        1 5TP      0.348800
     31 H5         -5.8770    0.9400   -0.0030 h4        1 5TP      0.185000
@<TRIPOS>BOND
     1    1    2 1   
     2    1    6 1   
     3    1   30 1   
     4    2    3 1   
     5    2    7 1   
     6    2   16 1   
     7    3    4 1   
     8    3   17 1   
     9    3   18 1   
    10    4    5 1   
    11    4   19 1   
    12    4   20 1   
    13    5    6 1   
    14    5   21 1   
    15    5   22 1   
    16    6   23 1   
    17    6   24 1   
    18    7    8 1   
    19    7   25 1   
    20    7   26 1   
    21    8   13 1   
    22    8   27 1   
    23    8   28 1   
    24    9   11 1   
    25    9   12 1   
    26   10   13 2   
    27   11   14 2   
    28   11   31 1   
    29   12   13 1   
    30   12   15 2   
    31   14   15 1   
    32   14   29 1   
@<TRIPOS>SUBSTRUCTURE
     1 5TP         1 TEMP              0 ****  ****    0 ROOT
