@<TRIPOS>MOLECULE
5TP
   31    29     1     0     0
SMALL
bcc


@<TRIPOS>ATOM
      1 N11        -2.1240   -0.9260    0.9930 n3        1 5TP     -0.276000
      2 C21        -0.6720   -1.0270    1.0310 c3        1 5TP     -0.031000
      3 C31        -0.1270   -1.0870    2.4580 c3        1 5TP     -0.188000
      4 C41        -0.6360    0.0020    3.2950 c3        1 5TP     -0.156000
      5 C51        -2.0990    0.0990    3.2510 c3        1 5TP     -0.193000
      6 C61        -2.6360    0.1530    1.8230 c3        1 5TP     -0.087000
      7 C1'        -0.0790    0.1900    0.3330 c3        1 5TP     -0.144000
      8 C2'         0.4290   -0.2200   -1.1090 c3        1 5TP     -0.187000
      9 S1          2.9960    1.6780   -3.6350 ss        1 5TP      0.621000
     10 O2          1.8790    1.5990   -0.8270 o         1 5TP     -0.299000
     11 C52         3.1880    1.2570   -5.0750 c1        1 5TP     -0.479000
     12 C22         1.9560    0.7320   -3.0100 c1        1 5TP     -0.393000
     13 C2'1        1.4580    0.7750   -1.5800 c1        1 5TP      0.303000
     14 C42         2.3300    0.1330   -5.3230 c1        1 5TP     -0.142000
     15 N3          1.5540   -0.1910   -4.0060 n2        1 5TP     -0.078000
     16 H21        -0.3970   -1.8260    0.5570 h1        1 5TP      0.090000
     17 H31         0.9000   -1.0320    2.4260 hc        1 5TP      0.083500
     18 H32        -0.3940   -1.9660    2.8710 hc        1 5TP      0.083500
     19 H41        -0.2600    0.8300    2.9910 hc        1 5TP      0.082500
     20 H42        -0.3630   -0.1480    4.1970 hc        1 5TP      0.082500
     21 H51        -2.4710   -0.6600    3.6920 hc        1 5TP      0.082500
     22 H52        -2.3740    0.8980    3.7170 hc        1 5TP      0.082500
     23 H61        -2.3900    0.9720    1.4380 h1        1 5TP      0.090500
     24 H62        -3.6270    0.0950    1.8510 h1        1 5TP      0.090500
     25 H1'1        0.7020    0.5450    0.8800 hc        1 5TP      0.092500
     26 H1'2       -0.7510    0.8720    0.2530 hc        1 5TP      0.092500
     27 H2'1       -0.3380   -0.2280   -1.7420 hc        1 5TP      0.129500
     28 H2'2        0.8230   -1.0910   -1.0730 hc        1 5TP      0.129500
     29 H5          3.7720    1.6640   -5.7020 DU        1 5TP      0.185000
     30 H43         2.2390   -0.3830   -6.2310 DU        1 5TP      0.185000
     31 H2         -2.4880   -1.7090    1.2560 hn        1 5TP      0.147000
@<TRIPOS>BOND
     1    1    2 1   
     2    1    6 1   
     3    1   31 1   
     4    2    3 1   
     5    2    7 1   
     6    2   16 1   
     7    3    4 1   
     8    3   17 1   
     9    3   18 1   
    10    4    5 1   
    11    4   19 1   
    12    4   20 1   
    13    5    6 1   
    14    5   21 1   
    15    5   22 1   
    16    6   23 1   
    17    6   24 1   
    18    7    8 1   
    19    7   25 1   
    20    7   26 1   
    21    8   13 1   
    22    8   27 1   
    23    8   28 1   
    24    9   11 1   
    25    9   12 1   
    26   10   13 1   
    27   11   14 1   
    28   12   15 1   
    29   14   15 1   
@<TRIPOS>SUBSTRUCTURE
     1 5TP         1 TEMP              0 ****  ****    0 ROOT
