@<TRIPOS>MOLECULE
5TS
   18    13     1     0     0
SMALL
bcc


@<TRIPOS>ATOM
      1 C1         -0.6600   -0.0590   -3.9240 c1        1 5TS     -0.157000
      2 N1          0.5880   -0.5720   -3.9510 n2        1 5TS     -0.063000
      3 O1          1.0030   -0.7600   -2.6380 os        1 5TS     -0.067000
      4 S1          0.3750    0.8800    0.4580 ss        1 5TS      0.760000
      5 C2          0.0370   -0.3450   -0.4340 c2        1 5TS     -0.446000
      6 C3          0.0020   -0.3580   -1.8200 c2        1 5TS      0.113000
      7 C4         -1.0370    0.0790   -2.6050 c1        1 5TS     -0.288000
      8 C5          0.3780    0.3980    1.9330 c1        1 5TS     -0.987000
      9 C6          0.0650   -1.0180    1.9410 c1        1 5TS     -0.115000
     10 C7         -0.1520   -1.4910    0.4350 c1        1 5TS     -0.120000
     11 S8          0.6230    1.4190    3.3620 ss        1 5TS      2.886000
     12 O9          1.1670    2.7750    2.9800 o         1 5TS     -1.059500
     13 O10         1.7410    0.8890    4.2290 o         1 5TS     -1.059500
     14 H1         -1.2010    0.1740   -4.7030 DU        1 5TS      0.166000
     15 H4         -1.8910    0.4270   -2.2850 DU        1 5TS      0.166000
     16 H6         -0.0010   -1.5850    2.7330 DU        1 5TS      0.166000
     17 H7         -0.3740   -2.3960    0.1470 DU        1 5TS      0.166000
     18 OXT        -0.6630    1.5440    4.1420 os        1 5TS     -1.061000
@<TRIPOS>BOND
     1    1    2 1   
     2    1    7 1   
     3    2    3 1   
     4    3    6 1   
     5    4    5 1   
     6    4    8 1   
     7    5    6 1   
     8    5   10 1   
     9    6    7 1   
    10    8    9 1   
    11    9   10 1   
    12   11   12 1   
    13   11   13 1   
@<TRIPOS>SUBSTRUCTURE
     1 5TS         1 TEMP              0 ****  ****    0 ROOT
