@<TRIPOS>MOLECULE
5TS
   18    19     1     0     0
SMALL
bcc


@<TRIPOS>ATOM
      1 C1         -4.7080    0.8400   -0.0800 cc        1 5TS      0.308200
      2 N1         -4.7630   -0.4960    0.0510 nd        1 5TS     -0.398300
      3 O1         -3.5360   -0.9790    0.0920 os        1 5TS     -0.124100
      4 S1          0.0170    0.8810   -0.1040 ss        1 5TS      0.220200
      5 C2         -1.2180   -0.2450    0.0110 cd        1 5TS     -0.283600
      6 C3         -2.5940    0.0820   -0.0150 cd        1 5TS      0.415200
      7 C4         -3.3190    1.2640   -0.1270 cc        1 5TS     -0.418600
      8 C5          1.2230   -0.2100   -0.0030 cd        1 5TS     -0.272600
      9 C6          0.7290   -1.5050    0.1250 cc        1 5TS     -0.115000
     10 C7         -0.6860   -1.5340    0.1340 cc        1 5TS     -0.120000
     11 S8          2.9890    0.0690   -0.0380 s6        1 5TS      1.473100
     12 O9          3.2260    0.9170    1.0630 o         1 5TS     -0.737200
     13 O10         3.5540   -1.2160    0.0840 o         1 5TS     -0.737200
     14 H1         -5.5920    1.4730   -0.1370 h4        1 5TS      0.034100
     15 H4         -2.9530    2.2770   -0.2270 ha        1 5TS      0.170000
     16 H6          1.3690   -2.3900    0.2080 ha        1 5TS      0.176000
     17 H7         -1.2890   -2.4390    0.2240 ha        1 5TS      0.147000
     18 OXT         3.2150    0.6890   -1.2840 o         1 5TS     -0.737200
@<TRIPOS>BOND
     1    1    2 2   
     2    1    7 1   
     3    1   14 1   
     4    2    3 1   
     5    3    6 1   
     6    4    5 1   
     7    4    8 1   
     8    5    6 1   
     9    5   10 2   
    10    6    7 2   
    11    7   15 1   
    12    8    9 2   
    13    8   11 1   
    14    9   10 1   
    15    9   16 1   
    16   10   17 1   
    17   11   12 1   
    18   11   13 1   
    19   11   18 1   
@<TRIPOS>SUBSTRUCTURE
     1 5TS         1 TEMP              0 ****  ****    0 ROOT
