@<TRIPOS>MOLECULE
5TS
   18    18     1     0     0
SMALL
bcc


@<TRIPOS>ATOM
      1 C1         -0.2680    0.0330    0.0140 c2        1 5TS     -0.162000
      2 N1          1.0360   -0.1450   -0.2560 n2        1 5TS     -0.050000
      3 O1          1.7100   -0.1980    0.8760 os        1 5TS     -0.070000
      4 S1          0.1370    0.0040    4.5040 ss        1 5TS      0.507000
      5 C2          1.3610   -0.0760    3.3000 c2        1 5TS     -0.534000
      6 C3          0.8180   -0.0470    1.9750 c2        1 5TS      0.093000
      7 C4         -0.4580    0.1030    1.4550 c2        1 5TS     -0.240000
      8 C5          0.9700    0.0180    5.9140 c2        1 5TS     -0.913000
      9 C6          2.2900   -0.0750    6.0540 c2        1 5TS     -0.187000
     10 C7          2.6720   -0.1600    3.5570 c1        1 5TS      0.193000
     11 S8          0.0400    0.2050    7.5140 s6        1 5TS      2.876000
     12 O9         -1.1830   -0.4420    7.2820 o         1 5TS     -1.050333
     13 O10         0.8720   -0.4290    8.4500 o         1 5TS     -1.050333
     14 H1         -1.3930    0.2420    1.9880 ha        1 5TS      0.186000
     15 H4         -1.0350    0.1080   -0.7560 h4        1 5TS      0.177000
     16 H6          3.0070   -0.1620    5.1870 ha        1 5TS      0.137000
     17 H7          2.8010   -0.0870    7.0280 ha        1 5TS      0.137000
     18 OXT        -0.0590    1.5940    7.6760 o         1 5TS     -1.050333
@<TRIPOS>BOND
     1    1    2 1   
     2    1    7 1   
     3    1   15 1   
     4    2    3 1   
     5    3    6 1   
     6    4    5 1   
     7    4    8 1   
     8    5    6 1   
     9    5   10 1   
    10    6    7 1   
    11    7   14 1   
    12    8    9 1   
    13    8   11 1   
    14    9   16 1   
    15    9   17 1   
    16   11   12 1   
    17   11   13 1   
    18   11   18 1   
@<TRIPOS>SUBSTRUCTURE
     1 5TS         1 TEMP              0 ****  ****    0 ROOT
