@<TRIPOS>MOLECULE
5U1
   29    30     1     0     0
SMALL
bcc


@<TRIPOS>ATOM
      1 N3         -0.0710   -0.0900    0.1580 nh        1 5U1     -0.898800
      2 C4          1.2890   -0.0580    0.1170 cc        1 5U1      0.687700
      3 N2          2.1420   -0.0230    1.2160 n2        1 5U1     -0.583100
      4 N           3.3980    0.0010    0.6920 na        1 5U1      0.050200
      5 C2          4.6190    0.0370    1.3420 ca        1 5U1      0.034700
      6 N1          2.0430   -0.0560   -1.1100 na        1 5U1     -0.404000
      7 C3          3.3910   -0.0180   -0.7390 ca        1 5U1      0.594000
      8 N4          4.4980   -0.0040   -1.5300 nb        1 5U1     -0.727000
      9 C5          5.6840    0.0350   -0.8580 ca        1 5U1      0.742600
     10 C1          5.7840    0.0560    0.5930 ca        1 5U1     -0.210600
     11 C           7.1110    0.0970    1.2370 c3        1 5U1     -0.055800
     12 O           6.8680    0.0710   -1.4980 os        1 5U1     -0.408100
     13 C6          6.9280    0.0430   -2.9640 c3        1 5U1      0.154100
     14 C8          8.3110    0.5870   -3.2660 c3        1 5U1     -0.120100
     15 C7          6.7550   -1.3780   -3.4480 c3        1 5U1     -0.120100
     16 H31N       -0.5280   -0.0880    1.0420 hn        1 5U1      0.483300
     17 H32N       -0.6080   -0.1120   -0.6750 hn        1 5U1      0.483300
     18 H1          1.7010   -0.0740   -2.0400 hn        1 5U1      0.365700
     19 H2          4.6040    0.0500    2.4510 h4        1 5U1      0.225000
     20 HC1         7.6640    1.0160    0.9110 hc        1 5U1      0.079033
     21 HC2         7.0270    0.1020    2.3520 hc        1 5U1      0.079033
     22 HC3         7.7150   -0.7940    0.9230 hc        1 5U1      0.079033
     23 H6          6.1360    0.7230   -3.3770 h1        1 5U1      0.079700
     24 H81C        9.0990   -0.0700   -2.8270 hc        1 5U1      0.065200
     25 H82C        8.4290    1.6150   -2.8480 hc        1 5U1      0.065200
     26 H83C        8.4430    0.6250   -4.3750 hc        1 5U1      0.065200
     27 H71C        5.7210   -1.7500   -3.2520 hc        1 5U1      0.065200
     28 H72C        7.4830   -2.0570   -2.9410 hc        1 5U1      0.065200
     29 H73C        6.9420   -1.4120   -4.5490 hc        1 5U1      0.065200
@<TRIPOS>BOND
     1    1    2 1   
     2    1   16 1   
     3    1   17 1   
     4    2    3 2   
     5    2    6 1   
     6    3    4 1   
     7    4    5 1   
     8    4    7 2   
     9    5   10 ar  
    10    5   19 1   
    11    6    7 1   
    12    6   18 1   
    13    7    8 ar  
    14    8    9 ar  
    15    9   10 ar  
    16    9   12 1   
    17   10   11 1   
    18   11   20 1   
    19   11   21 1   
    20   11   22 1   
    21   12   13 1   
    22   13   14 1   
    23   13   15 1   
    24   13   23 1   
    25   14   24 1   
    26   14   25 1   
    27   14   26 1   
    28   15   27 1   
    29   15   28 1   
    30   15   29 1   
@<TRIPOS>SUBSTRUCTURE
     1 5U1         1 TEMP              0 ****  ****    0 ROOT
