@<TRIPOS>MOLECULE
5U1
   29    30     1     0     0
SMALL
bcc


@<TRIPOS>ATOM
      1 N3         -0.0670   -0.0790    0.1730 nv        1 5U1     -0.898800
      2 C4          1.2920   -0.0490    0.1290 cc        1 5U1      0.687700
      3 N2          2.1490   -0.0120    1.2250 n2        1 5U1     -0.583100
      4 N           3.4030    0.0090    0.6960 na        1 5U1      0.050200
      5 C2          4.6260    0.0460    1.3430 ca        1 5U1      0.034700
      6 N1          2.0430   -0.0530   -1.1010 na        1 5U1     -0.404000
      7 C3          3.3920   -0.0160   -0.7340 ca        1 5U1      0.594000
      8 N4          4.4970   -0.0060   -1.5290 nb        1 5U1     -0.727000
      9 C5          5.6850    0.0350   -0.8610 ca        1 5U1      0.742600
     10 C1          5.7890    0.0610    0.5910 ca        1 5U1     -0.210600
     11 C           7.1180    0.1020    1.2310 c3        1 5U1     -0.055800
     12 O           6.8670    0.0660   -1.5040 os        1 5U1     -0.408100
     13 C6          6.9220    0.0330   -2.9700 c3        1 5U1      0.154100
     14 C8          8.3050    0.5740   -3.2790 c3        1 5U1     -0.120100
     15 C7          6.7460   -1.3900   -3.4480 c3        1 5U1     -0.120100
     16 H31N       -0.5220   -0.0740    1.0590 hn        1 5U1      0.483300
     17 H32N       -0.6070   -0.1040   -0.6580 hn        1 5U1      0.483300
     18 H1          1.6980   -0.0730   -2.0300 hn        1 5U1      0.365700
     19 H2          4.6140    0.0630    2.4520 h4        1 5U1      0.225000
     20 HC1         7.6710    1.0190    0.8990 hc        1 5U1      0.079033
     21 HC2         7.0370    0.1120    2.3450 hc        1 5U1      0.079033
     22 HC3         7.7190   -0.7900    0.9180 hc        1 5U1      0.079033
     23 H6          6.1300    0.7120   -3.3830 h1        1 5U1      0.079700
     24 H81C        9.0940   -0.0820   -2.8390 hc        1 5U1      0.065200
     25 H82C        8.4250    1.6040   -2.8640 hc        1 5U1      0.065200
     26 H83C        8.4340    0.6080   -4.3880 hc        1 5U1      0.065200
     27 H71C        6.9300   -1.4280   -4.5500 hc        1 5U1      0.065200
     28 H72C        7.4750   -2.0680   -2.9410 hc        1 5U1      0.065200
     29 H73C        5.7130   -1.7600   -3.2480 hc        1 5U1      0.065200
@<TRIPOS>BOND
     1    1    2 1   
     2    1   16 1   
     3    1   17 1   
     4    2    3 2   
     5    2    6 1   
     6    3    4 1   
     7    4    5 1   
     8    4    7 2   
     9    5   10 ar  
    10    5   19 1   
    11    6    7 1   
    12    6   18 1   
    13    7    8 ar  
    14    8    9 ar  
    15    9   10 ar  
    16    9   12 1   
    17   10   11 1   
    18   11   20 1   
    19   11   21 1   
    20   11   22 1   
    21   12   13 1   
    22   13   14 1   
    23   13   15 1   
    24   13   23 1   
    25   14   24 1   
    26   14   25 1   
    27   14   26 1   
    28   15   27 1   
    29   15   28 1   
    30   15   29 1   
@<TRIPOS>SUBSTRUCTURE
     1 5U1         1 TEMP              0 ****  ****    0 ROOT
