@<TRIPOS>MOLECULE
5UA
   34    32     1     0     0
SMALL
bcc


@<TRIPOS>ATOM
      1 OP1        -2.3270   -0.3690    4.4150 oh        1 5UA     -0.543100
      2 O5'        -0.5850   -0.9640    2.8200 os        1 5UA     -0.372900
      3 C5'         0.1530   -0.0460    2.0490 c3        1 5UA      0.122400
      4 C4'         1.4440   -0.6920    1.5940 c3        1 5UA      0.065100
      5 O4'         1.2970   -1.2120    0.0730 os        1 5UA     -0.404600
      6 C1'         1.4960   -0.1710   -0.6880 c3        1 5UA      0.249800
      7 N9          0.2460    0.4790   -0.9810 n3        1 5UA     -0.131400
      8 C8         -0.2100    1.7510   -0.9500 c1        1 5UA      0.161400
      9 N7         -1.2290    1.8520   -1.8330 ne        1 5UA     -0.382400
     10 C5         -1.4050    0.6350   -2.4130 cg        1 5UA     -0.197000
     11 C6         -2.2920    0.1850   -3.3790 c1        1 5UA      0.626600
     12 N6         -3.4730    0.5980   -4.0490 n3        1 5UA     -0.824400
     13 N1         -2.2450   -1.0920   -3.7910 n1        1 5UA     -0.594800
     14 C2         -1.3250   -1.9490   -3.2590 c1        1 5UA      0.411300
     15 N3         -0.4510   -1.5080   -2.3080 n1        1 5UA     -0.534800
     16 C4         -0.4960   -0.2120   -1.8880 c1        1 5UA      0.028700
     17 C3'         2.3960    0.1770    1.5900 c3        1 5UA      0.128100
     18 C2'         2.4040    0.7630    0.1390 c3        1 5UA     -0.119400
     19 O3'         3.6920   -0.4820    1.8850 oh        1 5UA     -0.591800
     20 C6'        -0.9640   -0.4740    4.0810 c         1 5UA      0.770200
     21 OP3        -0.1140   -0.1460    4.8850 o         1 5UA     -0.620000
     22 HP1        -2.4350   -0.5510    5.2790 ho        1 5UA      0.462000
     23 H5'1       -0.3730    0.2210    1.2660 h1        1 5UA      0.085700
     24 H5'2        0.3560    0.7450    2.5900 h1        1 5UA      0.085700
     25 H4'         1.6720   -1.4380    2.1830 h1        1 5UA      0.098700
     26 H3'         2.2150    0.8830    2.2420 h1        1 5UA      0.059700
     27 H1'         1.9440   -0.4360   -1.5150 h2        1 5UA      0.126700
     28 H2'1        3.3120    0.7590   -0.2230 hc        1 5UA      0.087700
     29 H2'2        2.0430    1.6730    0.1390 hc        1 5UA      0.087700
     30 H8          0.1440    2.4730   -0.3970 DU        1 5UA      0.197000
     31 H61N       -3.8480    1.4090   -3.8560 hn        1 5UA      0.449800
     32 H62N       -3.8600    0.0520   -4.6720 hn        1 5UA      0.449800
     33 H2         -1.2910   -2.8770   -3.5590 ha        1 5UA      0.132500
     34 HO3'        4.1100   -0.0370    2.5320 ho        1 5UA      0.428000
@<TRIPOS>BOND
     1    1   20 1   
     2    1   22 1   
     3    2    3 1   
     4    2   20 1   
     5    3    4 1   
     6    3   23 1   
     7    3   24 1   
     8    4    5 1   
     9    4   17 1   
    10    4   25 1   
    11    5    6 1   
    12    6    7 1   
    13    6   18 1   
    14    6   27 1   
    15    7    8 2   
    16    7   16 1   
    17    8    9 2   
    18    9   10 1   
    19   10   16 3   
    20   11   12 1   
    21   11   13 3   
    22   12   31 1   
    23   12   32 1   
    24   14   15 3   
    25   14   33 1   
    26   17   18 1   
    27   17   19 1   
    28   17   26 1   
    29   18   28 1   
    30   18   29 1   
    31   19   34 1   
    32   20   21 2   
@<TRIPOS>SUBSTRUCTURE
     1 5UA         1 TEMP              0 ****  ****    0 ROOT
