@<TRIPOS>MOLECULE
5UA
   34    36     1     0     0
SMALL
bcc


@<TRIPOS>ATOM
      1 OP1         4.9190   -2.0620   -0.3010 oh        1 5UA     -0.549100
      2 O5'         3.8910   -0.3520    0.5980 os        1 5UA     -0.380900
      3 C5'         2.6970    0.3370    1.0150 c3        1 5UA      0.120400
      4 C4'         2.2530    1.2820   -0.0980 c3        1 5UA      0.105100
      5 O4'         1.4460    0.5780   -1.0500 os        1 5UA     -0.408600
      6 C1'         0.0890    1.0470   -1.0300 c3        1 5UA      0.271800
      7 N9         -0.7740    0.0540   -0.4210 na        1 5UA     -0.302000
      8 C8         -0.4540   -1.2790   -0.0540 cc        1 5UA      0.421700
      9 N7         -1.5130   -1.9820    0.3680 nd        1 5UA     -0.550100
     10 C5         -2.6040   -1.1050    0.2710 ca        1 5UA     -0.227200
     11 C6         -4.0020   -1.2510    0.5590 ca        1 5UA      0.758200
     12 N6         -4.4780   -2.4230    1.0890 nh        1 5UA     -0.955500
     13 N1         -4.8420   -0.1870    0.3230 nb        1 5UA     -0.795000
     14 C2         -4.2870    0.9570   -0.1580 ca        1 5UA      0.683900
     15 N3         -2.9990    1.2430   -0.4620 nb        1 5UA     -0.747000
     16 C4         -2.1600    0.1870   -0.2390 ca        1 5UA      0.449800
     17 C3'         1.4230    2.4610    0.4520 c3        1 5UA      0.121100
     18 C2'         0.0950    2.4130   -0.3100 c3        1 5UA     -0.151400
     19 O3'         2.1580    3.6410    0.1840 oh        1 5UA     -0.587800
     20 C6'         3.7230   -1.6100    0.1300 c         1 5UA      0.773200
     21 OP3         2.6830   -2.2680    0.1180 o         1 5UA     -0.595000
     22 HP1         4.7890   -2.9720   -0.6220 ho        1 5UA      0.460000
     23 H5'1        1.8870   -0.3870    1.2880 h1        1 5UA      0.086700
     24 H5'2        3.0430    0.9200    1.9110 h1        1 5UA      0.086700
     25 H4'         3.1480    1.6520   -0.6750 h1        1 5UA      0.115700
     26 H3'         1.2560    2.3650    1.5590 h1        1 5UA      0.053700
     27 H1'        -0.2060    1.1480   -2.1180 h2        1 5UA      0.098700
     28 H2'1        0.0590    3.2240   -1.0810 hc        1 5UA      0.088700
     29 H2'2       -0.7740    2.5470    0.3770 hc        1 5UA      0.088700
     30 H8          0.5800   -1.6550   -0.1330 h5        1 5UA      0.110800
     31 H61N       -3.8670   -3.2000    1.1350 hn        1 5UA      0.446300
     32 H62N       -5.4510   -2.5620    1.1990 hn        1 5UA      0.446300
     33 H2         -5.0100    1.7830   -0.3290 h5        1 5UA      0.050100
     34 HO3'        1.6090    4.3830    0.4700 ho        1 5UA      0.412000
@<TRIPOS>BOND
     1    1   20 1   
     2    1   22 1   
     3    2    3 1   
     4    2   20 1   
     5    3    4 1   
     6    3   23 1   
     7    3   24 1   
     8    4    5 1   
     9    4   17 1   
    10    4   25 1   
    11    5    6 1   
    12    6    7 1   
    13    6   18 1   
    14    6   27 1   
    15    7    8 1   
    16    7   16 1   
    17    8    9 2   
    18    8   30 1   
    19    9   10 1   
    20   10   11 ar  
    21   10   16 ar  
    22   11   12 1   
    23   11   13 ar  
    24   12   31 1   
    25   12   32 1   
    26   13   14 ar  
    27   14   15 ar  
    28   14   33 1   
    29   15   16 ar  
    30   17   18 1   
    31   17   19 1   
    32   17   26 1   
    33   18   28 1   
    34   18   29 1   
    35   19   34 1   
    36   20   21 2   
@<TRIPOS>SUBSTRUCTURE
     1 5UA         1 TEMP              0 ****  ****    0 ROOT
