@<TRIPOS>MOLECULE
5UC
   12    12     1     0     0
SMALL
bcc


@<TRIPOS>ATOM
      1 O2         -0.0840   -0.0030   -0.0220 o         1 5UC     -0.628500
      2 C2          1.1640   -0.0030   -0.0010 c         1 5UC      0.803500
      3 N3          1.8870   -0.0010    1.1990 n         1 5UC     -0.583500
      4 C4          3.2940   -0.0000    1.2540 c         1 5UC      0.723700
      5 O4          3.8400    0.0020    2.3660 o         1 5UC     -0.581500
      6 N1          1.8910   -0.0050   -1.2140 n         1 5UC     -0.466100
      7 C6          3.2680   -0.0050   -1.2150 cc        1 5UC      0.051600
      8 C5          3.9850   -0.0030   -0.0510 cd        1 5UC     -0.179800
      9 CL5         5.6690   -0.0020   -0.0740 cl        1 5UC     -0.032400
     10 H1          1.3630    0.0010    2.0490 hn        1 5UC      0.358500
     11 H2          3.7520   -0.0070   -2.2110 h4        1 5UC      0.175000
     12 H4          1.3710   -0.0070   -2.0620 hn        1 5UC      0.359500
@<TRIPOS>BOND
     1    1    2 2   
     2    2    3 1   
     3    2    6 1   
     4    3    4 1   
     5    3   10 1   
     6    4    5 2   
     7    4    8 1   
     8    6    7 1   
     9    6   12 1   
    10    7    8 2   
    11    7   11 1   
    12    8    9 1   
@<TRIPOS>SUBSTRUCTURE
     1 5UC         1 TEMP              0 ****  ****    0 ROOT
