@<TRIPOS>MOLECULE
5UD
   29    30     1     0     0
SMALL
bcc


@<TRIPOS>ATOM
      1 F5          0.4060   -0.8580    0.2380 f         1 5UD     -0.129500
      2 C5          1.7050   -0.5220    0.0960 cc        1 5UD     -0.021700
      3 C4          2.5550   -0.5360    1.3130 c         1 5UD      0.702700
      4 O4          2.1640   -0.8290    2.4500 o         1 5UD     -0.571500
      5 N3          3.8970   -0.1860    1.1030 ns        1 5UD     -0.580500
      6 C2          4.4270    0.1540   -0.1500 c         1 5UD      0.810500
      7 O2          5.6440    0.4290   -0.2470 o         1 5UD     -0.650500
      8 C6          2.2300   -0.1790   -1.1220 cd        1 5UD      0.000600
      9 N1          3.5550    0.2110   -1.2710 n         1 5UD     -0.371000
     10 C1'         4.0620    0.4170   -2.6260 c3        1 5UD      0.311500
     11 C2'         5.1300    1.5390   -2.7640 c3        1 5UD      0.087100
     12 O2'         4.6350    2.4140   -3.7630 oh        1 5UD     -0.602800
     13 C3'         6.4170    0.8260   -3.2390 c3        1 5UD      0.096100
     14 O3'         6.9100    1.4100   -4.4230 oh        1 5UD     -0.585800
     15 C4'         6.0320   -0.6510   -3.4200 c3        1 5UD      0.066100
     16 O4'         4.6280   -0.7900   -3.1480 os        1 5UD     -0.429600
     17 C5'         6.8160   -1.5770   -2.4920 c3        1 5UD      0.116400
     18 O5'         6.4880   -2.9290   -2.7300 oh        1 5UD     -0.591800
     19 HN3         4.5300   -0.1900    1.8760 hn        1 5UD      0.360500
     20 H6          1.6070   -0.1820   -2.0380 h4        1 5UD      0.184000
     21 H1'         3.1710    0.6450   -3.2890 h2        1 5UD      0.111700
     22 H2'         5.3060    2.1010   -1.8100 h1        1 5UD      0.093700
     23 HO2'        5.3200    3.0830   -3.9070 ho        1 5UD      0.429000
     24 H3'         7.2440    0.9480   -2.4860 h1        1 5UD      0.116700
     25 HO3'        6.2370    1.2980   -5.1100 ho        1 5UD      0.414000
     26 H4'         6.1560   -0.9840   -4.4890 h1        1 5UD      0.090700
     27 H5'1        6.6220   -1.3060   -1.4200 h1        1 5UD      0.066200
     28 H5'2        7.9140   -1.4990   -2.7160 h1        1 5UD      0.066200
     29 HO5'        5.5350   -3.0170   -2.6020 ho        1 5UD      0.409000
@<TRIPOS>BOND
     1    1    2 1   
     2    2    3 1   
     3    2    8 2   
     4    3    4 2   
     5    3    5 1   
     6    5    6 1   
     7    5   19 1   
     8    6    7 2   
     9    6    9 1   
    10    8    9 1   
    11    8   20 1   
    12    9   10 1   
    13   10   11 1   
    14   10   16 1   
    15   10   21 1   
    16   11   12 1   
    17   11   13 1   
    18   11   22 1   
    19   12   23 1   
    20   13   14 1   
    21   13   15 1   
    22   13   24 1   
    23   14   25 1   
    24   15   16 1   
    25   15   17 1   
    26   15   26 1   
    27   17   18 1   
    28   17   27 1   
    29   17   28 1   
    30   18   29 1   
@<TRIPOS>SUBSTRUCTURE
     1 5UD         1 TEMP              0 ****  ****    0 ROOT
