@<TRIPOS>MOLECULE
5UD
   29    30     1     0     0
SMALL
bcc


@<TRIPOS>ATOM
      1 F5          0.3360   -0.7160    0.1280 f         1 5UD     -0.128500
      2 C5          1.6510   -0.4340    0.0280 cc        1 5UD     -0.017700
      3 C4          2.4600   -0.4880    1.2720 c         1 5UD      0.701700
      4 O4          2.0210   -0.7720    2.3940 o         1 5UD     -0.570500
      5 N3          3.8200   -0.1900    1.1070 n         1 5UD     -0.581500
      6 C2          4.4040    0.1340   -0.1270 c         1 5UD      0.808500
      7 O2          5.6320    0.3630   -0.1780 o         1 5UD     -0.645500
      8 C6          2.2290   -0.1110   -1.1700 cd        1 5UD     -0.007400
      9 N1          3.5700    0.2450   -1.2750 n         1 5UD     -0.368000
     10 C1'         4.1430    0.3430   -2.6180 c3        1 5UD      0.281500
     11 C2'         5.2360    1.4410   -2.8000 c3        1 5UD      0.078100
     12 O2'         4.7450    2.4550   -3.6520 oh        1 5UD     -0.590800
     13 C3'         6.4040    0.7250   -3.5160 c3        1 5UD      0.136100
     14 O3'         6.5280    1.0660   -4.8810 oh        1 5UD     -0.585800
     15 C4'         6.0640   -0.7740   -3.4530 c3        1 5UD      0.097100
     16 O4'         4.6990   -0.9120   -3.0200 os        1 5UD     -0.427600
     17 C5'         6.9720   -1.5320   -2.4860 c3        1 5UD      0.110400
     18 O5'         6.6920   -2.9160   -2.5080 oh        1 5UD     -0.590800
     19 HN3         4.4290   -0.2320    1.8980 hn        1 5UD      0.360500
     20 H6          1.6380   -0.0960   -2.1060 h4        1 5UD      0.183000
     21 H1'         3.2860    0.5480   -3.3320 h2        1 5UD      0.098700
     22 H2'         5.5840    1.8680   -1.8220 h1        1 5UD      0.094700
     23 HO2'        4.2700    3.0870   -3.0980 ho        1 5UD      0.419000
     24 H3'         7.3700    0.9510   -2.9870 h1        1 5UD      0.068700
     25 HO3'        6.4130    2.0230   -4.9580 ho        1 5UD      0.427000
     26 H4'         6.0950   -1.2420   -4.4760 h1        1 5UD      0.109700
     27 H5'1        6.8570   -1.1250   -1.4440 h1        1 5UD      0.066200
     28 H5'2        8.0400   -1.4460   -2.8190 h1        1 5UD      0.066200
     29 HO5'        5.7570   -3.0200   -2.2920 ho        1 5UD      0.409000
@<TRIPOS>BOND
     1    1    2 1   
     2    2    3 1   
     3    2    8 2   
     4    3    4 2   
     5    3    5 1   
     6    5    6 1   
     7    5   19 1   
     8    6    7 2   
     9    6    9 1   
    10    8    9 1   
    11    8   20 1   
    12    9   10 1   
    13   10   11 1   
    14   10   16 1   
    15   10   21 1   
    16   11   12 1   
    17   11   13 1   
    18   11   22 1   
    19   12   23 1   
    20   13   14 1   
    21   13   15 1   
    22   13   24 1   
    23   14   25 1   
    24   15   16 1   
    25   15   17 1   
    26   15   26 1   
    27   17   18 1   
    28   17   27 1   
    29   17   28 1   
    30   18   29 1   
@<TRIPOS>SUBSTRUCTURE
     1 5UD         1 TEMP              0 ****  ****    0 ROOT
