@<TRIPOS>MOLECULE
5UD
   29    29     1     0     0
SMALL
bcc


@<TRIPOS>ATOM
      1 F5         -0.1310   -1.9540    1.7250 f         1 5UD     -0.071000
      2 C5         -1.4190   -1.5670    1.7520 c2        1 5UD     -0.069000
      3 C4         -2.3700   -2.4540    0.8790 c2        1 5UD      0.343000
      4 O4         -3.5590   -2.1810    1.0130 o         1 5UD     -0.302000
      5 N3         -2.0600   -2.4850   -0.3800 n         1 5UD     -0.362000
      6 C2         -1.5590   -1.2010   -0.9320 c2        1 5UD      0.404000
      7 O2         -1.6420   -0.9780   -2.1280 o         1 5UD     -0.344000
      8 C6         -1.5150   -0.3230    1.4770 c1        1 5UD     -0.012000
      9 N1         -1.4230    0.0060    0.0930 n2        1 5UD     -0.264000
     10 C1'        -0.7940    1.2510   -0.3220 c3        1 5UD      0.107000
     11 C2'         0.3510    1.6440    0.6820 c3        1 5UD      0.016000
     12 O2'         0.2580    2.9510    1.0060 oh        1 5UD     -0.290000
     13 C3'         1.6420    1.3760   -0.0530 c3        1 5UD     -0.025000
     14 O3'         2.2940    2.6790   -0.4630 oh        1 5UD     -0.317000
     15 C4'         1.2870    0.6830   -1.1220 c3        1 5UD     -0.021000
     16 O4'        -0.2150    1.1000   -1.4470 os        1 5UD     -0.264000
     17 C5'         1.3630   -0.7940   -0.8320 c3        1 5UD     -0.038000
     18 O5'         2.6560   -1.2820   -1.1780 oh        1 5UD     -0.340000
     19 HN3        -2.5840   -3.0190   -0.9450 hn        1 5UD      0.274000
     20 H6         -1.4360    0.3680    2.1770 ha        1 5UD      0.173000
     21 H1'        -1.4620    1.9700   -0.3760 h2        1 5UD      0.186000
     22 H2'         0.2990    1.0900    1.4880 h1        1 5UD      0.141000
     23 HO2'        0.2240    3.0350    1.8940 ho        1 5UD      0.227000
     24 H3'         2.2360    0.8630    0.4940 h1        1 5UD      0.112000
     25 HO3'        3.1540    2.6760   -0.2100 ho        1 5UD      0.228000
     26 H4'         1.8720    0.9090   -1.8810 h1        1 5UD      0.132000
     27 H5'1        0.6890   -1.2620   -1.3570 h1        1 5UD      0.080500
     28 H5'2        1.1970   -0.9520    0.1360 h1        1 5UD      0.080500
     29 HO5'        2.6450   -2.1490   -1.1880 ho        1 5UD      0.216000
@<TRIPOS>BOND
     1    1    2 1   
     2    2    3 1   
     3    2    8 1   
     4    3    4 1   
     5    3    5 1   
     6    5    6 1   
     7    5   19 1   
     8    6    7 1   
     9    6    9 1   
    10    8   20 1   
    11    9   10 1   
    12   10   11 1   
    13   10   16 1   
    14   10   21 1   
    15   11   12 1   
    16   11   13 1   
    17   11   22 1   
    18   12   23 1   
    19   13   14 1   
    20   13   15 1   
    21   13   24 1   
    22   14   25 1   
    23   15   16 1   
    24   15   17 1   
    25   15   26 1   
    26   17   18 1   
    27   17   27 1   
    28   17   28 1   
    29   18   29 1   
@<TRIPOS>SUBSTRUCTURE
     1 5UD         1 TEMP              0 ****  ****    0 ROOT
