@<TRIPOS>MOLECULE
5UD
   29    30     1     0     0
SMALL
bcc


@<TRIPOS>ATOM
      1 F5          0.2910    1.6420   -3.8490 f         1 5UD     -0.129500
      2 C5          0.3450    0.7870   -2.8080 cc        1 5UD     -0.023700
      3 C4          1.1940   -0.4220   -2.9570 c         1 5UD      0.702700
      4 O4          1.8510   -0.7120   -3.9650 o         1 5UD     -0.572500
      5 N3          1.2220   -1.2680   -1.8380 n         1 5UD     -0.580500
      6 C2          0.5140   -1.0180   -0.6530 c         1 5UD      0.812500
      7 O2          0.6240   -1.8140    0.3060 o         1 5UD     -0.654500
      8 C6         -0.3510    1.0160   -1.6510 cd        1 5UD      0.001600
      9 N1         -0.3330    0.1200   -0.5880 n         1 5UD     -0.369000
     10 C1'        -1.0050    0.5050    0.6510 c3        1 5UD      0.271500
     11 C2'        -1.6610   -0.6710    1.4460 c3        1 5UD      0.139100
     12 O2'        -3.0240   -0.3920    1.6380 oh        1 5UD     -0.574800
     13 C3'        -0.8320   -0.7700    2.7450 c3        1 5UD      0.090100
     14 O3'        -1.7310   -0.6820    3.8340 oh        1 5UD     -0.596800
     15 C4'         0.1310    0.4300    2.7300 c3        1 5UD      0.060100
     16 O4'        -0.1020    1.1840    1.5300 os        1 5UD     -0.427600
     17 C5'         1.5990    0.0060    2.7750 c3        1 5UD      0.114400
     18 O5'         2.4480    1.1290    2.8650 oh        1 5UD     -0.591800
     19 HN3         1.7820   -2.0950   -1.8630 hn        1 5UD      0.360500
     20 H6         -0.9750    1.9210   -1.5250 h4        1 5UD      0.183000
     21 H1'        -1.7940    1.2720    0.3800 h2        1 5UD      0.103700
     22 H2'        -1.6380   -1.6410    0.8780 h1        1 5UD      0.119700
     23 HO2'       -3.1180    0.1900    2.4060 ho        1 5UD      0.427000
     24 H3'        -0.2670   -1.7400    2.7610 h1        1 5UD      0.087700
     25 HO3'       -1.2490   -0.9610    4.6210 ho        1 5UD      0.421000
     26 H4'        -0.0920    1.1450    3.5710 h1        1 5UD      0.090700
     27 H5'1        1.8510   -0.6100    1.8710 h1        1 5UD      0.062200
     28 H5'2        1.7980   -0.5850    3.7080 h1        1 5UD      0.062200
     29 HO5'        2.2600    1.6900    2.1010 ho        1 5UD      0.411000
@<TRIPOS>BOND
     1    1    2 1   
     2    2    3 1   
     3    2    8 2   
     4    3    4 2   
     5    3    5 1   
     6    5    6 1   
     7    5   19 1   
     8    6    7 2   
     9    6    9 1   
    10    8    9 1   
    11    8   20 1   
    12    9   10 1   
    13   10   11 1   
    14   10   16 1   
    15   10   21 1   
    16   11   12 1   
    17   11   13 1   
    18   11   22 1   
    19   12   23 1   
    20   13   14 1   
    21   13   15 1   
    22   13   24 1   
    23   14   25 1   
    24   15   16 1   
    25   15   17 1   
    26   15   26 1   
    27   17   18 1   
    28   17   27 1   
    29   17   28 1   
    30   18   29 1   
@<TRIPOS>SUBSTRUCTURE
     1 5UD         1 TEMP              0 ****  ****    0 ROOT
