@<TRIPOS>MOLECULE
5UM
   32    33     1     0     0
SMALL
bcc


@<TRIPOS>ATOM
      1 C01         0.2000   -0.3380   -0.0120 ca        1 5UM     -0.620500
      2 F01         2.0880   -2.1570    2.5650 f         1 5UM     -0.114900
      3 N01        -1.6020   -1.4880   -1.6100 nz        1 5UM     -0.782500
      4 O01        -0.5480    0.7800   -2.1280 o         1 5UM     -0.574800
      5 S01        -0.0100   -0.3620   -1.5740 sy        1 5UM      1.511200
      6 C02         1.0340   -1.2830    0.6340 ca        1 5UM      0.002000
      7 O02         0.8420   -1.1780   -2.2870 o         1 5UM     -0.574800
      8 C03         1.2810   -1.2270    1.9940 ca        1 5UM      0.030900
      9 C04         0.6970   -0.1840    2.8210 ca        1 5UM      0.206600
     10 C05        -0.1360    0.7600    2.1520 ca        1 5UM     -0.200000
     11 C06        -0.3630    0.6800    0.8000 ca        1 5UM      0.043000
     12 N07         0.9770   -0.1500    4.1580 ns        1 5UM     -0.441100
     13 C08         0.4680    0.7510    5.1280 c         1 5UM      0.673100
     14 O08        -0.3730    1.6060    4.8310 o         1 5UM     -0.533100
     15 C09         1.0360    0.6270    6.5320 c3        1 5UM     -0.061100
     16 C10         1.2790   -0.7520    6.9720 cc        1 5UM     -0.197400
     17 C11         2.4460   -1.4720    6.7550 cd        1 5UM     -0.153000
     18 C12         2.3880   -2.7620    7.3570 cd        1 5UM     -0.152000
     19 C13         1.1870   -2.9590    8.0100 cc        1 5UM     -0.158100
     20 S14         0.1930   -1.6350    7.8940 ss        1 5UM      0.098200
     21 HN01       -2.3730   -0.9900   -2.0470 hn        1 5UM      0.449467
     22 HN0A       -1.4240   -2.3280   -2.1540 hn        1 5UM      0.449467
     23 H02         1.5210   -2.0800    0.0380 ha        1 5UM      0.181000
     24 H05        -0.6040    1.5840    2.7260 ha        1 5UM      0.211000
     25 H06        -0.9960    1.4520    0.3190 ha        1 5UM      0.171000
     26 HN07        1.5950   -0.8640    4.5090 hn        1 5UM      0.361500
     27 H09         1.9960    1.2190    6.5520 hc        1 5UM      0.106700
     28 H09A        0.3080    1.1460    7.2190 hc        1 5UM      0.106700
     29 H11         3.3240   -1.1020    6.2200 ha        1 5UM      0.155000
     30 H12         3.2050   -3.4860    7.3070 ha        1 5UM      0.169000
     31 H13         0.9110   -3.8640    8.5540 h4        1 5UM      0.188000
     32 H013       -1.8930   -1.7690   -0.6810 hn        1 5UM      0.449467
@<TRIPOS>BOND
     1    1    5 1   
     2    1    6 ar  
     3    1   11 ar  
     4    2    8 1   
     5    3    5 1   
     6    3   21 1   
     7    3   22 1   
     8    3   32 1   
     9    4    5 2   
    10    5    7 2   
    11    6    8 ar  
    12    6   23 1   
    13    8    9 ar  
    14    9   10 ar  
    15    9   12 1   
    16   10   11 ar  
    17   10   24 1   
    18   11   25 1   
    19   12   13 1   
    20   12   26 1   
    21   13   14 2   
    22   13   15 1   
    23   15   16 1   
    24   15   27 1   
    25   15   28 1   
    26   16   17 2   
    27   16   20 1   
    28   17   18 1   
    29   17   29 1   
    30   18   19 2   
    31   18   30 1   
    32   19   20 1   
    33   19   31 1   
@<TRIPOS>SUBSTRUCTURE
     1 5UM         1 TEMP              0 ****  ****    0 ROOT
