@<TRIPOS>MOLECULE
5UM
   33    34     1     0     0
SMALL
bcc


@<TRIPOS>ATOM
      1 C01        -0.3790   -0.2340    0.1660 ca        1 5UM     -0.431500
      2 F01         2.0090    1.2870    2.4970 f         1 5UM     -0.084900
      3 N01         0.1530   -1.0340   -2.3560 n4        1 5UM     -0.803500
      4 O01        -2.2020   -0.6090   -1.5320 o         1 5UM     -0.527800
      5 S01        -1.0080    0.0420   -1.3360 sy        1 5UM      1.459200
      6 C02         0.6080    0.6120    0.6900 ca        1 5UM     -0.019000
      7 O02        -0.6950    1.2880   -1.8190 o         1 5UM     -0.527800
      8 C03         1.0640    0.4570    2.0100 ca        1 5UM      0.153900
      9 C04         0.5140   -0.5680    2.8320 ca        1 5UM      0.036600
     10 C05        -0.4770   -1.4110    2.3030 ca        1 5UM     -0.089000
     11 C06        -0.9110   -1.2410    0.9900 ca        1 5UM      0.006000
     12 N07         0.9750   -0.7350    4.2050 n4        1 5UM     -0.577200
     13 C08         2.0680   -1.8140    4.4020 c         1 5UM      0.562100
     14 O08         2.4690   -2.3540    3.3910 o         1 5UM     -0.400100
     15 C09         2.4700   -2.0450    5.8350 c3        1 5UM     -0.040100
     16 C10         1.8610   -1.1390    6.8080 cc        1 5UM     -0.314400
     17 C11         0.5340   -1.2080    7.2440 cd        1 5UM     -0.160000
     18 C12         0.2790   -0.2830    8.2860 cd        1 5UM     -0.142000
     19 C13         1.4240    0.4300    8.6140 cc        1 5UM     -0.145100
     20 S14         2.7190   -0.0190    7.7020 ss        1 5UM      0.203200
     21 HN01       -0.3760   -1.7480   -2.8660 hn        1 5UM      0.473467
     22 HN0A        0.6410   -0.4690   -3.0570 hn        1 5UM      0.473467
     23 H02         1.0300    1.4420    0.0840 ha        1 5UM      0.213000
     24 H05        -0.9310   -2.2140    2.9150 ha        1 5UM      0.194000
     25 H06        -1.7140   -1.9050    0.6060 ha        1 5UM      0.202000
     26 HN07        0.1810   -0.9840    4.8180 hn        1 5UM      0.486800
     27 H09         3.6000   -1.9820    5.8570 hc        1 5UM      0.141200
     28 H09A        2.1960   -3.1210    6.0630 hc        1 5UM      0.141200
     29 H11        -0.2110   -1.9250    6.8880 ha        1 5UM      0.153000
     30 H12        -0.6930   -0.1690    8.7780 ha        1 5UM      0.190000
     31 H13         1.4730    1.1900    9.4020 h4        1 5UM      0.213000
     32 H013        0.8640   -1.5170   -1.8110 hn        1 5UM      0.473467
     33 H072        1.3660    0.1550    4.5530 hn        1 5UM      0.486800
@<TRIPOS>BOND
     1    1    5 1   
     2    1    6 ar  
     3    1   11 ar  
     4    2    8 1   
     5    3    5 1   
     6    3   21 1   
     7    3   22 1   
     8    3   32 1   
     9    4    5 2   
    10    5    7 2   
    11    6    8 ar  
    12    6   23 1   
    13    8    9 ar  
    14    9   10 ar  
    15    9   12 1   
    16   10   11 ar  
    17   10   24 1   
    18   11   25 1   
    19   12   13 1   
    20   12   26 1   
    21   12   33 1   
    22   13   14 2   
    23   13   15 1   
    24   15   16 1   
    25   15   27 1   
    26   15   28 1   
    27   16   17 2   
    28   16   20 1   
    29   17   18 1   
    30   17   29 1   
    31   18   19 2   
    32   18   30 1   
    33   19   20 1   
    34   19   31 1   
@<TRIPOS>SUBSTRUCTURE
     1 5UM         1 TEMP              0 ****  ****    0 ROOT
