@<TRIPOS>MOLECULE
5UM
   31    26     1     0     0
SMALL
bcc


@<TRIPOS>ATOM
      1 C01        -1.9460    1.0170   -2.6490 c1        1 5UM     -0.829000
      2 F01         1.3230    0.3130   -1.2530 f         1 5UM     -0.080000
      3 N01        -2.9970    2.5690   -4.7340 n3        1 5UM     -0.954000
      4 O01        -2.0310    0.2610   -5.1930 o         1 5UM     -0.935500
      5 S01        -2.7630    1.0250   -4.2230 s6        1 5UM      2.869000
      6 C02        -0.5990    0.6970   -2.5680 c1        1 5UM     -0.035000
      7 O02        -4.0010    0.2990   -4.1720 o         1 5UM     -0.935500
      8 C03         0.0290    0.6490   -1.3330 c1        1 5UM      0.056000
      9 C04        -0.6890    0.9220   -0.1780 c1        1 5UM      0.102000
     10 C05        -2.0360    1.2420   -0.2590 c2        1 5UM     -0.187000
     11 C06        -2.6650    1.2890   -1.4940 c1        1 5UM     -0.011000
     12 N07        -0.0280    0.9490    1.0780 n2        1 5UM     -0.326000
     13 C08         0.9190   -0.0570    1.4040 c2        1 5UM      0.306000
     14 O08         1.1640   -0.9410    0.6070 o         1 5UM     -0.316000
     15 C09         1.6690    0.0080    2.7170 c3        1 5UM     -0.109000
     16 C10         2.1920   -1.3680    3.0680 c2        1 5UM     -0.410000
     17 C11         3.5600   -1.6950    3.4230 c1        1 5UM     -0.157000
     18 C12         3.6190   -3.2350    3.8240 c1        1 5UM     -0.155000
     19 C13         2.2840   -3.7900    3.6980 c1        1 5UM     -0.437000
     20 S14         1.3380   -2.6550    3.2230 ss        1 5UM      0.584000
     21 HN01       -2.3110    3.0310   -5.1240 hn        1 5UM      0.242500
     22 HN0A       -3.8120    2.9670   -4.6250 hn        1 5UM      0.242500
     23 H02        -0.0910    0.5170   -3.3820 ha        1 5UM      0.169000
     24 H05        -2.5420    1.4330    0.5530 ha        1 5UM      0.143000
     25 H06        -3.6130    1.5140   -1.5510 ha        1 5UM      0.159000
     26 HN07       -0.2200    1.6070    1.6800 hn        1 5UM      0.244000
     27 H09         2.4200    0.6300    2.6340 hc        1 5UM      0.132000
     28 H09A        1.0670    0.3160    3.4220 hc        1 5UM      0.132000
     29 H11         4.3160   -1.0770    3.4170 DU        1 5UM      0.165333
     30 H12         4.4160   -3.7230    4.1060 DU        1 5UM      0.165333
     31 H13         2.0270   -4.7130    3.8810 DU        1 5UM      0.165333
@<TRIPOS>BOND
     1    1    5 1   
     2    1    6 1   
     3    2    8 1   
     4    3    5 1   
     5    3   21 1   
     6    3   22 1   
     7    4    5 1   
     8    5    7 1   
     9    6   23 1   
    10    8    9 1   
    11    9   10 1   
    12   10   11 1   
    13   10   24 1   
    14   11   25 1   
    15   12   13 1   
    16   12   26 1   
    17   13   14 1   
    18   13   15 1   
    19   15   16 1   
    20   15   27 1   
    21   15   28 1   
    22   16   17 1   
    23   16   20 1   
    24   17   18 1   
    25   18   19 1   
    26   19   20 1   
@<TRIPOS>SUBSTRUCTURE
     1 5UM         1 TEMP              0 ****  ****    0 ROOT
