@<TRIPOS>MOLECULE
5UM
   31    32     1     0     0
SMALL
bcc


@<TRIPOS>ATOM
      1 C01        -2.8860    0.0180   -0.2350 ca        1 5UM     -0.398500
      2 F01         0.0720    1.4130   -1.8810 f         1 5UM     -0.144900
      3 N01        -4.6900   -1.5240   -1.2480 n3        1 5UM     -1.026700
      4 O01        -5.1920   -0.1930    0.7540 o         1 5UM     -0.657800
      5 S01        -4.5490   -0.1160   -0.4990 sy        1 5UM      1.531200
      6 C02        -2.0660    0.6580   -1.1670 ca        1 5UM     -0.024000
      7 O02        -4.9420    0.9160   -1.3780 o         1 5UM     -0.657800
      8 C03        -0.6920    0.7840   -0.9490 ca        1 5UM      0.032900
      9 C04        -0.0880    0.2610    0.2440 ca        1 5UM      0.112600
     10 C05        -0.9390   -0.3700    1.1770 ca        1 5UM     -0.176000
     11 C06        -2.3010   -0.4810    0.9330 ca        1 5UM      0.000000
     12 N07         1.2850    0.4150    0.4310 n         1 5UM     -0.464100
     13 C08         2.0650   -0.1110    1.4560 c         1 5UM      0.671100
     14 O08         1.6020   -0.8090    2.3740 o         1 5UM     -0.578100
     15 C09         3.5470    0.2490    1.4380 c3        1 5UM     -0.075100
     16 C10         4.1700    0.1700    0.1110 cc        1 5UM     -0.153400
     17 C11         4.2330    1.1970   -0.8160 cd        1 5UM     -0.156000
     18 C12         4.9360    0.8040   -1.9940 cd        1 5UM     -0.152000
     19 C13         5.3800   -0.4990   -1.9070 cc        1 5UM     -0.168100
     20 S14         4.9560   -1.2010   -0.4590 ss        1 5UM      0.063200
     21 HN01       -4.8360   -2.3820   -0.7780 hn        1 5UM      0.447800
     22 HN0A       -4.6620   -1.6270   -2.2310 hn        1 5UM      0.447800
     23 H02        -2.5050    1.0910   -2.0850 ha        1 5UM      0.170000
     24 H05        -0.5270   -0.7800    2.1160 ha        1 5UM      0.185000
     25 H06        -2.9440   -0.9610    1.6940 ha        1 5UM      0.159000
     26 HN07        1.7700    0.9010   -0.2980 hn        1 5UM      0.339500
     27 H09         3.6420    1.2930    1.8490 hc        1 5UM      0.091200
     28 H09A        4.0580   -0.4460    2.1600 hc        1 5UM      0.091200
     29 H11         3.8140    2.1960   -0.6750 ha        1 5UM      0.155000
     30 H12         5.0930    1.4690   -2.8470 ha        1 5UM      0.160000
     31 H13         5.9410   -1.0260   -2.6780 h4        1 5UM      0.177000
@<TRIPOS>BOND
     1    1    5 1   
     2    1    6 ar  
     3    1   11 ar  
     4    2    8 1   
     5    3    5 1   
     6    3   21 1   
     7    3   22 1   
     8    4    5 2   
     9    5    7 2   
    10    6    8 ar  
    11    6   23 1   
    12    8    9 ar  
    13    9   10 ar  
    14    9   12 1   
    15   10   11 ar  
    16   10   24 1   
    17   11   25 1   
    18   12   13 1   
    19   12   26 1   
    20   13   14 2   
    21   13   15 1   
    22   15   16 1   
    23   15   27 1   
    24   15   28 1   
    25   16   17 2   
    26   16   20 1   
    27   17   18 1   
    28   17   29 1   
    29   18   19 2   
    30   18   30 1   
    31   19   20 1   
    32   19   31 1   
@<TRIPOS>SUBSTRUCTURE
     1 5UM         1 TEMP              0 ****  ****    0 ROOT
