@<TRIPOS>MOLECULE
5UM
   32    33     1     0     0
SMALL
bcc


@<TRIPOS>ATOM
      1 C01         0.2710   -0.3240   -0.0180 ca        1 5UM     -0.620500
      2 F01         2.1220   -2.1320    2.5930 f         1 5UM     -0.115900
      3 N01        -1.4750   -1.4900   -1.6660 n4        1 5UM     -0.782500
      4 O01        -0.4420    0.7960   -2.1450 o         1 5UM     -0.574800
      5 S01         0.0990   -0.3420   -1.5850 sy        1 5UM      1.511200
      6 C02         1.1030   -1.2610    0.6430 ca        1 5UM      0.002000
      7 O02         0.9790   -1.1410   -2.2820 o         1 5UM     -0.574800
      8 C03         1.3160   -1.2100    2.0080 ca        1 5UM      0.030900
      9 C04         0.6970   -0.1800    2.8270 ca        1 5UM      0.206600
     10 C05        -0.1330    0.7560    2.1430 ca        1 5UM     -0.200000
     11 C06        -0.3260    0.6810    0.7850 ca        1 5UM      0.043000
     12 N07         0.9440   -0.1500    4.1710 n         1 5UM     -0.441100
     13 C08         0.4000    0.7380    5.1330 c         1 5UM      0.673100
     14 O08        -0.4460    1.5830    4.8200 o         1 5UM     -0.533100
     15 C09         0.9350    0.6130    6.5500 c3        1 5UM     -0.061100
     16 C10         1.1840   -0.7650    6.9870 cc        1 5UM     -0.197400
     17 C11         2.3650   -1.4700    6.7950 cd        1 5UM     -0.153000
     18 C12         2.3090   -2.7640    7.3890 cd        1 5UM     -0.152000
     19 C13         1.0950   -2.9800    8.0110 cc        1 5UM     -0.158100
     20 S14         0.0870   -1.6680    7.8780 ss        1 5UM      0.098200
     21 HN01       -1.2720   -2.3240   -2.2100 hn        1 5UM      0.449467
     22 HN0A       -2.2430   -1.0000   -2.1190 hn        1 5UM      0.449467
     23 H02         1.6150   -2.0470    0.0530 ha        1 5UM      0.181000
     24 H05        -0.6260    1.5690    2.7110 ha        1 5UM      0.211000
     25 H06        -0.9590    1.4470    0.2940 ha        1 5UM      0.171000
     26 HN07        1.5630   -0.8580    4.5320 hn        1 5UM      0.361500
     27 H09         1.8860    1.2160    6.5960 hc        1 5UM      0.106700
     28 H09A        0.1850    1.1180    7.2220 hc        1 5UM      0.106700
     29 H11         3.2510   -1.0850    6.2840 ha        1 5UM      0.155000
     30 H12         3.1360   -3.4780    7.3550 ha        1 5UM      0.169000
     31 H13         0.8170   -3.8920    8.5430 h4        1 5UM      0.188000
     32 H013       -1.7840   -1.7800   -0.7460 hn        1 5UM      0.449467
@<TRIPOS>BOND
     1    1    5 1   
     2    1    6 ar  
     3    1   11 ar  
     4    2    8 1   
     5    3    5 1   
     6    3   21 1   
     7    3   22 1   
     8    3   32 1   
     9    4    5 2   
    10    5    7 2   
    11    6    8 ar  
    12    6   23 1   
    13    8    9 ar  
    14    9   10 ar  
    15    9   12 1   
    16   10   11 ar  
    17   10   24 1   
    18   11   25 1   
    19   12   13 1   
    20   12   26 1   
    21   13   14 2   
    22   13   15 1   
    23   15   16 1   
    24   15   27 1   
    25   15   28 1   
    26   16   17 2   
    27   16   20 1   
    28   17   18 1   
    29   17   29 1   
    30   18   19 2   
    31   18   30 1   
    32   19   20 1   
    33   19   31 1   
@<TRIPOS>SUBSTRUCTURE
     1 5UM         1 TEMP              0 ****  ****    0 ROOT
