@<TRIPOS>MOLECULE
5UN
   32    33     1     0     0
SMALL
bcc


@<TRIPOS>ATOM
      1 C01         0.3350    0.2370   -0.2660 ca        1 5UN     -0.650500
      2 N01        -1.9330   -1.0640   -0.8190 nz        1 5UN     -0.780500
      3 O01        -1.5540    1.3920   -1.4370 o         1 5UN     -0.579300
      4 S01        -0.6910    0.3150   -1.4500 sy        1 5UN      1.516200
      5 C02         1.4580   -0.6340   -0.3050 ca        1 5UN      0.049000
      6 O02        -0.3090   -0.2820   -2.6320 o         1 5UN     -0.579300
      7 C03         2.4040   -0.6690    0.6870 ca        1 5UN     -0.218000
      8 C04         2.3020    0.1970    1.8210 ca        1 5UN      0.230600
      9 C05         1.1760    1.0870    1.8670 ca        1 5UN     -0.218000
     10 C06         0.2440    1.0960    0.8630 ca        1 5UN      0.049000
     11 N07         3.2080    0.2200    2.8480 ns        1 5UN     -0.447100
     12 C08         4.3800   -0.5610    2.9910 c         1 5UN      0.670100
     13 O08         4.6850   -1.4240    2.1590 o         1 5UN     -0.535100
     14 C09         5.2150   -0.3170    4.2370 c3        1 5UN     -0.064100
     15 C10         5.2440    1.0770    4.6940 cc        1 5UN     -0.196400
     16 C11         4.3240    1.6590    5.5580 cd        1 5UN     -0.160000
     17 C12         4.6600    3.0120    5.8510 cd        1 5UN     -0.155000
     18 C13         5.8210    3.3930    5.2050 cc        1 5UN     -0.160100
     19 S14         6.4600    2.1590    4.2990 ss        1 5UN      0.108200
     20 HN01       -1.6320   -1.4730    0.0580 hn        1 5UN      0.447133
     21 HN0A       -2.8580   -0.6660   -0.6840 hn        1 5UN      0.447133
     22 H02         1.5800   -1.2970   -1.1850 ha        1 5UN      0.165500
     23 H03         3.2580   -1.3670    0.5950 ha        1 5UN      0.187500
     24 H05         1.0620    1.7830    2.7160 ha        1 5UN      0.187500
     25 H06        -0.6030    1.8080    0.9170 ha        1 5UN      0.165500
     26 HN07        3.0550    0.9050    3.5670 hn        1 5UN      0.351500
     27 H09         6.2550   -0.6830    4.0030 hc        1 5UN      0.105700
     28 H09A        4.8000   -0.9850    5.0450 hc        1 5UN      0.105700
     29 H11         3.4640    1.1470    5.9960 ha        1 5UN      0.152000
     30 H12         4.0700    3.6490    6.5140 ha        1 5UN      0.168000
     31 H13         6.2840    4.3790    5.2790 h4        1 5UN      0.189000
     32 H013       -2.0080   -1.8070   -1.5080 hn        1 5UN      0.447133
@<TRIPOS>BOND
     1    1    4 1   
     2    1    5 ar  
     3    1   10 ar  
     4    2    4 1   
     5    2   20 1   
     6    2   21 1   
     7    2   32 1   
     8    3    4 2   
     9    4    6 2   
    10    5    7 ar  
    11    5   22 1   
    12    7    8 ar  
    13    7   23 1   
    14    8    9 ar  
    15    8   11 1   
    16    9   10 ar  
    17    9   24 1   
    18   10   25 1   
    19   11   12 1   
    20   11   26 1   
    21   12   13 2   
    22   12   14 1   
    23   14   15 1   
    24   14   27 1   
    25   14   28 1   
    26   15   16 2   
    27   15   19 1   
    28   16   17 1   
    29   16   29 1   
    30   17   18 2   
    31   17   30 1   
    32   18   19 1   
    33   18   31 1   
@<TRIPOS>SUBSTRUCTURE
     1 5UN         1 TEMP              0 ****  ****    0 ROOT
