@<TRIPOS>MOLECULE
5UN
   33    34     1     0     0
SMALL
bcc


@<TRIPOS>ATOM
      1 C01         0.1340    0.0960    0.1260 ca        1 5UN     -0.469500
      2 N01        -0.6910   -1.3750   -1.9820 n4        1 5UN     -0.801500
      3 O01        -2.2350    0.1820   -0.7220 o         1 5UN     -0.532300
      4 S01        -0.9230    0.2850   -1.1180 sy        1 5UN      1.463200
      5 C02         1.4550    0.5710    0.0270 ca        1 5UN      0.025000
      6 O02        -0.4560    1.1430   -2.0850 o         1 5UN     -0.532300
      7 C03         2.3190    0.5540    1.1180 ca        1 5UN     -0.120000
      8 C04         1.8640    0.0510    2.3520 ca        1 5UN      0.076600
      9 C05         0.5510   -0.4420    2.4720 ca        1 5UN     -0.120000
     10 C06        -0.2950   -0.4110    1.3660 ca        1 5UN      0.025000
     11 N07         2.7550    0.0490    3.5110 n4        1 5UN     -0.588200
     12 C08         2.2960    1.0070    4.6380 c         1 5UN      0.563100
     13 O08         1.1620    0.8210    5.0360 o         1 5UN     -0.399100
     14 C09         3.3060    2.0280    5.0900 c3        1 5UN     -0.040100
     15 C10         4.7040    1.6490    4.8890 cc        1 5UN     -0.305400
     16 C11         5.4240    1.8480    3.7060 cd        1 5UN     -0.163000
     17 C12         6.7870    1.4950    3.8600 cd        1 5UN     -0.145000
     18 C13         7.0500    1.0660    5.1540 cc        1 5UN     -0.148100
     19 S14         5.7090    1.1060    6.1070 ss        1 5UN      0.216200
     20 HN01       -1.5800   -1.8820   -2.0270 hn        1 5UN      0.471133
     21 HN0A       -0.0160   -1.9900   -1.5340 hn        1 5UN      0.471133
     22 H02         1.8180    0.9980   -0.9320 ha        1 5UN      0.199000
     23 H03         3.3450    0.9480    0.9950 ha        1 5UN      0.197000
     24 H05         0.1670   -0.8260    3.4380 ha        1 5UN      0.197000
     25 H06        -1.3390   -0.7680    1.4880 ha        1 5UN      0.199000
     26 HN07        3.7120    0.3180    3.2250 hn        1 5UN      0.482300
     27 H09         3.0650    2.9830    4.5310 hc        1 5UN      0.137700
     28 H09A        3.0840    2.2210    6.1830 hc        1 5UN      0.137700
     29 H11         5.0180    2.2840    2.7900 ha        1 5UN      0.148000
     30 H12         7.5340    1.5750    3.0640 ha        1 5UN      0.187000
     31 H13         8.0380    0.7550    5.5120 h4        1 5UN      0.213000
     32 H013       -0.3800   -1.2350   -2.9480 hn        1 5UN      0.471133
     33 H072        2.7850   -0.9040    3.9000 hn        1 5UN      0.482300
@<TRIPOS>BOND
     1    1    4 1   
     2    1    5 ar  
     3    1   10 ar  
     4    2    4 1   
     5    2   20 1   
     6    2   21 1   
     7    2   32 1   
     8    3    4 2   
     9    4    6 2   
    10    5    7 ar  
    11    5   22 1   
    12    7    8 ar  
    13    7   23 1   
    14    8    9 ar  
    15    8   11 1   
    16    9   10 ar  
    17    9   24 1   
    18   10   25 1   
    19   11   12 1   
    20   11   26 1   
    21   11   33 1   
    22   12   13 2   
    23   12   14 1   
    24   14   15 1   
    25   14   27 1   
    26   14   28 1   
    27   15   16 2   
    28   15   19 1   
    29   16   17 1   
    30   16   29 1   
    31   17   18 2   
    32   17   30 1   
    33   18   19 1   
    34   18   31 1   
@<TRIPOS>SUBSTRUCTURE
     1 5UN         1 TEMP              0 ****  ****    0 ROOT
