@<TRIPOS>MOLECULE
5UN
   31    26     1     0     0
SMALL
bcc


@<TRIPOS>ATOM
      1 C01        -1.5380   -1.1030   -2.8710 c1        1 5UN     -0.873000
      2 N01        -2.6120   -2.6190   -4.9710 n3        1 5UN     -0.953000
      3 O01        -3.6770   -0.4120   -4.2860 o         1 5UN     -0.941500
      4 S01        -2.4150   -1.0870   -4.4120 s6        1 5UN      2.872000
      5 C02        -0.1620   -0.9430   -2.8330 c1        1 5UN      0.013000
      6 O02        -1.7520   -0.2590   -5.3810 o         1 5UN     -0.941500
      7 C03         0.4980   -0.9030   -1.6150 c1        1 5UN     -0.193000
      8 C04        -0.2180   -1.0240   -0.4340 c1        1 5UN      0.146000
      9 C05        -1.5940   -1.1840   -0.4720 c2        1 5UN     -0.219000
     10 C06        -2.2540   -1.2240   -1.6900 c1        1 5UN      0.012000
     11 N07         0.4680   -1.0810    0.8080 n2        1 5UN     -0.321000
     12 C08         0.7930    0.1180    1.4940 c2        1 5UN      0.312000
     13 O08         0.4840    1.1930    1.0190 o         1 5UN     -0.339000
     14 C09         1.5660    0.0600    2.7950 c3        1 5UN     -0.114000
     15 C10         1.8490    1.4650    3.2770 c2        1 5UN     -0.415000
     16 C11         1.4990    2.0070    4.5770 c1        1 5UN     -0.162000
     17 C12         2.0950    3.4800    4.6820 c1        1 5UN     -0.155000
     18 C13         2.7850    3.7820    3.4420 c1        1 5UN     -0.439000
     19 S14         2.6640    2.5440    2.5140 ss        1 5UN      0.612000
     20 HN01       -2.0110   -2.9690   -5.5640 hn        1 5UN      0.240500
     21 HN0A       -3.3340   -3.1130   -4.7070 hn        1 5UN      0.240500
     22 H02         0.3430   -0.8580   -3.6640 ha        1 5UN      0.153000
     23 H03         1.4680   -0.7910   -1.5880 ha        1 5UN      0.180000
     24 H05        -2.0990   -1.2690    0.3590 ha        1 5UN      0.138000
     25 H06        -3.2230   -1.3370   -1.7170 ha        1 5UN      0.154000
     26 HN07        0.6870   -1.8880    1.1710 hn        1 5UN      0.243000
     27 H09         1.0380   -0.4150    3.4670 hc        1 5UN      0.129500
     28 H09A        2.4110   -0.4120    2.6510 hc        1 5UN      0.129500
     29 H11         0.9870    1.5480    5.2690 DU        1 5UN      0.163000
     30 H12         2.0100    4.0780    5.4490 DU        1 5UN      0.163000
     31 H13         3.2460    4.6160    3.2300 DU        1 5UN      0.163000
@<TRIPOS>BOND
     1    1    4 1   
     2    1    5 1   
     3    2    4 1   
     4    2   20 1   
     5    2   21 1   
     6    3    4 1   
     7    4    6 1   
     8    5   22 1   
     9    7    8 1   
    10    7   23 1   
    11    8    9 1   
    12    9   10 1   
    13    9   24 1   
    14   10   25 1   
    15   11   12 1   
    16   11   26 1   
    17   12   13 1   
    18   12   14 1   
    19   14   15 1   
    20   14   27 1   
    21   14   28 1   
    22   15   16 1   
    23   15   19 1   
    24   16   17 1   
    25   17   18 1   
    26   18   19 1   
@<TRIPOS>SUBSTRUCTURE
     1 5UN         1 TEMP              0 ****  ****    0 ROOT
