@<TRIPOS>MOLECULE
5UN
   31    32     1     0     0
SMALL
bcc


@<TRIPOS>ATOM
      1 C01        -2.9140    0.2330    0.0210 ca        1 5UN     -0.428500
      2 N01        -5.2660   -0.7410   -0.3910 n3        1 5UN     -1.026700
      3 O01        -4.8050    0.5460    1.6500 o         1 5UN     -0.662300
      4 S01        -4.5500    0.5380    0.2610 sy        1 5UN      1.533200
      5 C02        -2.2690    0.6280   -1.1560 ca        1 5UN      0.012500
      6 O02        -4.9090    1.6870   -0.4770 o         1 5UN     -0.662300
      7 C03        -0.9160    0.4000   -1.3650 ca        1 5UN     -0.206000
      8 C04        -0.1460   -0.2440   -0.3690 ca        1 5UN      0.138600
      9 C05        -0.7940   -0.6330    0.8350 ca        1 5UN     -0.206000
     10 C06        -2.1460   -0.3930    1.0110 ca        1 5UN      0.012500
     11 N07         1.2160   -0.5220   -0.5060 n         1 5UN     -0.467100
     12 C08         2.0460   -0.2000   -1.5750 c         1 5UN      0.668100
     13 O08         1.6450    0.3650   -2.6060 o         1 5UN     -0.578100
     14 C09         3.5070   -0.6230   -1.4580 c3        1 5UN     -0.078100
     15 C10         4.0880   -0.4430   -0.1210 cc        1 5UN     -0.152400
     16 C11         4.0770   -1.3840    0.8960 cd        1 5UN     -0.162000
     17 C12         4.7530   -0.9110    2.0610 cd        1 5UN     -0.155000
     18 C13         5.2490    0.3630    1.8730 cc        1 5UN     -0.169100
     19 S14         4.9050    0.9440    0.3530 ss        1 5UN      0.072200
     20 HN01       -5.4810   -1.5630    0.1120 hn        1 5UN      0.445300
     21 HN0A       -5.5600   -0.7810   -1.3340 hn        1 5UN      0.445300
     22 H02        -2.8490    1.1540   -1.9360 ha        1 5UN      0.153500
     23 H03        -0.4520    0.7320   -2.3090 ha        1 5UN      0.159000
     24 H05        -0.2260   -1.1230    1.6410 ha        1 5UN      0.159000
     25 H06        -2.6300   -0.6860    1.9610 ha        1 5UN      0.153500
     26 HN07        1.6560   -0.9360    0.2890 hn        1 5UN      0.329500
     27 H09         3.5650   -1.7050   -1.7630 hc        1 5UN      0.090200
     28 H09A        4.0780   -0.0270   -2.2230 hc        1 5UN      0.090200
     29 H11         3.6270   -2.3770    0.8270 ha        1 5UN      0.153000
     30 H12         4.8560   -1.5000    2.9740 ha        1 5UN      0.159000
     31 H13         5.8030    0.9380    2.6150 h4        1 5UN      0.177000
@<TRIPOS>BOND
     1    1    4 1   
     2    1    5 ar  
     3    1   10 ar  
     4    2    4 1   
     5    2   20 1   
     6    2   21 1   
     7    3    4 2   
     8    4    6 2   
     9    5    7 ar  
    10    5   22 1   
    11    7    8 ar  
    12    7   23 1   
    13    8    9 ar  
    14    8   11 1   
    15    9   10 ar  
    16    9   24 1   
    17   10   25 1   
    18   11   12 1   
    19   11   26 1   
    20   12   13 2   
    21   12   14 1   
    22   14   15 1   
    23   14   27 1   
    24   14   28 1   
    25   15   16 2   
    26   15   19 1   
    27   16   17 1   
    28   16   29 1   
    29   17   18 2   
    30   17   30 1   
    31   18   19 1   
    32   18   31 1   
@<TRIPOS>SUBSTRUCTURE
     1 5UN         1 TEMP              0 ****  ****    0 ROOT
