@<TRIPOS>MOLECULE
5UN
   32    33     1     0     0
SMALL
bcc


@<TRIPOS>ATOM
      1 C01         0.3330    0.2430   -0.2650 ca        1 5UN     -0.650500
      2 N01        -1.9240   -1.0710   -0.8300 n4        1 5UN     -0.780500
      3 O01        -1.5650    1.3940   -1.4240 o         1 5UN     -0.579300
      4 S01        -0.6930    0.3250   -1.4480 sy        1 5UN      1.516200
      5 C02         1.4630   -0.6190   -0.3130 ca        1 5UN      0.049000
      6 O02        -0.3070   -0.2570   -2.6370 o         1 5UN     -0.579300
      7 C03         2.4100   -0.6560    0.6790 ca        1 5UN     -0.218000
      8 C04         2.3020    0.1980    1.8200 ca        1 5UN      0.230600
      9 C05         1.1690    1.0790    1.8760 ca        1 5UN     -0.218000
     10 C06         0.2360    1.0900    0.8720 ca        1 5UN      0.049000
     11 N07         3.2080    0.2190    2.8480 n         1 5UN     -0.447100
     12 C08         4.3860   -0.5560    2.9830 c         1 5UN      0.670100
     13 O08         4.6960   -1.4090    2.1450 o         1 5UN     -0.535100
     14 C09         5.2200   -0.3160    4.2310 c3        1 5UN     -0.064100
     15 C10         5.2430    1.0760    4.6960 cc        1 5UN     -0.196400
     16 C11         4.3220    1.6480    5.5640 cd        1 5UN     -0.160000
     17 C12         4.6520    3.0010    5.8640 cd        1 5UN     -0.155000
     18 C13         5.8100    3.3910    5.2190 cc        1 5UN     -0.160100
     19 S14         6.4540    2.1660    4.3050 ss        1 5UN      0.108200
     20 HN01       -2.8520   -0.6820   -0.6920 hn        1 5UN      0.447133
     21 HN0A       -1.9930   -1.8070   -1.5270 hn        1 5UN      0.447133
     22 H02         1.5900   -1.2720   -1.1990 ha        1 5UN      0.165500
     23 H03         3.2690   -1.3460    0.5800 ha        1 5UN      0.187500
     24 H05         1.0500    1.7660    2.7310 ha        1 5UN      0.187500
     25 H06        -0.6160    1.7950    0.9340 ha        1 5UN      0.165500
     26 HN07        3.0500    0.8960    3.5730 hn        1 5UN      0.351500
     27 H09         4.8070   -0.9900    5.0350 hc        1 5UN      0.105700
     28 H09A        6.2610   -0.6770    3.9940 hc        1 5UN      0.105700
     29 H11         3.4650    1.1310    6.0010 ha        1 5UN      0.152000
     30 H12         4.0600    3.6320    6.5310 ha        1 5UN      0.168000
     31 H13         6.2680    4.3780    5.2980 h4        1 5UN      0.189000
     32 H013       -1.6200   -1.4860    0.0420 hn        1 5UN      0.447133
@<TRIPOS>BOND
     1    1    4 1   
     2    1    5 ar  
     3    1   10 ar  
     4    2    4 1   
     5    2   20 1   
     6    2   21 1   
     7    2   32 1   
     8    3    4 2   
     9    4    6 2   
    10    5    7 ar  
    11    5   22 1   
    12    7    8 ar  
    13    7   23 1   
    14    8    9 ar  
    15    8   11 1   
    16    9   10 ar  
    17    9   24 1   
    18   10   25 1   
    19   11   12 1   
    20   11   26 1   
    21   12   13 2   
    22   12   14 1   
    23   14   15 1   
    24   14   27 1   
    25   14   28 1   
    26   15   16 2   
    27   15   19 1   
    28   16   17 1   
    29   16   29 1   
    30   17   18 2   
    31   17   30 1   
    32   18   19 1   
    33   18   31 1   
@<TRIPOS>SUBSTRUCTURE
     1 5UN         1 TEMP              0 ****  ****    0 ROOT
