@<TRIPOS>MOLECULE
5V2
   53    56     1     0     0
SMALL
bcc


@<TRIPOS>ATOM
      1 C01         0.4770    1.4820   -0.0270 c3        1 5V2      0.048300
      2 N05         1.7670    0.8340   -0.1180 n         1 5V2     -0.328000
      3 C06         2.3370    0.3230    1.0180 cc        1 5V2      0.084600
      4 C08         3.5690   -0.3170    1.0540 cd        1 5V2     -0.121400
      5 C09         4.1030   -0.8410    2.3050 ca        1 5V2     -0.046800
      6 C10         3.2600   -1.4590    3.2430 ca        1 5V2     -0.095000
      7 C12         3.7790   -1.9600    4.4340 ca        1 5V2     -0.115000
      8 C14         5.1440   -1.8590    4.7090 ca        1 5V2     -0.068000
      9 C16         5.9830   -1.2480    3.7760 ca        1 5V2     -0.155300
     10 C17         5.4720   -0.7380    2.5830 ca        1 5V2     -0.098000
     11 C19         7.4770   -1.1150    4.0580 c3        1 5V2      0.688200
     12 F20         7.9840   -2.0550    4.9180 f         1 5V2     -0.232633
     13 F21         8.2680   -1.2200    2.9360 f         1 5V2     -0.232633
     14 F22         7.8390    0.0890    4.6080 f         1 5V2     -0.232633
     15 C23         4.2820   -0.4400   -0.1680 cd        1 5V2      0.055100
     16 S24         5.7670   -1.1310   -0.4690 ss        1 5V2      0.144200
     17 C25         5.7160   -0.8060   -2.1250 cd        1 5V2     -0.380000
     18 C26         4.5440   -0.1480   -2.4860 cc        1 5V2     -0.010000
     19 C28         3.7170    0.0710   -1.3590 cc        1 5V2     -0.235600
     20 C29         2.4220    0.7410   -1.3780 c         1 5V2      0.727100
     21 O30         1.8970    1.2150   -2.3990 o         1 5V2     -0.595500
     22 C31         6.7580   -1.2180   -3.0510 cf        1 5V2      0.642800
     23 N32         7.2680   -2.3690   -3.2870 n2        1 5V2     -0.726100
     24 N34         7.2770   -0.0590   -3.8740 n4        1 5V2     -0.742000
     25 C36         8.7480    0.2070   -3.6810 c3        1 5V2      0.112500
     26 C38         9.2340    1.2360   -4.7160 c3        1 5V2     -0.064400
     27 C41        10.7200    1.4460   -4.5780 c3        1 5V2     -0.321600
     28 S44        11.1940    2.1220   -3.0700 s6        1 5V2      1.336000
     29 O45        12.5780    2.1030   -2.9690 o         1 5V2     -0.620300
     30 O46        10.4870    3.3070   -2.8650 o         1 5V2     -0.620300
     31 C47        10.5260    0.8940   -2.0710 c3        1 5V2     -0.321600
     32 C50         9.0440    0.6990   -2.2570 c3        1 5V2     -0.064400
     33 H011        0.1660    1.8500   -1.0430 h1        1 5V2      0.076700
     34 H012       -0.2880    0.7520    0.3500 h1        1 5V2      0.076700
     35 H013        0.5390    2.3540    0.6770 h1        1 5V2      0.076700
     36 H06         1.7490    0.4500    1.9510 h4        1 5V2      0.179000
     37 H10         2.1840   -1.5580    3.0320 ha        1 5V2      0.143000
     38 H17         6.1530   -0.2420    1.8710 ha        1 5V2      0.140000
     39 H12         3.1100   -2.4430    5.1650 ha        1 5V2      0.158000
     40 H14         5.5590   -2.2610    5.6480 ha        1 5V2      0.168000
     41 H26         4.2480    0.1560   -3.4960 ha        1 5V2      0.176000
     42 H32         6.9060   -3.1510   -2.7800 hn        1 5V2      0.478400
     43 H34         7.1110   -0.2520   -4.8690 hn        1 5V2      0.462300
     44 H36         9.2880   -0.7730   -3.8580 hx        1 5V2      0.127700
     45 H381        9.0050    0.8770   -5.7550 hc        1 5V2      0.079700
     46 H382        8.7070    2.2190   -4.5640 hc        1 5V2      0.079700
     47 H501        8.5150    1.6750   -2.0660 hc        1 5V2      0.079700
     48 H502        8.6650   -0.0480   -1.5100 hc        1 5V2      0.079700
     49 H411       11.0460    2.1300   -5.4140 h1        1 5V2      0.136200
     50 H412       11.2620    0.4830   -4.7800 h1        1 5V2      0.136200
     51 H471       11.0610   -0.0830   -2.2130 h1        1 5V2      0.136200
     52 H472       10.7020    1.1540   -0.9880 h1        1 5V2      0.136200
     53 H342        6.7430    0.7770   -3.6020 hn        1 5V2      0.462300
@<TRIPOS>BOND
     1    1    2 1   
     2    1   33 1   
     3    1   34 1   
     4    1   35 1   
     5    2    3 1   
     6    2   20 1   
     7    3    4 2   
     8    3   36 1   
     9    4    5 1   
    10    4   15 1   
    11    5    6 ar  
    12    5   10 ar  
    13    6    7 ar  
    14    6   37 1   
    15    7    8 ar  
    16    7   39 1   
    17    8    9 ar  
    18    8   40 1   
    19    9   10 ar  
    20    9   11 1   
    21   10   38 1   
    22   11   12 1   
    23   11   13 1   
    24   11   14 1   
    25   15   16 1   
    26   15   19 2   
    27   16   17 1   
    28   17   18 2   
    29   17   22 1   
    30   18   19 1   
    31   18   41 1   
    32   19   20 1   
    33   20   21 2   
    34   22   23 2   
    35   22   24 1   
    36   23   42 1   
    37   24   25 1   
    38   24   43 1   
    39   24   53 1   
    40   25   26 1   
    41   25   32 1   
    42   25   44 1   
    43   26   27 1   
    44   26   45 1   
    45   26   46 1   
    46   27   28 1   
    47   27   49 1   
    48   27   50 1   
    49   28   29 2   
    50   28   30 2   
    51   28   31 1   
    52   31   32 1   
    53   31   51 1   
    54   31   52 1   
    55   32   47 1   
    56   32   48 1   
@<TRIPOS>SUBSTRUCTURE
     1 5V2         1 TEMP              0 ****  ****    0 ROOT
