@<TRIPOS>MOLECULE
5V2
   53    56     1     0     0
SMALL
bcc


@<TRIPOS>ATOM
      1 C01         0.4900    1.5140    0.0280 c3        1 5V2      0.048300
      2 N05         1.7750    0.8580   -0.0820 n         1 5V2     -0.328000
      3 C06         2.3470    0.3220    1.0410 cc        1 5V2      0.084600
      4 C08         3.5740   -0.3280    1.0600 cd        1 5V2     -0.121400
      5 C09         4.1100   -0.8780    2.2980 ca        1 5V2     -0.046800
      6 C10         3.2680   -1.5070    3.2290 ca        1 5V2     -0.095000
      7 C12         3.7890   -2.0330    4.4090 ca        1 5V2     -0.115000
      8 C14         5.1560   -1.9470    4.6780 ca        1 5V2     -0.068000
      9 C16         5.9950   -1.3250    3.7520 ca        1 5V2     -0.155300
     10 C17         5.4810   -0.7890    2.5710 ca        1 5V2     -0.098000
     11 C19         7.4910   -1.2080    4.0290 c3        1 5V2      0.688200
     12 F20         7.9950   -2.1670    4.8700 f         1 5V2     -0.232633
     13 F21         8.2760   -1.2980    2.9010 f         1 5V2     -0.232633
     14 F22         7.8650   -0.0160    4.5980 f         1 5V2     -0.232633
     15 C23         4.2800   -0.4340   -0.1680 cd        1 5V2      0.055100
     16 S24         5.7580   -1.1310   -0.4890 ss        1 5V2      0.144200
     17 C25         5.7000   -0.7760   -2.1390 cd        1 5V2     -0.380000
     18 C26         4.5320   -0.1030   -2.4820 cc        1 5V2     -0.010000
     19 C28         3.7120    0.1020   -1.3470 cc        1 5V2     -0.235600
     20 C29         2.4220    0.7820   -1.3470 c         1 5V2      0.727100
     21 O30         1.8970    1.2790   -2.3560 o         1 5V2     -0.595500
     22 C31         6.7340   -1.1790   -3.0780 cf        1 5V2      0.642800
     23 N32         7.2340   -2.3300   -3.3380 n2        1 5V2     -0.726100
     24 N34         7.2600   -0.0090   -3.8810 ny        1 5V2     -0.742000
     25 C36         8.7340    0.2410   -3.6880 c3        1 5V2      0.112500
     26 C38         9.2250    1.2860   -4.7060 c3        1 5V2     -0.064400
     27 C41        10.7120    1.4810   -4.5690 c3        1 5V2     -0.321600
     28 S44        11.1970    2.1260   -3.0510 s6        1 5V2      1.336000
     29 O45        12.5810    2.0930   -2.9550 o         1 5V2     -0.620300
     30 O46        10.5000    3.3120   -2.8220 o         1 5V2     -0.620300
     31 C47        10.5220    0.8860   -2.0720 c3        1 5V2     -0.321600
     32 C50         9.0380    0.7060   -2.2570 c3        1 5V2     -0.064400
     33 H011        0.5630    2.3730    0.7470 h1        1 5V2      0.076700
     34 H012       -0.2780    0.7830    0.3950 h1        1 5V2      0.076700
     35 H013        0.1770    1.9030   -0.9800 h1        1 5V2      0.076700
     36 H06         1.7640    0.4360    1.9800 h4        1 5V2      0.179000
     37 H10         2.1900   -1.5950    3.0220 ha        1 5V2      0.143000
     38 H17         6.1620   -0.2860    1.8650 ha        1 5V2      0.140000
     39 H12         3.1210   -2.5250    5.1340 ha        1 5V2      0.158000
     40 H14         5.5730   -2.3690    5.6080 ha        1 5V2      0.168000
     41 H26         4.2340    0.2220   -3.4840 ha        1 5V2      0.176000
     42 H32         6.8670   -3.1180   -2.8440 hn        1 5V2      0.478400
     43 H34         6.7340    0.8260   -3.5910 hn        1 5V2      0.462300
     44 H36         9.2660   -0.7390   -3.8850 hx        1 5V2      0.127700
     45 H381        8.7060    2.2690   -4.5350 hc        1 5V2      0.079700
     46 H382        8.9900    0.9470   -5.7500 hc        1 5V2      0.079700
     47 H501        8.6560   -0.0520   -1.5220 hc        1 5V2      0.079700
     48 H502        8.5180    1.6820   -2.0470 hc        1 5V2      0.079700
     49 H411       11.0410    2.1770   -5.3940 h1        1 5V2      0.136200
     50 H412       11.2460    0.5170   -4.7900 h1        1 5V2      0.136200
     51 H471       10.7040    1.1250   -0.9850 h1        1 5V2      0.136200
     52 H472       11.0490   -0.0930   -2.2330 h1        1 5V2      0.136200
     53 H342        7.0900   -0.1820   -4.8790 hn        1 5V2      0.462300
@<TRIPOS>BOND
     1    1    2 1   
     2    1   33 1   
     3    1   34 1   
     4    1   35 1   
     5    2    3 1   
     6    2   20 1   
     7    3    4 2   
     8    3   36 1   
     9    4    5 1   
    10    4   15 1   
    11    5    6 ar  
    12    5   10 ar  
    13    6    7 ar  
    14    6   37 1   
    15    7    8 ar  
    16    7   39 1   
    17    8    9 ar  
    18    8   40 1   
    19    9   10 ar  
    20    9   11 1   
    21   10   38 1   
    22   11   12 1   
    23   11   13 1   
    24   11   14 1   
    25   15   16 1   
    26   15   19 2   
    27   16   17 1   
    28   17   18 2   
    29   17   22 1   
    30   18   19 1   
    31   18   41 1   
    32   19   20 1   
    33   20   21 2   
    34   22   23 2   
    35   22   24 1   
    36   23   42 1   
    37   24   25 1   
    38   24   43 1   
    39   24   53 1   
    40   25   26 1   
    41   25   32 1   
    42   25   44 1   
    43   26   27 1   
    44   26   45 1   
    45   26   46 1   
    46   27   28 1   
    47   27   49 1   
    48   27   50 1   
    49   28   29 2   
    50   28   30 2   
    51   28   31 1   
    52   31   32 1   
    53   31   51 1   
    54   31   52 1   
    55   32   47 1   
    56   32   48 1   
@<TRIPOS>SUBSTRUCTURE
     1 5V2         1 TEMP              0 ****  ****    0 ROOT
