@<TRIPOS>MOLECULE
5VU
   28    29     1     0     0
SMALL
bcc


@<TRIPOS>ATOM
      1 O01        -0.0690   -0.0860   -0.2250 o         1 5VU     -0.620100
      2 C02         1.1710    0.0500   -0.1110 c         1 5VU      0.754100
      3 N03         1.8150   -0.0050    1.1470 n         1 5VU     -0.449100
      4 C04         1.1170    0.1020    2.3630 ca        1 5VU      0.023600
      5 C05        -0.1700   -0.4430    2.5520 ca        1 5VU     -0.097000
      6 C06        -0.8040   -0.3810    3.7850 ca        1 5VU     -0.156000
      7 C07        -0.1660    0.2250    4.8810 ca        1 5VU      0.125900
      8 F08        -0.7860    0.2810    6.0840 f         1 5VU     -0.135900
      9 C09         1.1160    0.7750    4.7340 ca        1 5VU     -0.181000
     10 C10         1.7490    0.7210    3.4860 ca        1 5VU      0.092900
     11 F11         2.9900    1.2600    3.3600 f         1 5VU     -0.144900
     12 N12         1.9620    0.3030   -1.2540 n         1 5VU     -0.440800
     13 C13         1.3330    0.1190   -2.5600 c3        1 5VU      0.071000
     14 C14         2.4120   -0.3570   -3.5430 c3        1 5VU     -0.091400
     15 C15         3.7220   -0.3930   -2.7650 c3        1 5VU     -0.091400
     16 C16         3.3670   -0.0720   -1.3030 c3        1 5VU      0.071000
     17 H03         2.7580    0.3260    1.1880 hn        1 5VU      0.318500
     18 H05        -0.6940   -0.9170    1.7040 ha        1 5VU      0.183000
     19 H06        -1.8110   -0.8070    3.9100 ha        1 5VU      0.157000
     20 H09         1.6220    1.2520    5.5860 ha        1 5VU      0.165000
     21 H131        0.9120    1.1130   -2.8750 h1        1 5VU      0.056450
     22 H132        0.4810   -0.6140   -2.5030 h1        1 5VU      0.056450
     23 H161        3.9770    0.7950   -0.9260 h1        1 5VU      0.056450
     24 H162        3.5900   -0.9650   -0.6550 h1        1 5VU      0.056450
     25 H141        2.4800    0.3410   -4.4120 hc        1 5VU      0.054700
     26 H142        2.1550   -1.3710   -3.9380 hc        1 5VU      0.054700
     27 H151        4.4420    0.3640   -3.1610 hc        1 5VU      0.054700
     28 H152        4.2070   -1.3970   -2.8340 hc        1 5VU      0.054700
@<TRIPOS>BOND
     1    1    2 2   
     2    2    3 1   
     3    2   12 1   
     4    3    4 1   
     5    3   17 1   
     6    4    5 ar  
     7    4   10 ar  
     8    5    6 ar  
     9    5   18 1   
    10    6    7 ar  
    11    6   19 1   
    12    7    8 1   
    13    7    9 ar  
    14    9   10 ar  
    15    9   20 1   
    16   10   11 1   
    17   12   13 1   
    18   12   16 1   
    19   13   14 1   
    20   13   21 1   
    21   13   22 1   
    22   14   15 1   
    23   14   25 1   
    24   14   26 1   
    25   15   16 1   
    26   15   27 1   
    27   15   28 1   
    28   16   23 1   
    29   16   24 1   
@<TRIPOS>SUBSTRUCTURE
     1 5VU         1 TEMP              0 ****  ****    0 ROOT
