@<TRIPOS>MOLECULE
5WA
   45    46     1     0     0
SMALL
bcc


@<TRIPOS>ATOM
      1 N1          0.3060   -0.0810   -0.1830 nb        1 5WA     -0.793000
      2 C2          1.6350   -0.4630   -0.0020 ca        1 5WA      0.926900
      3 N3          2.2850   -0.5660    1.2130 nb        1 5WA     -0.836000
      4 C4          1.5380   -0.3030    2.3320 ca        1 5WA      0.759200
      5 C5          0.1440    0.0570    2.2350 ca        1 5WA     -0.361600
      6 C6         -0.4070    0.1600    0.9310 ca        1 5WA      0.543600
      7 C1A        -7.5320    1.0500    7.5590 c3        1 5WA      0.112700
      8 C1B        -4.9670    2.4430    1.6520 c3        1 5WA      0.112700
      9 C1C        -8.2480    0.4280    3.6140 c3        1 5WA      0.117700
     10 C1D        -1.8400    0.5710    0.7990 c3        1 5WA     -0.162400
     11 N1E         2.3560   -0.8170   -1.1390 nv        1 5WA     -0.937500
     12 N1F         2.1530   -0.3510    3.5610 nv        1 5WA     -0.960500
     13 O1G        -1.7700   -0.1820    6.5720 oh        1 5WA     -0.587800
     14 C1H        -0.6230    0.2960    3.3770 cg        1 5WA     -0.054000
     15 C1I        -1.2830    0.5000    4.3570 c1        1 5WA     -0.202100
     16 C1J        -4.4470    0.4720    6.2450 ca        1 5WA     -0.171000
     17 C1K        -3.9830    1.3430    4.0320 ca        1 5WA     -0.171000
     18 C1U        -3.5350    0.8480    5.2600 ca        1 5WA     -0.085300
     19 C1V        -5.8230    0.5720    5.9950 ca        1 5WA      0.115100
     20 C1W        -5.3540    1.4590    3.7850 ca        1 5WA      0.115100
     21 C1X        -6.2940    1.0720    4.7690 ca        1 5WA      0.050100
     22 C1Y        -2.0570    0.7650    5.5510 c3        1 5WA      0.281500
     23 H1A        -6.9190    1.8070    8.1050 h1        1 5WA      0.046867
     24 H1AA       -8.1710    1.5440    6.7870 h1        1 5WA      0.046867
     25 H1AB       -8.1540    0.4530    8.2720 h1        1 5WA      0.046867
     26 H1B        -5.6260    2.8070    0.8230 h1        1 5WA      0.046867
     27 H1BA       -4.2760    1.6430    1.2840 h1        1 5WA      0.046867
     28 H1BB       -4.3860    3.2880    2.0950 h1        1 5WA      0.046867
     29 H1C        -7.7860    0.6070    2.6120 h1        1 5WA      0.045033
     30 H1CA       -9.3220    0.7380    3.6190 h1        1 5WA      0.045033
     31 H1CB       -8.1400   -0.6430    3.9110 h1        1 5WA      0.045033
     32 H1D        -1.9320    1.6520    1.0720 hc        1 5WA      0.061033
     33 H1DA       -2.2300    0.4280   -0.2380 hc        1 5WA      0.061033
     34 H1DB       -2.4640   -0.0300    1.5070 hc        1 5WA      0.061033
     35 HN1E        3.3420   -0.8890   -1.0600 hn        1 5WA      0.436300
     36 HN1A        1.9820   -0.5560   -2.0200 hn        1 5WA      0.436300
     37 HN1F        3.0760   -0.6980    3.6460 hn        1 5WA      0.443800
     38 HN1B        1.5850   -0.2890    4.3710 hn        1 5WA      0.443800
     39 HO1G       -2.0680   -1.0460    6.2620 ho        1 5WA      0.410000
     40 H1J        -4.0980    0.0860    7.2160 ha        1 5WA      0.156000
     41 H1K        -3.2480    1.6310    3.2640 ha        1 5WA      0.156000
     42 H1Y        -1.7220    1.7500    6.0070 h1        1 5WA      0.098700
     43 O1N        -6.6820    0.0700    6.9600 os        1 5WA     -0.329400
     44 O1O        -5.8910    1.9130    2.5960 os        1 5WA     -0.329400
     45 O1P        -7.6520    1.2770    4.5960 os        1 5WA     -0.331900
@<TRIPOS>BOND
     1    1    2 ar  
     2    1    6 ar  
     3    2    3 ar  
     4    2   11 1   
     5    3    4 ar  
     6    4    5 ar  
     7    4   12 1   
     8    5    6 ar  
     9    5   14 1   
    10    6   10 1   
    11    7   23 1   
    12    7   24 1   
    13    7   25 1   
    14    7   43 1   
    15    8   26 1   
    16    8   27 1   
    17    8   28 1   
    18    8   44 1   
    19    9   29 1   
    20    9   30 1   
    21    9   31 1   
    22    9   45 1   
    23   10   32 1   
    24   10   33 1   
    25   10   34 1   
    26   11   35 1   
    27   11   36 1   
    28   12   37 1   
    29   12   38 1   
    30   13   22 1   
    31   13   39 1   
    32   14   15 3   
    33   15   22 1   
    34   16   18 ar  
    35   16   19 ar  
    36   16   40 1   
    37   17   18 ar  
    38   17   20 ar  
    39   17   41 1   
    40   18   22 1   
    41   19   21 ar  
    42   19   43 1   
    43   20   21 ar  
    44   20   44 1   
    45   21   45 1   
    46   22   42 1   
@<TRIPOS>SUBSTRUCTURE
     1 5WA         1 TEMP              0 ****  ****    0 ROOT
