@<TRIPOS>MOLECULE
5WA
   47    48     1     0     0
SMALL
bcc


@<TRIPOS>ATOM
      1 N1         -0.0760    0.2620   -0.0820 nb        1 5WA     -0.637000
      2 C2          1.0690   -0.5120   -0.1230 ca        1 5WA      0.728900
      3 N3          1.7650   -1.0100    0.9300 nb        1 5WA     -0.659000
      4 C4          1.2540   -0.6930    2.1630 ca        1 5WA      0.469200
      5 C5          0.0870    0.0930    2.3420 ca        1 5WA     -0.014600
      6 C6         -0.5640    0.5630    1.1310 ca        1 5WA      0.541600
      7 C1A        -5.4410    3.8460    7.0270 c3        1 5WA      0.114200
      8 C1B        -6.3680   -2.5500    6.2180 c3        1 5WA      0.114200
      9 C1C        -7.8180    0.7730    7.0090 c3        1 5WA      0.117700
     10 C1D        -1.7960    1.3890    1.2620 c3        1 5WA     -0.185400
     11 N1E         1.5830   -0.8300   -1.4880 n4        1 5WA     -0.813300
     12 N1F         1.9740   -1.2150    3.3410 n4        1 5WA     -0.816300
     13 O1G        -0.5900    0.0870    6.9230 oh        1 5WA     -0.604800
     14 C1H        -0.4020    0.3860    3.6050 cg        1 5WA     -0.332000
     15 C1I        -0.8580    0.6400    4.6930 c1        1 5WA      0.158900
     16 C1J        -3.6740    1.7760    6.3570 ca        1 5WA     -0.178500
     17 C1K        -3.3370   -0.5910    5.9520 ca        1 5WA     -0.178500
     18 C1U        -2.8260    0.6940    6.1160 ca        1 5WA     -0.147300
     19 C1V        -5.0570    1.5680    6.4170 ca        1 5WA      0.129600
     20 C1W        -4.7250   -0.8090    6.0060 ca        1 5WA      0.129600
     21 C1X        -5.6050    0.2740    6.2330 ca        1 5WA      0.080100
     22 C1Y        -1.3430    0.9130    6.0420 c3        1 5WA      0.249500
     23 H1A        -4.8140    3.7460    7.9460 h1        1 5WA      0.059200
     24 H1AA       -4.8570    4.3040    6.1920 h1        1 5WA      0.059200
     25 H1AB       -6.3640    4.4460    7.2370 h1        1 5WA      0.059200
     26 H1B        -6.2890   -3.6650    6.1460 h1        1 5WA      0.059200
     27 H1BA       -6.5440   -2.2260    7.2710 h1        1 5WA      0.059200
     28 H1BB       -7.1700   -2.1600    5.5450 h1        1 5WA      0.059200
     29 H1C        -8.0430    1.7460    6.5070 h1        1 5WA      0.061033
     30 H1CA       -8.7360    0.1360    7.0770 h1        1 5WA      0.061033
     31 H1CB       -7.3680    0.9420    8.0150 h1        1 5WA      0.061033
     32 H1D        -2.5570    0.8250    1.8650 hc        1 5WA      0.110700
     33 H1DA       -1.5460    2.3390    1.8040 hc        1 5WA      0.110700
     34 H1DB       -2.2470    1.6520    0.2700 hc        1 5WA      0.110700
     35 HN1E        0.8550   -1.3430   -2.0090 hn        1 5WA      0.497467
     36 HN1A        1.7910    0.0530   -1.9820 hn        1 5WA      0.497467
     37 HN1F        1.9780   -2.2450    3.3270 hn        1 5WA      0.493133
     38 HN1B        1.4950   -0.8870    4.1980 hn        1 5WA      0.493133
     39 HO1G       -1.2100   -0.3890    7.4960 ho        1 5WA      0.454000
     40 H1J        -3.2590    2.7840    6.5030 ha        1 5WA      0.146500
     41 H1K        -2.6750   -1.4520    5.7860 ha        1 5WA      0.146500
     42 H1Y        -1.0760    1.9870    6.2990 h1        1 5WA      0.116700
     43 O1N        -5.9660    2.5810    6.6280 os        1 5WA     -0.324400
     44 O1O        -5.0910   -2.1080    5.7510 os        1 5WA     -0.324400
     45 O1P        -6.9490    0.0000    6.1730 os        1 5WA     -0.324900
     46 H1E3        2.4370   -1.4030   -1.4340 hn        1 5WA      0.497467
     47 H1F3        2.9470   -0.8760    3.3440 hn        1 5WA      0.493133
@<TRIPOS>BOND
     1    1    2 ar  
     2    1    6 ar  
     3    2    3 ar  
     4    2   11 1   
     5    3    4 ar  
     6    4    5 ar  
     7    4   12 1   
     8    5    6 ar  
     9    5   14 1   
    10    6   10 1   
    11    7   23 1   
    12    7   24 1   
    13    7   25 1   
    14    7   43 1   
    15    8   26 1   
    16    8   27 1   
    17    8   28 1   
    18    8   44 1   
    19    9   29 1   
    20    9   30 1   
    21    9   31 1   
    22    9   45 1   
    23   10   32 1   
    24   10   33 1   
    25   10   34 1   
    26   11   35 1   
    27   11   36 1   
    28   11   46 1   
    29   12   37 1   
    30   12   38 1   
    31   12   47 1   
    32   13   22 1   
    33   13   39 1   
    34   14   15 3   
    35   15   22 1   
    36   16   18 ar  
    37   16   19 ar  
    38   16   40 1   
    39   17   18 ar  
    40   17   20 ar  
    41   17   41 1   
    42   18   22 1   
    43   19   21 ar  
    44   19   43 1   
    45   20   21 ar  
    46   20   44 1   
    47   21   45 1   
    48   22   42 1   
@<TRIPOS>SUBSTRUCTURE
     1 5WA         1 TEMP              0 ****  ****    0 ROOT
