@<TRIPOS>MOLECULE
5WA
   45    46     1     0     0
SMALL
bcc


@<TRIPOS>ATOM
      1 N1         -4.4180   -1.8320   -0.7030 nb        1 5WA     -0.794000
      2 C2         -5.5670   -1.0430   -0.6660 ca        1 5WA      0.923900
      3 N3         -5.6220    0.2820   -0.2800 nb        1 5WA     -0.837000
      4 C4         -4.4310    0.8710    0.0590 ca        1 5WA      0.759200
      5 C5         -3.1890    0.1370    0.0060 ca        1 5WA     -0.363600
      6 C6         -3.2620   -1.2280   -0.3760 ca        1 5WA      0.545600
      7 C1A         4.1980   -0.1110    3.5930 c3        1 5WA      0.110700
      8 C1B         2.3670    0.0790   -3.3470 c3        1 5WA      0.110700
      9 C1C         4.7500   -2.4670   -0.7020 c3        1 5WA      0.114700
     10 C1D        -1.9950   -2.0230   -0.4190 c3        1 5WA     -0.159400
     11 N1E        -6.7540   -1.6270   -1.1050 nh        1 5WA     -0.935500
     12 N1F        -4.4410    2.1780    0.4840 nh        1 5WA     -0.964500
     13 O1G         0.3920    3.2440    0.3860 oh        1 5WA     -0.584800
     14 C1H        -1.9770    0.7500    0.3290 cg        1 5WA     -0.049000
     15 C1I        -0.9440    1.2950    0.6030 c1        1 5WA     -0.207100
     16 C1J         2.3380    0.6720    1.6470 ca        1 5WA     -0.212000
     17 C1K         1.7280    0.7430   -0.7010 ca        1 5WA     -0.212000
     18 C1U         1.4850    1.0960    0.6280 ca        1 5WA     -0.054300
     19 C1V         3.4550   -0.1140    1.3340 ca        1 5WA      0.138100
     20 C1W         2.8480   -0.0340   -1.0180 ca        1 5WA      0.138100
     21 C1X         3.7360   -0.4590   -0.0060 ca        1 5WA      0.048100
     22 C1Y         0.2900    1.9530    0.9730 c3        1 5WA      0.281500
     23 H1A         4.2670    1.0040    3.6090 h1        1 5WA      0.046533
     24 H1AA        3.2320   -0.4520    4.0390 h1        1 5WA      0.046533
     25 H1AB        5.0650   -0.5690    4.1330 h1        1 5WA      0.046533
     26 H1B         2.8480   -0.3380   -4.2690 h1        1 5WA      0.046533
     27 H1BA        1.3110   -0.2740   -3.2600 h1        1 5WA      0.046533
     28 H1BB        2.4110    1.1940   -3.3490 h1        1 5WA      0.046533
     29 H1C         4.1170   -2.5270   -1.6200 h1        1 5WA      0.042033
     30 H1CA        5.7940   -2.8090   -0.9120 h1        1 5WA      0.042033
     31 H1CB        4.2970   -3.0590    0.1290 h1        1 5WA      0.042033
     32 H1D        -1.3940   -1.6980   -1.3050 hc        1 5WA      0.062367
     33 H1DA       -1.4010   -1.8250    0.5070 hc        1 5WA      0.062367
     34 H1DB       -2.1850   -3.1210   -0.5000 hc        1 5WA      0.062367
     35 HN1E       -6.7780   -2.6160   -1.1740 hn        1 5WA      0.433800
     36 HN1A       -7.6030   -1.1650   -0.8830 hn        1 5WA      0.433800
     37 HN1F       -5.2700    2.7170    0.4360 hn        1 5WA      0.444300
     38 HN1B       -3.5740    2.6350    0.6220 hn        1 5WA      0.444300
     39 HO1G        0.4830    3.1280   -0.5680 ho        1 5WA      0.405000
     40 H1J         2.1310    0.9560    2.6880 ha        1 5WA      0.142500
     41 H1K         1.0320    1.0710   -1.4850 ha        1 5WA      0.142500
     42 H1Y         0.2770    2.1760    2.0850 h1        1 5WA      0.093700
     43 O1N         4.3390   -0.6110    2.2670 os        1 5WA     -0.311400
     44 O1O         3.1610   -0.4590   -2.2940 os        1 5WA     -0.311400
     45 O1P         4.9200   -1.1050   -0.3040 os        1 5WA     -0.309900
@<TRIPOS>BOND
     1    1    2 ar  
     2    1    6 ar  
     3    2    3 ar  
     4    2   11 1   
     5    3    4 ar  
     6    4    5 ar  
     7    4   12 1   
     8    5    6 ar  
     9    5   14 1   
    10    6   10 1   
    11    7   23 1   
    12    7   24 1   
    13    7   25 1   
    14    7   43 1   
    15    8   26 1   
    16    8   27 1   
    17    8   28 1   
    18    8   44 1   
    19    9   29 1   
    20    9   30 1   
    21    9   31 1   
    22    9   45 1   
    23   10   32 1   
    24   10   33 1   
    25   10   34 1   
    26   11   35 1   
    27   11   36 1   
    28   12   37 1   
    29   12   38 1   
    30   13   22 1   
    31   13   39 1   
    32   14   15 3   
    33   15   22 1   
    34   16   18 ar  
    35   16   19 ar  
    36   16   40 1   
    37   17   18 ar  
    38   17   20 ar  
    39   17   41 1   
    40   18   22 1   
    41   19   21 ar  
    42   19   43 1   
    43   20   21 ar  
    44   20   44 1   
    45   21   45 1   
    46   22   42 1   
@<TRIPOS>SUBSTRUCTURE
     1 5WA         1 TEMP              0 ****  ****    0 ROOT
