@<TRIPOS>MOLECULE
5WA
   45    46     1     0     0
SMALL
bcc


@<TRIPOS>ATOM
      1 N1          0.2400    0.1380    0.0360 nb        1 5WA     -0.795000
      2 C2          1.5790    0.4730    0.2350 ca        1 5WA      0.928900
      3 N3          2.2000    0.6220    1.4600 nb        1 5WA     -0.838000
      4 C4          1.4110    0.4570    2.5700 ca        1 5WA      0.760200
      5 C5          0.0050    0.1480    2.4520 ca        1 5WA     -0.367600
      6 C6         -0.5140   -0.0070    1.1400 ca        1 5WA      0.546600
      7 C1A         0.4860    0.2250   10.8990 c3        1 5WA      0.113700
      8 C1B         0.4210   -4.5500    6.3480 c3        1 5WA      0.113700
      9 C1C         0.1460   -3.8060   10.5930 c3        1 5WA      0.117700
     10 C1D        -1.9650   -0.3390    0.9820 c3        1 5WA     -0.159400
     11 N1E         2.3450    0.7270   -0.8990 nh        1 5WA     -0.938500
     12 N1F         1.9940    0.5510    3.8110 nh        1 5WA     -0.959500
     13 O1G        -2.8360    0.9860    6.1890 oh        1 5WA     -0.593800
     14 C1H        -0.7950    0.0070    3.5870 cg        1 5WA     -0.045000
     15 C1I        -1.4710   -0.1080    4.5720 c1        1 5WA     -0.217100
     16 C1J        -1.4330   -0.2280    8.1290 ca        1 5WA     -0.164500
     17 C1K        -0.9110   -2.1130    6.6930 ca        1 5WA     -0.164500
     18 C1U        -1.5200   -0.8680    6.8960 ca        1 5WA     -0.051300
     19 C1V        -0.7380   -0.8440    9.1820 ca        1 5WA      0.111100
     20 C1W        -0.2070   -2.7200    7.7350 ca        1 5WA      0.111100
     21 C1X        -0.1130   -2.0880    8.9990 ca        1 5WA      0.047100
     22 C1Y        -2.2920   -0.2600    5.7520 c3        1 5WA      0.287500
     23 H1A         0.2470    0.6580   11.9020 h1        1 5WA      0.046033
     24 H1AA        1.1990   -0.6290   10.9910 h1        1 5WA      0.046033
     25 H1AB        0.8970    1.0090   10.2180 h1        1 5WA      0.046033
     26 H1B         0.9150   -3.8820    5.6020 h1        1 5WA      0.046033
     27 H1BA       -0.6190   -4.7980    6.0240 h1        1 5WA      0.046033
     28 H1BB        1.0200   -5.4840    6.5010 h1        1 5WA      0.046033
     29 H1C        -0.8510   -3.6070   11.0540 h1        1 5WA      0.044367
     30 H1CA        0.0700   -4.6120    9.8240 h1        1 5WA      0.044367
     31 H1CB        0.9010   -4.0700   11.3750 h1        1 5WA      0.044367
     32 H1D        -2.5670    0.5870    1.1600 hc        1 5WA      0.061367
     33 H1DA       -2.2020   -0.7250   -0.0400 hc        1 5WA      0.061367
     34 H1DB       -2.2570   -1.1090    1.7370 hc        1 5WA      0.061367
     35 HN1E        1.9840    0.4350   -1.7750 hn        1 5WA      0.436800
     36 HN1A        3.3300    0.7690   -0.7960 hn        1 5WA      0.436800
     37 HN1F        1.4030    0.5610    4.6060 hn        1 5WA      0.444800
     38 HN1B        2.9290    0.8630    3.9030 hn        1 5WA      0.444800
     39 HO1G       -3.1470    1.4490    5.4020 ho        1 5WA      0.413000
     40 H1J        -1.9180    0.7470    8.2950 ha        1 5WA      0.159000
     41 H1K        -0.9870   -2.5950    5.7080 ha        1 5WA      0.159000
     42 H1Y        -3.1600   -0.9490    5.5020 h1        1 5WA      0.059700
     43 O1N        -0.7830   -0.2240   10.4200 os        1 5WA     -0.329400
     44 O1O         0.4130   -3.9510    7.6390 os        1 5WA     -0.329400
     45 O1P         0.6710   -2.6110   10.0130 os        1 5WA     -0.331900
@<TRIPOS>BOND
     1    1    2 ar  
     2    1    6 ar  
     3    2    3 ar  
     4    2   11 1   
     5    3    4 ar  
     6    4    5 ar  
     7    4   12 1   
     8    5    6 ar  
     9    5   14 1   
    10    6   10 1   
    11    7   23 1   
    12    7   24 1   
    13    7   25 1   
    14    7   43 1   
    15    8   26 1   
    16    8   27 1   
    17    8   28 1   
    18    8   44 1   
    19    9   29 1   
    20    9   30 1   
    21    9   31 1   
    22    9   45 1   
    23   10   32 1   
    24   10   33 1   
    25   10   34 1   
    26   11   35 1   
    27   11   36 1   
    28   12   37 1   
    29   12   38 1   
    30   13   22 1   
    31   13   39 1   
    32   14   15 3   
    33   15   22 1   
    34   16   18 ar  
    35   16   19 ar  
    36   16   40 1   
    37   17   18 ar  
    38   17   20 ar  
    39   17   41 1   
    40   18   22 1   
    41   19   21 ar  
    42   19   43 1   
    43   20   21 ar  
    44   20   44 1   
    45   21   45 1   
    46   22   42 1   
@<TRIPOS>SUBSTRUCTURE
     1 5WA         1 TEMP              0 ****  ****    0 ROOT
