@<TRIPOS>MOLECULE
5WA
   45    40     1     0     0
SMALL
bcc


@<TRIPOS>ATOM
      1 N1          4.1200    1.6650    2.8040 n1        1 5WA     -0.266000
      2 C2          4.7150    0.6830    3.5850 c1        1 5WA      0.206000
      3 N3          4.4980   -0.6120    3.3150 n1        1 5WA     -0.307000
      4 C4          3.6990   -0.9590    2.2800 c1        1 5WA      0.233000
      5 C5          3.1090    0.0220    1.5060 c1        1 5WA     -0.223000
      6 C6          3.3320    1.3260    1.7840 c1        1 5WA      0.119000
      7 C1A        -2.6820    3.0400   -1.6070 c3        1 5WA     -0.078000
      8 C1B        -3.8820   -3.2540   -0.3110 c3        1 5WA     -0.066000
      9 C1C        -5.3670    0.2860   -0.9300 c3        1 5WA     -0.076000
     10 C1D         2.8870    2.6440    1.3310 c3        1 5WA     -0.185000
     11 N1E         5.6810    1.0610    4.6030 n3        1 5WA     -0.334000
     12 N1F         3.4400   -2.3040    2.0140 n3        1 5WA     -0.353000
     13 O1G         1.4500   -0.3460   -3.1280 oh        1 5WA     -0.314000
     14 C1H         2.3420   -0.3650    0.2540 c1        1 5WA     -0.061000
     15 C1I         1.7200   -0.6860   -0.7580 c1        1 5WA     -0.223000
     16 C1J        -0.9790    0.4650   -2.1140 c1        1 5WA     -0.207000
     17 C1K        -1.3940   -1.8400   -1.5290 c1        1 5WA     -0.166000
     18 O1N        -2.8560    1.9750   -2.5850 os        1 5WA     -0.206000
     19 O1O        -3.7080   -2.7400   -1.5290 os        1 5WA     -0.212000
     20 O1P        -4.6480   -0.1430   -2.0890 os        1 5WA     -0.217000
     21 C1U        -0.4950   -0.7880   -1.8060 c1        1 5WA     -0.066000
     22 C1V        -2.3640    0.7000   -2.1520 c2        1 5WA      0.083000
     23 C1W        -2.7830   -1.6080   -1.5670 c1        1 5WA      0.100000
     24 C1X        -3.2620   -0.3400   -1.8780 c2        1 5WA     -0.034000
     25 C1Y         0.9550   -1.0860   -1.9980 c2        1 5WA      0.189000
     26 H1A        -3.1460    2.8380   -0.8560 h1        1 5WA      0.085333
     27 H1AA       -1.7160    3.1340   -1.3870 h1        1 5WA      0.085333
     28 H1AB       -3.0110    3.8700   -1.9720 h1        1 5WA      0.085333
     29 H1B        -4.2110   -4.2170   -0.3930 h1        1 5WA      0.087667
     30 H1BA       -3.0300   -3.2390    0.1730 h1        1 5WA      0.087667
     31 H1BB       -4.5450   -2.7220    0.1770 h1        1 5WA      0.087667
     32 H1C        -5.1270    1.2870   -0.7160 h1        1 5WA      0.083667
     33 H1CA       -6.3690    0.2070   -1.1060 h1        1 5WA      0.083667
     34 H1CB       -5.1440   -0.2310   -0.2320 h1        1 5WA      0.083667
     35 H1D         3.0420    2.7260    0.3860 hc        1 5WA      0.099333
     36 H1DA        1.8890    2.7520    1.5250 hc        1 5WA      0.099333
     37 H1DB        3.4010    3.3550    1.8160 hc        1 5WA      0.099333
     38 HN1E        5.7300    1.8830    4.8660 hn        1 5WA      0.230500
     39 HN1A        6.2580    0.4470    4.9310 hn        1 5WA      0.230500
     40 HN1F        4.0340   -2.9570    2.3020 hn        1 5WA      0.235500
     41 HN1B        2.6720   -2.5420    1.5780 hn        1 5WA      0.235500
     42 HO1G        2.0690    0.2920   -2.8350 ho        1 5WA      0.208000
     43 H1J        -0.3760    1.1730   -2.2990 ha        1 5WA      0.149000
     44 H1K        -1.0220   -2.8010   -1.2920 ha        1 5WA      0.166000
     45 H1Y         1.0740   -2.0520   -2.1600 h4        1 5WA      0.139000
@<TRIPOS>BOND
     1    1    6 1   
     2    2    3 1   
     3    2   11 1   
     4    4    5 1   
     5    4   12 1   
     6    5   14 1   
     7    6   10 1   
     8    7   18 1   
     9    7   26 1   
    10    7   27 1   
    11    7   28 1   
    12    8   19 1   
    13    8   29 1   
    14    8   30 1   
    15    8   31 1   
    16    9   20 1   
    17    9   32 1   
    18    9   33 1   
    19    9   34 1   
    20   10   35 1   
    21   10   36 1   
    22   10   37 1   
    23   11   38 1   
    24   11   39 1   
    25   12   40 1   
    26   12   41 1   
    27   13   25 1   
    28   13   42 1   
    29   14   15 1   
    30   16   22 1   
    31   16   43 1   
    32   17   21 1   
    33   17   44 1   
    34   18   22 1   
    35   19   23 1   
    36   20   24 1   
    37   21   25 1   
    38   22   24 1   
    39   23   24 1   
    40   25   45 1   
@<TRIPOS>SUBSTRUCTURE
     1 5WA         1 TEMP              0 ****  ****    0 ROOT
