@<TRIPOS>MOLECULE
5WB
   48    49     1     0     0
SMALL
bcc


@<TRIPOS>ATOM
      1 N1          0.5870   -0.3800    0.3710 nb        1 5WB     -0.791000
      2 C2          1.9340   -0.4370    0.7270 ca        1 5WB      0.922900
      3 N3          2.4340   -0.3040    2.0080 nb        1 5WB     -0.834000
      4 C4          1.5250   -0.0280    2.9940 ca        1 5WB      0.747200
      5 C5          0.1140    0.0640    2.7110 ca        1 5WB     -0.355600
      6 C6         -0.2870   -0.1310    1.3620 ca        1 5WB      0.545600
      7 C1A        -3.7240   -3.3200    9.5720 c3        1 5WB      0.113700
      8 C1B        -7.5100   -2.2960    5.6030 c3        1 5WB      0.113700
      9 C1C        -4.8430   -5.1080    6.7570 c3        1 5WB      0.113700
     10 C1E        -1.7460   -0.0520    1.0380 c3        1 5WB     -0.161400
     11 N1F         2.8570   -0.6010   -0.3030 nh        1 5WB     -0.936500
     12 N1G         1.9880    0.2010    4.2750 nh        1 5WB     -0.951500
     13 C1H        -0.8140    0.3280    3.7200 cg        1 5WB     -0.049000
     14 C1I        -1.6040    0.5640    4.5920 c1        1 5WB     -0.198100
     15 C1J        -2.8430   -1.2160    7.0640 ca        1 5WB     -0.119000
     16 C1K        -4.4900   -0.7590    5.3450 ca        1 5WB     -0.119000
     17 O1Q        -3.5220    1.8150    5.2660 os        1 5WB     -0.410600
     18 C1U        -3.3200   -0.4160    6.0240 ca        1 5WB     -0.063300
     19 C1W        -3.5310   -2.3840    7.4130 ca        1 5WB      0.091100
     20 C1X        -5.1780   -1.9300    5.6900 ca        1 5WB      0.091100
     21 C1Y        -4.7020   -2.7580    6.7250 ca        1 5WB      0.048100
     22 C1Z        -2.5530    0.8270    5.6500 c3        1 5WB      0.283500
     23 H1A        -3.8280   -2.3220   10.0610 h1        1 5WB      0.045533
     24 H1AA       -3.1180   -4.0130   10.2070 h1        1 5WB      0.045533
     25 H1AB       -4.7290   -3.7540    9.3490 h1        1 5WB      0.045533
     26 H1B        -7.4790   -3.0100    6.4610 h1        1 5WB      0.045533
     27 H1BA       -7.7560   -1.2660    5.9580 h1        1 5WB      0.045533
     28 H1BB       -8.2410   -2.6330    4.8260 h1        1 5WB      0.045533
     29 H1C        -5.5590   -5.8690    7.1560 h1        1 5WB      0.047367
     30 H1CA       -4.7530   -5.1890    5.6480 h1        1 5WB      0.047367
     31 H1CB       -3.8420   -5.2010    7.2430 h1        1 5WB      0.047367
     32 H1D        -2.5060    3.4880    6.0040 h1        1 5WB      0.038700
     33 H1DA       -2.1800    3.0630    4.2520 h1        1 5WB      0.038700
     34 H1DB       -3.8230    3.7320    4.7430 h1        1 5WB      0.038700
     35 H1E        -2.3200   -0.6840    1.7610 hc        1 5WB      0.064367
     36 H1EA       -2.0830    1.0090    1.1460 hc        1 5WB      0.064367
     37 H1EB       -1.9710   -0.3950   -0.0010 hc        1 5WB      0.064367
     38 HN1F        3.7850   -0.8510   -0.0560 hn        1 5WB      0.434800
     39 HN1A        2.5150   -0.9160   -1.1790 hn        1 5WB      0.434800
     40 HN1G        1.3210    0.1710    5.0080 hn        1 5WB      0.434300
     41 HN1B        2.9310   -0.0090    4.4960 hn        1 5WB      0.434300
     42 H1J        -1.9250   -0.9510    7.6100 ha        1 5WB      0.157500
     43 H1K        -4.8740   -0.1180    4.5350 ha        1 5WB      0.157500
     44 H1Z        -1.9890    1.2120    6.5550 h1        1 5WB      0.056700
     45 O1N        -2.9550   -3.2050    8.3730 os        1 5WB     -0.340900
     46 C1D        -2.9550    3.0980    5.0560 c3        1 5WB      0.112700
     47 O1O        -6.2630   -2.2910    4.9070 os        1 5WB     -0.340900
     48 O1P        -5.4470   -3.8600    7.1140 os        1 5WB     -0.346900
@<TRIPOS>BOND
     1    1    2 ar  
     2    1    6 ar  
     3    2    3 ar  
     4    2   11 1   
     5    3    4 ar  
     6    4    5 ar  
     7    4   12 1   
     8    5    6 ar  
     9    5   13 1   
    10    6   10 1   
    11    7   23 1   
    12    7   24 1   
    13    7   25 1   
    14    7   45 1   
    15    8   26 1   
    16    8   27 1   
    17    8   28 1   
    18    8   47 1   
    19    9   29 1   
    20    9   30 1   
    21    9   31 1   
    22    9   48 1   
    23   10   35 1   
    24   10   36 1   
    25   10   37 1   
    26   11   38 1   
    27   11   39 1   
    28   12   40 1   
    29   12   41 1   
    30   13   14 3   
    31   14   22 1   
    32   15   18 ar  
    33   15   19 ar  
    34   15   42 1   
    35   16   18 ar  
    36   16   20 ar  
    37   16   43 1   
    38   17   22 1   
    39   17   46 1   
    40   18   22 1   
    41   19   21 ar  
    42   19   45 1   
    43   20   21 ar  
    44   20   47 1   
    45   21   48 1   
    46   22   44 1   
    47   32   46 1   
    48   33   46 1   
    49   34   46 1   
@<TRIPOS>SUBSTRUCTURE
     1 5WB         1 TEMP              0 ****  ****    0 ROOT
