@<TRIPOS>MOLECULE
5WB
   48    49     1     0     0
SMALL
bcc


@<TRIPOS>ATOM
      1 N1          0.0320   -0.1570    0.1660 nb        1 5WB     -0.790000
      2 C2          1.2460   -0.8270    0.3150 ca        1 5WB      0.922900
      3 N3          1.8380   -1.1610    1.5190 nb        1 5WB     -0.833000
      4 C4          1.1490   -0.8240    2.6540 ca        1 5WB      0.745200
      5 C5         -0.1330   -0.1670    2.5880 ca        1 5WB     -0.355600
      6 C6         -0.6310    0.1470    1.2950 ca        1 5WB      0.547600
      7 C1A        -5.4330   -3.2390    5.8190 c3        1 5WB      0.111200
      8 C1B        -6.1490    3.8140    4.6990 c3        1 5WB      0.111200
      9 C1C        -8.6940    0.4670    5.8900 c3        1 5WB      0.115700
     10 C1E        -1.9530    0.8410    1.1940 c3        1 5WB     -0.161400
     11 N1F         1.8920   -1.2410   -0.8470 nv        1 5WB     -0.936500
     12 N1G         1.7330   -1.0790    3.8800 nv        1 5WB     -0.952500
     13 C1H        -0.8460    0.1540    3.7450 cg        1 5WB     -0.052000
     14 C1I        -1.4530    0.4280    4.7420 c1        1 5WB     -0.197100
     15 C1J        -4.2430   -0.7000    5.8180 ca        1 5WB     -0.205000
     16 C1K        -4.4840    1.6790    5.3990 ca        1 5WB     -0.205000
     17 O1Q        -1.9840    2.0850    6.3790 os        1 5WB     -0.412600
     18 C1U        -3.6880    0.5770    5.7080 ca        1 5WB     -0.021300
     19 C1W        -5.6150   -0.8780    5.6060 ca        1 5WB      0.132600
     20 C1X        -5.8570    1.5030    5.1850 ca        1 5WB      0.132600
     21 C1Y        -6.4370    0.2190    5.2680 ca        1 5WB      0.046100
     22 C1Z        -2.2060    0.7370    5.9380 c3        1 5WB      0.281500
     23 H1A        -4.7180   -3.2900    4.9630 h1        1 5WB      0.045867
     24 H1AA       -6.1610   -4.0880    5.7780 h1        1 5WB      0.045867
     25 H1AB       -4.8820   -3.2410    6.7910 h1        1 5WB      0.045867
     26 H1B        -7.0260    4.4550    4.4280 h1        1 5WB      0.045867
     27 H1BA       -5.6680    4.1790    5.6380 h1        1 5WB      0.045867
     28 H1BB       -5.4080    3.7850    3.8640 h1        1 5WB      0.045867
     29 H1C        -8.5850    1.5700    6.0290 h1        1 5WB      0.041033
     30 H1CA       -9.6850    0.2150    5.4380 h1        1 5WB      0.041033
     31 H1CB       -8.5530   -0.0680    6.8600 h1        1 5WB      0.041033
     32 H1D         0.0630    2.1410    5.9420 h1        1 5WB      0.038033
     33 H1DA       -0.6400    3.4060    7.0770 h1        1 5WB      0.038033
     34 H1DB       -0.3810    1.6820    7.6600 h1        1 5WB      0.038033
     35 H1E        -2.7610    0.1230    1.4840 hc        1 5WB      0.064700
     36 H1EA       -1.9720    1.7050    1.9030 hc        1 5WB      0.064700
     37 H1EB       -2.1600    1.2140    0.1610 hc        1 5WB      0.064700
     38 HN1F        2.8410   -1.5180   -0.7740 hn        1 5WB      0.434800
     39 HN1A        1.5980   -0.8360   -1.7040 hn        1 5WB      0.434800
     40 HN1G        2.5310   -1.6650    3.9250 hn        1 5WB      0.432800
     41 HN1B        1.1430   -1.0350    4.6760 hn        1 5WB      0.432800
     42 H1J        -3.6010   -1.5560    6.0690 ha        1 5WB      0.150500
     43 H1K        -4.0220    2.6760    5.3340 ha        1 5WB      0.150500
     44 H1Z        -1.8770    0.0350    6.7650 h1        1 5WB      0.055700
     45 O1N        -6.2660   -2.0890    5.7210 os        1 5WB     -0.313400
     46 C1D        -0.6480    2.3260    6.7850 c3        1 5WB      0.113700
     47 O1O        -6.7330    2.5310    4.9020 os        1 5WB     -0.313400
     48 O1P        -7.7560   -0.0070    4.9220 os        1 5WB     -0.310900
@<TRIPOS>BOND
     1    1    2 ar  
     2    1    6 ar  
     3    2    3 ar  
     4    2   11 1   
     5    3    4 ar  
     6    4    5 ar  
     7    4   12 1   
     8    5    6 ar  
     9    5   13 1   
    10    6   10 1   
    11    7   23 1   
    12    7   24 1   
    13    7   25 1   
    14    7   45 1   
    15    8   26 1   
    16    8   27 1   
    17    8   28 1   
    18    8   47 1   
    19    9   29 1   
    20    9   30 1   
    21    9   31 1   
    22    9   48 1   
    23   10   35 1   
    24   10   36 1   
    25   10   37 1   
    26   11   38 1   
    27   11   39 1   
    28   12   40 1   
    29   12   41 1   
    30   13   14 3   
    31   14   22 1   
    32   15   18 ar  
    33   15   19 ar  
    34   15   42 1   
    35   16   18 ar  
    36   16   20 ar  
    37   16   43 1   
    38   17   22 1   
    39   17   46 1   
    40   18   22 1   
    41   19   21 ar  
    42   19   45 1   
    43   20   21 ar  
    44   20   47 1   
    45   21   48 1   
    46   22   44 1   
    47   32   46 1   
    48   33   46 1   
    49   34   46 1   
@<TRIPOS>SUBSTRUCTURE
     1 5WB         1 TEMP              0 ****  ****    0 ROOT
