@<TRIPOS>MOLECULE
5WB
   50    51     1     0     0
SMALL
bcc


@<TRIPOS>ATOM
      1 N1          0.1530   -1.0230   -0.0990 nb        1 5WB     -0.637000
      2 C2          1.0940   -0.0330   -0.3150 ca        1 5WB      0.727900
      3 N3          1.5620    0.8690    0.5850 nb        1 5WB     -0.658000
      4 C4          1.0240    0.7630    1.8420 ca        1 5WB      0.467200
      5 C5          0.0540   -0.2090    2.1950 ca        1 5WB     -0.012600
      6 C6         -0.3640   -1.1120    1.1360 ca        1 5WB      0.540600
      7 C1A        -5.5130   -3.6660    5.7400 c3        1 5WB      0.108700
      8 C1B        -5.0560    3.3990    6.3050 c3        1 5WB      0.108700
      9 C1C        -7.9660    1.0070    5.7350 c3        1 5WB      0.116700
     10 C1E        -1.3900   -2.1470    1.4480 c3        1 5WB     -0.185400
     11 N1F         1.6450    0.0390   -1.7000 n4        1 5WB     -0.813300
     12 N1G         1.4980    1.7240    2.8570 n4        1 5WB     -0.816300
     13 C1H        -0.4700   -0.2790    3.4750 cg        1 5WB     -0.333000
     14 C1I        -0.9580   -0.3510    4.5760 c1        1 5WB      0.176900
     15 C1J        -3.8030   -1.4170    5.6680 ca        1 5WB     -0.181500
     16 C1K        -3.6440    1.0010    5.8090 ca        1 5WB     -0.181500
     17 O1Q        -0.9260    0.6970    6.6230 os        1 5WB     -0.442600
     18 C1U        -3.0370   -0.2520    5.7990 ca        1 5WB     -0.146300
     19 C1W        -5.1860   -1.3190    5.5260 ca        1 5WB      0.102100
     20 C1X        -5.0350    1.1070    5.6620 ca        1 5WB      0.102100
     21 C1Y        -5.8300   -0.0480    5.5110 ca        1 5WB      0.130100
     22 C1Z        -1.5440   -0.3810    5.9090 c3        1 5WB      0.241500
     23 H1A        -5.1110   -3.6370    6.7800 h1        1 5WB      0.051867
     24 H1AA       -6.4140   -4.3310    5.6790 h1        1 5WB      0.051867
     25 H1AB       -4.7280   -4.0020    5.0200 h1        1 5WB      0.051867
     26 H1B        -4.1780    3.7680    5.7220 h1        1 5WB      0.051867
     27 H1BA       -5.8560    4.1830    6.3460 h1        1 5WB      0.051867
     28 H1BB       -4.7470    3.0920    7.3320 h1        1 5WB      0.051867
     29 H1C        -7.8300    1.8870    5.0600 h1        1 5WB      0.060033
     30 H1CA       -7.7040    1.2710    6.7860 h1        1 5WB      0.060033
     31 H1CB       -9.0100    0.6050    5.6670 h1        1 5WB      0.060033
     32 H1D        -2.2750    0.6930    8.2260 h1        1 5WB      0.062700
     33 H1DA       -0.7330   -0.2790    8.4660 h1        1 5WB      0.062700
     34 H1DB       -0.6600    1.5610    8.4170 h1        1 5WB      0.062700
     35 H1E        -2.3210   -1.6420    1.8180 hc        1 5WB      0.110700
     36 H1EA       -1.6530   -2.7760    0.5580 hc        1 5WB      0.110700
     37 H1EB       -1.0000   -2.8170    2.2590 hc        1 5WB      0.110700
     38 HN1F        2.0880   -0.8640   -1.9320 hn        1 5WB      0.497467
     39 HN1A        2.3420    0.7950   -1.7780 hn        1 5WB      0.497467
     40 HN1G        0.9670    1.5750    3.7320 hn        1 5WB      0.492467
     41 HN1B        2.5020    1.5820    3.0380 hn        1 5WB      0.492467
     42 H1J        -3.3210   -2.4050    5.6980 ha        1 5WB      0.144500
     43 H1K        -3.0320    1.9050    5.9440 ha        1 5WB      0.144500
     44 H1Z        -1.2720   -1.3650    6.4050 h1        1 5WB      0.104700
     45 O1N        -6.0270   -2.3940    5.3510 os        1 5WB     -0.305400
     46 C1D        -1.1760    0.6480    8.0270 c3        1 5WB      0.111700
     47 O1O        -5.6850    2.3240    5.6100 os        1 5WB     -0.305400
     48 O1P        -7.1740   -0.0870    5.2650 os        1 5WB     -0.290900
     49 H1F3        0.8710    0.2140   -2.3600 hn        1 5WB      0.497467
     50 H1G3        1.3510    2.6910    2.5310 hn        1 5WB      0.492467
@<TRIPOS>BOND
     1    1    2 ar  
     2    1    6 ar  
     3    2    3 ar  
     4    2   11 1   
     5    3    4 ar  
     6    4    5 ar  
     7    4   12 1   
     8    5    6 ar  
     9    5   13 1   
    10    6   10 1   
    11    7   23 1   
    12    7   24 1   
    13    7   25 1   
    14    7   45 1   
    15    8   26 1   
    16    8   27 1   
    17    8   28 1   
    18    8   47 1   
    19    9   29 1   
    20    9   30 1   
    21    9   31 1   
    22    9   48 1   
    23   10   35 1   
    24   10   36 1   
    25   10   37 1   
    26   11   38 1   
    27   11   39 1   
    28   11   49 1   
    29   12   40 1   
    30   12   41 1   
    31   12   50 1   
    32   13   14 3   
    33   14   22 1   
    34   15   18 ar  
    35   15   19 ar  
    36   15   42 1   
    37   16   18 ar  
    38   16   20 ar  
    39   16   43 1   
    40   17   22 1   
    41   17   46 1   
    42   18   22 1   
    43   19   21 ar  
    44   19   45 1   
    45   20   21 ar  
    46   20   47 1   
    47   21   48 1   
    48   22   44 1   
    49   32   46 1   
    50   33   46 1   
    51   34   46 1   
@<TRIPOS>SUBSTRUCTURE
     1 5WB         1 TEMP              0 ****  ****    0 ROOT
