@<TRIPOS>MOLECULE
5WB
   48    49     1     0     0
SMALL
bcc


@<TRIPOS>ATOM
      1 N1         -5.4020   -0.1720   -0.9610 nb        1 5WB     -0.794000
      2 C2         -5.4490   -1.3240   -0.1770 ca        1 5WB      0.923900
      3 N3         -4.3630   -1.9400    0.4150 nb        1 5WB     -0.835000
      4 C4         -3.1440   -1.3390    0.2350 ca        1 5WB      0.755200
      5 C5         -3.0140   -0.1210   -0.5300 ca        1 5WB     -0.358600
      6 C6         -4.1970    0.4040   -1.1130 ca        1 5WB      0.542600
      7 C1A         3.2980   -2.5010   -2.2370 c3        1 5WB      0.111200
      8 C1B         2.9920    1.6890    3.5910 c3        1 5WB      0.111200
      9 C1C         5.8190   -1.0820    1.7520 c3        1 5WB      0.115700
     10 C1E        -4.0930    1.6450   -1.9440 c3        1 5WB     -0.158400
     11 N1F        -6.7050   -1.8710    0.0760 nh        1 5WB     -0.936500
     12 N1G        -2.0260   -1.9450    0.7610 nh        1 5WB     -0.955500
     13 C1H        -1.7750    0.5030   -0.6830 cg        1 5WB     -0.050000
     14 C1I        -0.7060    1.0330   -0.8090 c1        1 5WB     -0.199100
     15 C1J         2.2170   -0.2400   -0.9860 ca        1 5WB     -0.208000
     16 C1K         2.0940    1.1560    0.9980 ca        1 5WB     -0.208000
     17 O1Q         0.6260    2.9710   -0.3970 os        1 5WB     -0.412600
     18 C1U         1.6650    0.8390   -0.2900 ca        1 5WB     -0.023300
     19 C1W         3.2060   -1.0210   -0.3770 ca        1 5WB      0.132100
     20 C1X         3.0830    0.3740    1.6090 ca        1 5WB      0.132100
     21 C1Y         3.6380   -0.7360    0.9370 ca        1 5WB      0.043100
     22 C1Z         0.5900    1.6530   -0.9670 c3        1 5WB      0.280500
     23 H1A         3.4540   -1.7060   -3.0070 h1        1 5WB      0.046200
     24 H1AA        3.8980   -3.4130   -2.4850 h1        1 5WB      0.046200
     25 H1AB        2.2140   -2.7530   -2.1470 h1        1 5WB      0.046200
     26 H1B         3.5300    1.6690    4.5730 h1        1 5WB      0.046200
     27 H1BA        3.1630    2.6600    3.0660 h1        1 5WB      0.046200
     28 H1BB        1.9000    1.5080    3.7350 h1        1 5WB      0.046200
     29 H1C         6.3590   -1.9070    2.2790 h1        1 5WB      0.041700
     30 H1CA        6.2920   -0.8650    0.7640 h1        1 5WB      0.041700
     31 H1CB        5.7830   -0.1600    2.3820 h1        1 5WB      0.041700
     32 H1D        -1.2900    3.5350   -1.0290 h1        1 5WB      0.037033
     33 H1DA       -0.1100    4.8390   -0.4890 h1        1 5WB      0.037033
     34 H1DB        0.0960    4.0230   -2.1240 h1        1 5WB      0.037033
     35 H1E        -3.3680    2.3530   -1.4720 hc        1 5WB      0.060367
     36 H1EA       -3.7150    1.3680   -2.9600 hc        1 5WB      0.060367
     37 H1EB       -5.0790    2.1590   -2.0590 hc        1 5WB      0.060367
     38 HN1F       -7.4560   -1.5800   -0.5030 hn        1 5WB      0.434300
     39 HN1A       -6.7410   -2.7920    0.4420 hn        1 5WB      0.434300
     40 HN1G       -2.1220   -2.7080    1.3850 hn        1 5WB      0.442300
     41 HN1B       -1.1790   -1.4300    0.7670 hn        1 5WB      0.442300
     42 H1J         1.8710   -0.4670   -2.0040 ha        1 5WB      0.152500
     43 H1K         1.6540    2.0220    1.5140 ha        1 5WB      0.152500
     44 H1Z         0.8230    1.7390   -2.0730 h1        1 5WB      0.059700
     45 O1N         3.8310   -2.0910   -0.9820 os        1 5WB     -0.312900
     46 C1D        -0.2280    3.8860   -1.0630 c3        1 5WB      0.114700
     47 O1O         3.5910    0.6170    2.8690 os        1 5WB     -0.312900
     48 O1P         4.5030   -1.6090    1.5670 os        1 5WB     -0.311900
@<TRIPOS>BOND
     1    1    2 ar  
     2    1    6 ar  
     3    2    3 ar  
     4    2   11 1   
     5    3    4 ar  
     6    4    5 ar  
     7    4   12 1   
     8    5    6 ar  
     9    5   13 1   
    10    6   10 1   
    11    7   23 1   
    12    7   24 1   
    13    7   25 1   
    14    7   45 1   
    15    8   26 1   
    16    8   27 1   
    17    8   28 1   
    18    8   47 1   
    19    9   29 1   
    20    9   30 1   
    21    9   31 1   
    22    9   48 1   
    23   10   35 1   
    24   10   36 1   
    25   10   37 1   
    26   11   38 1   
    27   11   39 1   
    28   12   40 1   
    29   12   41 1   
    30   13   14 3   
    31   14   22 1   
    32   15   18 ar  
    33   15   19 ar  
    34   15   42 1   
    35   16   18 ar  
    36   16   20 ar  
    37   16   43 1   
    38   17   22 1   
    39   17   46 1   
    40   18   22 1   
    41   19   21 ar  
    42   19   45 1   
    43   20   21 ar  
    44   20   47 1   
    45   21   48 1   
    46   22   44 1   
    47   32   46 1   
    48   33   46 1   
    49   34   46 1   
@<TRIPOS>SUBSTRUCTURE
     1 5WB         1 TEMP              0 ****  ****    0 ROOT
