@<TRIPOS>MOLECULE
5WB
   48    43     1     0     0
SMALL
bcc


@<TRIPOS>ATOM
      1 N1          3.8770   -1.3200   -3.5280 n1        1 5WB     -0.268000
      2 C2          5.1510   -0.7940   -3.4250 c1        1 5WB      0.204000
      3 N3          5.5060   -0.0960   -2.3280 n1        1 5WB     -0.308000
      4 C4          4.6370    0.0870   -1.3460 c1        1 5WB      0.232000
      5 C5          3.3570   -0.4400   -1.4470 c1        1 5WB     -0.221000
      6 C6          3.0010   -1.1390   -2.5460 c1        1 5WB      0.119000
      7 C1A        -3.6190   -3.0100    2.0690 c3        1 5WB     -0.078000
      8 C1B        -3.5290    3.6230    0.2350 c3        1 5WB     -0.066000
      9 C1C        -5.8160    0.3260    0.7120 c3        1 5WB     -0.076000
     10 C1D         1.5070    1.3860    3.5000 c3        1 5WB     -0.075000
     11 C1E         1.9260   -1.9650   -3.2500 c3        1 5WB     -0.182000
     12 N1F         6.1500   -0.9870   -4.5580 n3        1 5WB     -0.334000
     13 N1G         5.0460    0.8370   -0.1190 n3        1 5WB     -0.351000
     14 C1H         2.3720   -0.2250   -0.3470 c1        1 5WB     -0.057000
     15 C1I         1.5730   -0.0410    0.5510 c1        1 5WB     -0.223000
     16 C1J        -1.5870   -0.9740    1.2480 c1        1 5WB     -0.222000
     17 C1K        -1.4060    1.3020    0.5830 c1        1 5WB     -0.146000
     18 O1N        -3.6830   -2.2500    0.8060 os        1 5WB     -0.205000
     19 O1O        -3.2620    2.3780   -0.5900 os        1 5WB     -0.210000
     20 O1P        -4.8160    0.1090   -0.2340 os        1 5WB     -0.217000
     21 O1Q         0.8410    1.4750    2.2840 os        1 5WB     -0.265000
     22 C1U        -0.8440    0.1620    1.1210 c1        1 5WB     -0.023000
     23 C1W        -2.9470   -0.9910    0.8270 c2        1 5WB      0.085000
     24 C1X        -2.7680    1.2980    0.1580 c1        1 5WB      0.098000
     25 C1Y        -3.5180    0.1550    0.2840 c2        1 5WB     -0.041000
     26 C1Z         0.5860    0.1930    1.6710 c2        1 5WB      0.190000
     27 H1A        -3.6930   -2.3750    2.8440 h1        1 5WB      0.085667
     28 H1AA       -4.3430   -3.6360    2.1000 h1        1 5WB      0.085667
     29 H1AB       -2.7030   -3.5280    2.1230 h1        1 5WB      0.085667
     30 H1B        -3.7400    4.3790   -0.3700 h1        1 5WB      0.087000
     31 H1BA       -4.3410    3.4500    0.8770 h1        1 5WB      0.087000
     32 H1BB       -2.7250    3.8470    0.7710 h1        1 5WB      0.087000
     33 H1C        -6.6270    0.6250    0.2640 h1        1 5WB      0.083000
     34 H1CA       -5.9900   -0.4850    1.1780 h1        1 5WB      0.083000
     35 H1CB       -5.5190    1.0250    1.3610 h1        1 5WB      0.083000
     36 H1D         2.3700    1.1100    3.3510 h1        1 5WB      0.076667
     37 H1DA        1.5160    2.2930    3.9570 h1        1 5WB      0.076667
     38 H1DB        1.0420    0.7220    4.0860 h1        1 5WB      0.076667
     39 H1E         1.8260   -2.8060   -2.8020 hc        1 5WB      0.099667
     40 H1EA        1.1180   -1.5050   -3.2300 hc        1 5WB      0.099667
     41 H1EB        2.1950   -2.1220   -4.2000 hc        1 5WB      0.099667
     42 HN1F        5.9990   -1.5130   -5.1380 hn        1 5WB      0.229500
     43 HN1A        6.9310   -0.4530   -4.5960 hn        1 5WB      0.229500
     44 HN1G        5.9440    1.0330    0.0300 hn        1 5WB      0.235500
     45 HN1B        4.3650    1.0730    0.5700 hn        1 5WB      0.235500
     46 H1J        -1.1660   -1.8130    1.6480 ha        1 5WB      0.143000
     47 H1K        -0.8820    2.0980    0.5000 ha        1 5WB      0.173000
     48 H1Z         0.6870   -0.5180    2.3450 h4        1 5WB      0.098000
@<TRIPOS>BOND
     1    1    6 1   
     2    2    3 1   
     3    2   12 1   
     4    4    5 1   
     5    4   13 1   
     6    5   14 1   
     7    6   11 1   
     8    7   18 1   
     9    7   27 1   
    10    7   28 1   
    11    7   29 1   
    12    8   19 1   
    13    8   30 1   
    14    8   31 1   
    15    8   32 1   
    16    9   20 1   
    17    9   33 1   
    18    9   34 1   
    19    9   35 1   
    20   10   21 1   
    21   10   36 1   
    22   10   37 1   
    23   10   38 1   
    24   11   39 1   
    25   11   40 1   
    26   11   41 1   
    27   12   42 1   
    28   12   43 1   
    29   13   44 1   
    30   13   45 1   
    31   14   15 1   
    32   16   23 1   
    33   16   46 1   
    34   17   22 1   
    35   17   47 1   
    36   18   23 1   
    37   19   24 1   
    38   20   25 1   
    39   21   26 1   
    40   22   26 1   
    41   23   25 1   
    42   24   25 1   
    43   26   48 1   
@<TRIPOS>SUBSTRUCTURE
     1 5WB         1 TEMP              0 ****  ****    0 ROOT
