@<TRIPOS>MOLECULE
5WW
   34    36     1     0     0
SMALL
bcc


@<TRIPOS>ATOM
      1 CAT         0.1250    0.2090   -0.2540 c3        1 5WW      0.111700
      2 OAR         1.4060   -0.3740   -0.0380 os        1 5WW     -0.322900
      3 CAP         1.9430   -0.2190    1.2230 ca        1 5WW      0.139100
      4 CAQ         3.2090   -0.8100    1.4020 ca        1 5WW     -0.181500
      5 CAM         3.8390   -0.7090    2.6350 ca        1 5WW     -0.075500
      6 CAO         1.3190    0.4620    2.2750 ca        1 5WW     -0.181500
      7 CAN         1.9640    0.5520    3.5060 ca        1 5WW     -0.075500
      8 CAL         3.2220   -0.0290    3.6970 ca        1 5WW     -0.113800
      9 CAI         3.8790    0.0690    5.0110 cc        1 5WW      0.108400
     10 CAH         3.1820   -0.1810    6.1670 cd        1 5WW     -0.199200
     11 CAE         3.8240   -0.0910    7.4510 ca        1 5WW     -0.028800
     12 CAD         3.1360   -0.3350    8.6810 ca        1 5WW      0.125600
     13 NAS         1.7960   -0.7430    8.6990 nh        1 5WW     -0.811200
     14 CAC         3.8540   -0.2360    9.8880 ca        1 5WW     -0.167000
     15 CAB         5.2110    0.0860    9.8980 ca        1 5WW     -0.115000
     16 CAA         5.8840    0.3320    8.7110 ca        1 5WW     -0.106000
     17 CAF         5.1920    0.2450    7.4960 ca        1 5WW     -0.122600
     18 CAG         5.9300    0.5170    6.2460 c         1 5WW      0.704100
     19 OAK         7.1370    0.8280    6.1950 o         1 5WW     -0.641500
     20 NAJ         5.2230    0.4190    5.0440 n         1 5WW     -0.450100
     21 HAT1       -0.0970   -0.0420   -1.3220 h1        1 5WW      0.047367
     22 HAT2       -0.6350   -0.2470    0.4250 h1        1 5WW      0.047367
     23 HAT3        0.1670    1.3160   -0.1100 h1        1 5WW      0.047367
     24 HAQ         3.6800   -1.3440    0.5640 ha        1 5WW      0.148500
     25 HAO         0.3310    0.9260    2.1430 ha        1 5WW      0.148500
     26 HAM         4.8230   -1.1830    2.7780 ha        1 5WW      0.141500
     27 HAN         1.4790    1.0900    4.3360 ha        1 5WW      0.141500
     28 HAH         2.1300   -0.4840    6.0870 ha        1 5WW      0.145000
     29 HAJ         5.6990    0.6090    4.1890 hn        1 5WW      0.334500
     30 HAS1        1.2500   -0.4000    7.9390 hn        1 5WW      0.387300
     31 HAS2        1.3490   -0.6140    9.5810 hn        1 5WW      0.387300
     32 HAC         3.3460   -0.4240   10.8470 ha        1 5WW      0.133000
     33 HAB         5.7450    0.1480   10.8580 ha        1 5WW      0.137000
     34 HAA         6.9540    0.5950    8.7010 ha        1 5WW      0.160000
@<TRIPOS>BOND
     1    1    2 1   
     2    1   21 1   
     3    1   22 1   
     4    1   23 1   
     5    2    3 1   
     6    3    4 ar  
     7    3    6 ar  
     8    4    5 ar  
     9    4   24 1   
    10    5    8 ar  
    11    5   26 1   
    12    6    7 ar  
    13    6   25 1   
    14    7    8 ar  
    15    7   27 1   
    16    8    9 1   
    17    9   10 2   
    18    9   20 1   
    19   10   11 1   
    20   10   28 1   
    21   11   12 ar  
    22   11   17 ar  
    23   12   13 1   
    24   12   14 ar  
    25   13   30 1   
    26   13   31 1   
    27   14   15 ar  
    28   14   32 1   
    29   15   16 ar  
    30   15   33 1   
    31   16   17 ar  
    32   16   34 1   
    33   17   18 1   
    34   18   19 2   
    35   18   20 1   
    36   20   29 1   
@<TRIPOS>SUBSTRUCTURE
     1 5WW         1 TEMP              0 ****  ****    0 ROOT
