@<TRIPOS>MOLECULE
5WW
   34    36     1     0     0
SMALL
bcc


@<TRIPOS>ATOM
      1 CAT         0.1210    0.3220   -0.2460 c3        1 5WW      0.111700
      2 OAR         1.3840   -0.3010   -0.0340 os        1 5WW     -0.323900
      3 CAP         1.9290   -0.1640    1.2260 ca        1 5WW      0.138100
      4 CAQ         3.1830   -0.7820    1.3970 ca        1 5WW     -0.182000
      5 CAM         3.8180   -0.7020    2.6290 ca        1 5WW     -0.075500
      6 CAO         1.3210    0.5230    2.2840 ca        1 5WW     -0.182000
      7 CAN         1.9720    0.5920    3.5140 ca        1 5WW     -0.075500
      8 CAL         3.2180   -0.0170    3.6970 ca        1 5WW     -0.115800
      9 CAI         3.8800    0.0590    5.0110 cc        1 5WW      0.108400
     10 CAH         3.1780   -0.1790    6.1650 cd        1 5WW     -0.199200
     11 CAE         3.8200   -0.0980    7.4500 ca        1 5WW     -0.027800
     12 CAD         3.1320   -0.3480    8.6780 ca        1 5WW      0.123600
     13 NAS         1.7590   -0.6320    8.6980 nv        1 5WW     -0.810200
     14 CAC         3.8410   -0.2260    9.8880 ca        1 5WW     -0.166000
     15 CAB         5.1890    0.1350    9.9020 ca        1 5WW     -0.116000
     16 CAA         5.8670    0.3680    8.7160 ca        1 5WW     -0.105000
     17 CAF         5.1860    0.2480    7.4970 ca        1 5WW     -0.123600
     18 CAG         5.9320    0.4980    6.2470 c         1 5WW      0.704100
     19 OAK         7.1410    0.8000    6.1980 o         1 5WW     -0.640500
     20 NAJ         5.2320    0.3810    5.0430 ns        1 5WW     -0.450100
     21 HAT1        0.1960    1.4260   -0.0930 h1        1 5WW      0.047367
     22 HAT2       -0.1070    0.0850   -1.3160 h1        1 5WW      0.047367
     23 HAT3       -0.6520   -0.1170    0.4290 h1        1 5WW      0.047367
     24 HAQ         3.6410   -1.3190    0.5540 ha        1 5WW      0.149000
     25 HAO         0.3440    1.0090    2.1580 ha        1 5WW      0.149000
     26 HAM         4.7930   -1.1950    2.7650 ha        1 5WW      0.143500
     27 HAN         1.5010    1.1350    4.3490 ha        1 5WW      0.143500
     28 HAH         2.1110   -0.4220    6.0880 ha        1 5WW      0.145000
     29 HAJ         5.7100    0.5660    4.1890 hn        1 5WW      0.334500
     30 HAS1        1.4510   -1.0460    9.5520 hn        1 5WW      0.386800
     31 HAS2        1.4320   -1.1260    7.8970 hn        1 5WW      0.386800
     32 HAC         3.3300   -0.4090   10.8460 ha        1 5WW      0.133000
     33 HAB         5.7130    0.2290   10.8650 ha        1 5WW      0.137000
     34 HAA         6.9340    0.6450    8.7090 ha        1 5WW      0.160000
@<TRIPOS>BOND
     1    1    2 1   
     2    1   21 1   
     3    1   22 1   
     4    1   23 1   
     5    2    3 1   
     6    3    4 ar  
     7    3    6 ar  
     8    4    5 ar  
     9    4   24 1   
    10    5    8 ar  
    11    5   26 1   
    12    6    7 ar  
    13    6   25 1   
    14    7    8 ar  
    15    7   27 1   
    16    8    9 1   
    17    9   10 2   
    18    9   20 1   
    19   10   11 1   
    20   10   28 1   
    21   11   12 ar  
    22   11   17 ar  
    23   12   13 1   
    24   12   14 ar  
    25   13   30 1   
    26   13   31 1   
    27   14   15 ar  
    28   14   32 1   
    29   15   16 ar  
    30   15   33 1   
    31   16   17 ar  
    32   16   34 1   
    33   17   18 1   
    34   18   19 2   
    35   18   20 1   
    36   20   29 1   
@<TRIPOS>SUBSTRUCTURE
     1 5WW         1 TEMP              0 ****  ****    0 ROOT
