@<TRIPOS>MOLECULE
5X
   46    47     1     0     0
SMALL
bcc


@<TRIPOS>ATOM
      1 S19        -0.8700   -1.3120    0.1680 s4        1 5X       1.677300
      2 O20        -0.1930   -0.7270    1.1910 o         1 5X      -0.426400
      3 O21        -2.2140   -1.4810    0.1780 o         1 5X      -0.426400
      4 N22        -0.8110    0.6620   -1.1230 n3        1 5X      -0.739800
      5 C24        -0.0260   -2.1520   -0.8500 ca        1 5X      -0.602500
      6 C25         1.3770   -2.3020   -0.6910 ca        1 5X       0.031000
      7 C26         2.1190   -3.0850   -1.5560 ca        1 5X      -0.154000
      8 C27         1.4900   -3.7470   -2.6190 ca        1 5X       0.023000
      9 C29         0.1110   -3.6100   -2.8070 ca        1 5X      -0.154000
     10 C30        -0.6340   -2.8240   -1.9400 ca        1 5X       0.031000
     11 C1         -5.4950    0.3820   -1.9560 c3        1 5X      -0.023200
     12 C2         -6.7620    1.0260   -2.4200 c2        1 5X      -0.154400
     13 N1         -2.0960    1.1010   -1.3150 n         1 5X      -0.412800
     14 C9         -2.5030    2.4320   -0.9480 c         1 5X       0.254000
     15 C14        -4.2860    1.1950   -2.3900 c3        1 5X      -0.110600
     16 C7         -3.0020    0.4250   -2.2050 c         1 5X       0.724500
     17 S1         -4.0940    2.7170   -1.4670 ss        1 5X       0.054300
     18 S2         -1.6200    3.4200   -0.1490 s         1 5X      -0.218400
     19 O1         -2.7100   -0.6630   -2.7090 o         1 5X      -0.580500
     20 C3         -7.4260    0.5200   -3.4730 ce        1 5X      -0.063200
     21 C4         -7.2090    2.1860   -1.6150 c3        1 5X      -0.061900
     22 C5         -8.6630    1.0300   -4.0460 ca        1 5X      -0.082800
     23 C6         -8.8230    2.3850   -4.3660 ca        1 5X      -0.114000
     24 C8         -9.7050    0.1320   -4.3260 ca        1 5X      -0.114000
     25 C10       -10.8900    0.5880   -4.8990 ca        1 5X      -0.126500
     26 C11       -10.0070    2.8350   -4.9480 ca        1 5X      -0.126500
     27 C13       -11.0430    1.9400   -5.2110 ca        1 5X      -0.112000
     28 H22        -0.3430    0.5550   -2.0210 hn        1 5X       0.420800
     29 H25         1.8790   -1.7870    0.1520 ha        1 5X       0.180500
     30 H26         3.2080   -3.1930   -1.4090 ha        1 5X       0.180000
     31 H27         2.0830   -4.3750   -3.3070 ha        1 5X       0.175000
     32 H29        -0.3870   -4.1260   -3.6460 ha        1 5X       0.180000
     33 H30        -1.7260   -2.7080   -2.1040 ha        1 5X       0.180500
     34 H11A       -5.5080    0.2830   -0.8370 hc        1 5X       0.076700
     35 H12        -5.3950   -0.6530   -2.3850 hc        1 5X       0.076700
     36 H14        -4.3890    1.4480   -3.4820 h1        1 5X       0.144700
     37 H3         -7.0400   -0.3860   -3.9790 ha        1 5X       0.128000
     38 H41        -7.2650    1.9080   -0.5330 hc        1 5X       0.053033
     39 H42        -6.4830    3.0370   -1.7210 hc        1 5X       0.053033
     40 H43        -8.2180    2.5460   -1.9360 hc        1 5X       0.053033
     41 H6         -8.0060    3.0950   -4.1650 ha        1 5X       0.132000
     42 H8         -9.5850   -0.9350   -4.0860 ha        1 5X       0.132000
     43 H10       -11.7060   -0.1200   -5.1070 ha        1 5X       0.141000
     44 H11       -10.1230    3.9000   -5.1990 ha        1 5X       0.141000
     45 H13       -11.9790    2.2970   -5.6670 ha        1 5X       0.142000
     46 H222       -0.3050    1.3780   -0.5810 hn        1 5X       0.420800
@<TRIPOS>BOND
     1    1    2 1   
     2    1    3 1   
     3    1    5 1   
     4    4   13 1   
     5    4   28 1   
     6    4   46 1   
     7    5    6 ar  
     8    5   10 ar  
     9    6    7 ar  
    10    6   29 1   
    11    7    8 ar  
    12    7   30 1   
    13    8    9 ar  
    14    8   31 1   
    15    9   10 ar  
    16    9   32 1   
    17   10   33 1   
    18   11   12 1   
    19   11   15 1   
    20   11   34 1   
    21   11   35 1   
    22   12   20 2   
    23   12   21 1   
    24   13   14 1   
    25   13   16 1   
    26   14   17 1   
    27   14   18 2   
    28   15   16 1   
    29   15   17 1   
    30   15   36 1   
    31   16   19 2   
    32   20   22 1   
    33   20   37 1   
    34   21   38 1   
    35   21   39 1   
    36   21   40 1   
    37   22   23 ar  
    38   22   24 ar  
    39   23   26 ar  
    40   23   41 1   
    41   24   25 ar  
    42   24   42 1   
    43   25   27 ar  
    44   25   43 1   
    45   26   27 ar  
    46   26   44 1   
    47   27   45 1   
@<TRIPOS>SUBSTRUCTURE
     1 5X          1 TEMP              0 ****  ****    0 ROOT
