@<TRIPOS>MOLECULE
5X
   46    47     1     0     0
SMALL
bcc


@<TRIPOS>ATOM
      1 S19        -0.8650   -1.3160    0.1620 s4        1 5X       1.677300
      2 O20        -0.1860   -0.7320    1.1830 o         1 5X      -0.426400
      3 O21        -2.2100   -1.4830    0.1760 o         1 5X      -0.426400
      4 N22        -0.8080    0.6590   -1.1280 n8        1 5X      -0.739800
      5 C24        -0.0250   -2.1560   -0.8590 ca        1 5X      -0.602500
      6 C25         1.3790   -2.3070   -0.7030 ca        1 5X       0.031000
      7 C26         2.1180   -3.0910   -1.5710 ca        1 5X      -0.154000
      8 C27         1.4840   -3.7520   -2.6320 ca        1 5X       0.023000
      9 C29         0.1060   -3.6140   -2.8160 ca        1 5X      -0.154000
     10 C30        -0.6370   -2.8280   -1.9470 ca        1 5X       0.031000
     11 C1         -5.4940    0.3840   -1.9520 c3        1 5X      -0.023200
     12 C2         -6.7610    1.0280   -2.4140 c2        1 5X      -0.154400
     13 N1         -2.0930    1.0990   -1.3180 n         1 5X      -0.412800
     14 C9         -2.4980    2.4300   -0.9500 c         1 5X       0.254000
     15 C14        -4.2850    1.1950   -2.3880 c3        1 5X      -0.110600
     16 C7         -3.0010    0.4240   -2.2070 c         1 5X       0.724500
     17 S1         -4.0900    2.7180   -1.4660 ss        1 5X       0.054300
     18 S2         -1.6120    3.4180   -0.1530 s         1 5X      -0.218400
     19 O1         -2.7110   -0.6640   -2.7110 o         1 5X      -0.580500
     20 C3         -7.4280    0.5220   -3.4660 ce        1 5X      -0.063200
     21 C4         -7.2050    2.1900   -1.6110 c3        1 5X      -0.061900
     22 C5         -8.6650    1.0330   -4.0370 ca        1 5X      -0.082800
     23 C6         -8.8240    2.3880   -4.3590 ca        1 5X      -0.114000
     24 C8         -9.7090    0.1360   -4.3140 ca        1 5X      -0.114000
     25 C10       -10.8940    0.5930   -4.8840 ca        1 5X      -0.126500
     26 C11       -10.0080    2.8380   -4.9390 ca        1 5X      -0.126500
     27 C13       -11.0460    1.9440   -5.1990 ca        1 5X      -0.112000
     28 H22        -0.3420    0.5520   -2.0280 hn        1 5X       0.420800
     29 H25         1.8830   -1.7930    0.1380 ha        1 5X       0.180500
     30 H26         3.2060   -3.2000   -1.4260 ha        1 5X       0.180000
     31 H27         2.0760   -4.3810   -3.3210 ha        1 5X       0.175000
     32 H29        -0.3950   -4.1300   -3.6540 ha        1 5X       0.180000
     33 H30        -1.7290   -2.7110   -2.1080 ha        1 5X       0.180500
     34 H11A       -5.3960   -0.6510   -2.3810 hc        1 5X       0.076700
     35 H12        -5.5050    0.2860   -0.8330 hc        1 5X       0.076700
     36 H14        -4.3900    1.4490   -3.4810 h1        1 5X       0.144700
     37 H3         -7.0440   -0.3840   -3.9720 ha        1 5X       0.128000
     38 H41        -8.2140    2.5520   -1.9300 hc        1 5X       0.053033
     39 H42        -6.4780    3.0400   -1.7180 hc        1 5X       0.053033
     40 H43        -7.2610    1.9130   -0.5270 hc        1 5X       0.053033
     41 H6         -8.0050    3.0960   -4.1610 ha        1 5X       0.132000
     42 H8         -9.5900   -0.9310   -4.0710 ha        1 5X       0.132000
     43 H10       -11.7110   -0.1150   -5.0900 ha        1 5X       0.141000
     44 H11       -10.1230    3.9030   -5.1920 ha        1 5X       0.141000
     45 H13       -11.9820    2.3020   -5.6530 ha        1 5X       0.142000
     46 H222       -0.3000    1.3740   -0.5880 hn        1 5X       0.420800
@<TRIPOS>BOND
     1    1    2 1   
     2    1    3 1   
     3    1    5 1   
     4    4   13 1   
     5    4   28 1   
     6    4   46 1   
     7    5    6 ar  
     8    5   10 ar  
     9    6    7 ar  
    10    6   29 1   
    11    7    8 ar  
    12    7   30 1   
    13    8    9 ar  
    14    8   31 1   
    15    9   10 ar  
    16    9   32 1   
    17   10   33 1   
    18   11   12 1   
    19   11   15 1   
    20   11   34 1   
    21   11   35 1   
    22   12   20 2   
    23   12   21 1   
    24   13   14 1   
    25   13   16 1   
    26   14   17 1   
    27   14   18 2   
    28   15   16 1   
    29   15   17 1   
    30   15   36 1   
    31   16   19 2   
    32   20   22 1   
    33   20   37 1   
    34   21   38 1   
    35   21   39 1   
    36   21   40 1   
    37   22   23 ar  
    38   22   24 ar  
    39   23   26 ar  
    40   23   41 1   
    41   24   25 ar  
    42   24   42 1   
    43   25   27 ar  
    44   25   43 1   
    45   26   27 ar  
    46   26   44 1   
    47   27   45 1   
@<TRIPOS>SUBSTRUCTURE
     1 5X          1 TEMP              0 ****  ****    0 ROOT
