@<TRIPOS>MOLECULE
5X
   45    47     1     0     0
SMALL
bcc


@<TRIPOS>ATOM
      1 S19        -4.0280   -0.0620    0.2300 sy        1 5X       1.525200
      2 O20        -5.2370   -0.3400   -0.4330 o         1 5X      -0.633800
      3 O21        -3.8460   -0.5780    1.5200 o         1 5X      -0.633800
      4 N22        -2.8360   -0.5970   -0.8090 n3        1 5X      -0.649100
      5 C24        -3.7910    1.5950    0.2690 ca        1 5X      -0.396500
      6 C25        -4.2680    2.4110   -0.7660 ca        1 5X      -0.006000
      7 C26        -4.1010    3.7920   -0.7220 ca        1 5X      -0.156500
      8 C27        -3.4500    4.3790    0.3640 ca        1 5X      -0.057000
      9 C29        -2.9750    3.5820    1.4060 ca        1 5X      -0.156500
     10 C30        -3.1450    2.2010    1.3550 ca        1 5X      -0.006000
     11 C1          1.5950    0.3140    0.4810 c3        1 5X      -0.029200
     12 C2          3.0460   -0.0390    0.5600 c2        1 5X      -0.117400
     13 N1         -1.5620   -0.8450   -0.4620 n         1 5X      -0.268800
     14 C9         -1.1310   -2.1770   -0.1730 c         1 5X       0.308000
     15 C14         0.8760   -0.5380   -0.5480 c3        1 5X      -0.103600
     16 C7         -0.4910    0.0350   -0.8680 c         1 5X       0.686500
     17 S1          0.5840   -2.2160   -0.0180 ss        1 5X      -0.094700
     18 S2         -1.9870   -3.4380    0.0370 s         1 5X      -0.216400
     19 O1         -0.6770    1.1390   -1.3840 o         1 5X      -0.541500
     20 C3          3.9470    0.6520   -0.1570 ce        1 5X      -0.105200
     21 C4          3.3710   -1.1490    1.4860 c3        1 5X      -0.067900
     22 C5          5.3860    0.4280   -0.1930 ca        1 5X      -0.060800
     23 C6          5.9250   -0.8340   -0.4780 ca        1 5X      -0.118500
     24 C8          6.2530    1.5110    0.0180 ca        1 5X      -0.118500
     25 C10         7.6320    1.3290   -0.0410 ca        1 5X      -0.129500
     26 C11         7.3060   -1.0100   -0.5430 ca        1 5X      -0.129500
     27 C13         8.1620    0.0690   -0.3220 ca        1 5X      -0.125000
     28 H22        -3.0530   -0.8060   -1.7650 hn        1 5X       0.447800
     29 H25        -4.7960    1.9490   -1.6180 ha        1 5X       0.152500
     30 H26        -4.4810    4.4190   -1.5430 ha        1 5X       0.142500
     31 H27        -3.3140    5.4710    0.4000 ha        1 5X       0.138000
     32 H29        -2.4680    4.0420    2.2670 ha        1 5X       0.142500
     33 H30        -2.7810    1.5700    2.1860 ha        1 5X       0.152500
     34 H11A        1.1170    0.1780    1.4880 hc        1 5X       0.072700
     35 H12         1.4720    1.3940    0.1900 hc        1 5X       0.072700
     36 H14         1.4770   -0.5590   -1.4970 h1        1 5X       0.125700
     37 H3          3.6110    1.4960   -0.7890 ha        1 5X       0.130000
     38 H41         2.8180   -2.0760    1.1810 hc        1 5X       0.052700
     39 H42         4.4650   -1.3720    1.5010 hc        1 5X       0.052700
     40 H43         3.0510   -0.8830    2.5260 hc        1 5X       0.052700
     41 H6          5.2530   -1.6860   -0.6590 ha        1 5X       0.134500
     42 H8          5.8370    2.5060    0.2350 ha        1 5X       0.134500
     43 H10         8.3050    2.1810    0.1330 ha        1 5X       0.133500
     44 H11         7.7200   -2.0030   -0.7700 ha        1 5X       0.133500
     45 H13         9.2510   -0.0730   -0.3700 ha        1 5X       0.133000
@<TRIPOS>BOND
     1    1    2 2   
     2    1    3 2   
     3    1    4 1   
     4    1    5 1   
     5    4   13 1   
     6    4   28 1   
     7    5    6 ar  
     8    5   10 ar  
     9    6    7 ar  
    10    6   29 1   
    11    7    8 ar  
    12    7   30 1   
    13    8    9 ar  
    14    8   31 1   
    15    9   10 ar  
    16    9   32 1   
    17   10   33 1   
    18   11   12 1   
    19   11   15 1   
    20   11   34 1   
    21   11   35 1   
    22   12   20 2   
    23   12   21 1   
    24   13   14 1   
    25   13   16 1   
    26   14   17 1   
    27   14   18 2   
    28   15   16 1   
    29   15   17 1   
    30   15   36 1   
    31   16   19 2   
    32   20   22 1   
    33   20   37 1   
    34   21   38 1   
    35   21   39 1   
    36   21   40 1   
    37   22   23 ar  
    38   22   24 ar  
    39   23   26 ar  
    40   23   41 1   
    41   24   25 ar  
    42   24   42 1   
    43   25   27 ar  
    44   25   43 1   
    45   26   27 ar  
    46   26   44 1   
    47   27   45 1   
@<TRIPOS>SUBSTRUCTURE
     1 5X          1 TEMP              0 ****  ****    0 ROOT
