@<TRIPOS>MOLECULE
5X
   46    47     1     0     0
SMALL
bcc


@<TRIPOS>ATOM
      1 S19        -0.8580   -1.2650    0.1750 s4        1 5X       1.677300
      2 O20        -0.1640   -0.6540    1.1710 o         1 5X      -0.426400
      3 O21        -2.2030   -1.4200    0.2060 o         1 5X      -0.426400
      4 N22        -0.7950    0.6660   -1.1790 n3        1 5X      -0.739800
      5 C24        -0.0330   -2.1450   -0.8240 ca        1 5X      -0.602500
      6 C25         1.3710   -2.3030   -0.6760 ca        1 5X       0.031000
      7 C26         2.0950   -3.1210   -1.5240 ca        1 5X      -0.154000
      8 C27         1.4470   -3.8110   -2.5580 ca        1 5X       0.023000
      9 C29         0.0680   -3.6670   -2.7350 ca        1 5X      -0.154000
     10 C30        -0.6600   -2.8470   -1.8860 ca        1 5X       0.031000
     11 C1         -5.4910    0.4050   -1.9520 c3        1 5X      -0.023200
     12 C2         -6.7560    1.0450   -2.4240 c2        1 5X      -0.154400
     13 N1         -2.0780    1.1110   -1.3720 n         1 5X      -0.412800
     14 C9         -2.4680    2.4570   -1.0430 c         1 5X       0.254000
     15 C14        -4.2790    1.1910   -2.4250 c3        1 5X      -0.110600
     16 C7         -3.0000    0.4150   -2.2290 c         1 5X       0.724500
     17 S1         -4.0620    2.7410   -1.5550 ss        1 5X       0.054300
     18 S2         -1.5680    3.4620   -0.2870 s         1 5X      -0.218400
     19 O1         -2.7230   -0.6920   -2.7000 o         1 5X      -0.580500
     20 C3         -7.4370    0.5110   -3.4530 ce        1 5X      -0.063200
     21 C4         -7.1830    2.2360   -1.6540 c3        1 5X      -0.061900
     22 C5         -8.6750    1.0140   -4.0290 ca        1 5X      -0.082800
     23 C6         -8.8250    2.3590   -4.3920 ca        1 5X      -0.114000
     24 C8         -9.7280    0.1180   -4.2680 ca        1 5X      -0.114000
     25 C10       -10.9150    0.5660   -4.8420 ca        1 5X      -0.126500
     26 C11       -10.0110    2.8010   -4.9760 ca        1 5X      -0.126500
     27 C13       -11.0590    1.9080   -5.1980 ca        1 5X      -0.112000
     28 H22        -0.3380    0.5250   -2.0780 hn        1 5X       0.420800
     29 H25         1.8870   -1.7670    0.1440 ha        1 5X       0.180500
     30 H26         3.1840   -3.2350   -1.3850 ha        1 5X       0.180000
     31 H27         2.0270   -4.4670   -3.2320 ha        1 5X       0.175000
     32 H29        -0.4440   -4.2050   -3.5510 ha        1 5X       0.180000
     33 H30        -1.7520   -2.7250   -2.0410 ha        1 5X       0.180500
     34 H11A       -5.4050   -0.6450   -2.3490 hc        1 5X       0.076700
     35 H12        -5.4920    0.3430   -0.8300 hc        1 5X       0.076700
     36 H14        -4.3910    1.4100   -3.5240 h1        1 5X       0.144700
     37 H3         -7.0650   -0.4140   -3.9330 ha        1 5X       0.128000
     38 H41        -6.4500    3.0760   -1.7950 hc        1 5X       0.053033
     39 H42        -8.1920    2.5950   -1.9750 hc        1 5X       0.053033
     40 H43        -7.2310    1.9940   -0.5620 hc        1 5X       0.053033
     41 H6         -7.9990    3.0670   -4.2240 ha        1 5X       0.132000
     42 H8         -9.6160   -0.9420   -3.9930 ha        1 5X       0.132000
     43 H10       -11.7400   -0.1410   -5.0180 ha        1 5X       0.141000
     44 H11       -10.1200    3.8590   -5.2610 ha        1 5X       0.141000
     45 H13       -11.9960    2.2590   -5.6550 ha        1 5X       0.142000
     46 H222       -0.2770    1.3940   -0.6660 hn        1 5X       0.420800
@<TRIPOS>BOND
     1    1    2 1   
     2    1    3 1   
     3    1    5 1   
     4    4   13 1   
     5    4   28 1   
     6    4   46 1   
     7    5    6 ar  
     8    5   10 ar  
     9    6    7 ar  
    10    6   29 1   
    11    7    8 ar  
    12    7   30 1   
    13    8    9 ar  
    14    8   31 1   
    15    9   10 ar  
    16    9   32 1   
    17   10   33 1   
    18   11   12 1   
    19   11   15 1   
    20   11   34 1   
    21   11   35 1   
    22   12   20 2   
    23   12   21 1   
    24   13   14 1   
    25   13   16 1   
    26   14   17 1   
    27   14   18 2   
    28   15   16 1   
    29   15   17 1   
    30   15   36 1   
    31   16   19 2   
    32   20   22 1   
    33   20   37 1   
    34   21   38 1   
    35   21   39 1   
    36   21   40 1   
    37   22   23 ar  
    38   22   24 ar  
    39   23   26 ar  
    40   23   41 1   
    41   24   25 ar  
    42   24   42 1   
    43   25   27 ar  
    44   25   43 1   
    45   26   27 ar  
    46   26   44 1   
    47   27   45 1   
@<TRIPOS>SUBSTRUCTURE
     1 5X          1 TEMP              0 ****  ****    0 ROOT
