@<TRIPOS>MOLECULE
5X
   45    40     1     0     0
SMALL
bcc


@<TRIPOS>ATOM
      1 S19        -1.9290    3.0980    0.7480 ss        1 5X       2.868000
      2 O20        -1.9400    3.1060    2.1850 o         1 5X      -0.915000
      3 O21        -2.9710    2.1500    0.4660 o         1 5X      -0.915000
      4 N22        -0.4820    2.5830    0.1660 n2        1 5X      -0.748000
      5 C24        -2.3200    4.7010    0.0920 c1        1 5X      -0.455000
      6 C25        -1.9440    5.8430    0.7830 c1        1 5X      -0.060000
      7 C26        -2.3230    7.0920    0.3160 c1        1 5X      -0.116000
      8 C27        -3.0770    7.2000   -0.8420 c1        1 5X      -0.116000
      9 C29        -3.4530    6.0590   -1.5330 c1        1 5X      -0.146500
     10 C30        -3.0750    4.8100   -1.0670 c2        1 5X      -0.067000
     11 C1          1.3500   -1.8920    0.4510 c3        1 5X      -0.116000
     12 C2          1.3750   -3.0500    1.4260 c2        1 5X      -0.120000
     13 N1          0.0200    1.3540    0.5510 n         1 5X      -0.170000
     14 C9          0.6500    1.0230    1.9150 c2        1 5X      -0.195000
     15 C14         0.2000   -1.0860    0.7000 c3        1 5X      -0.279000
     16 C7          0.2250    0.2450   -0.2880 c2        1 5X       0.299000
     17 S1          0.3190   -0.3970    2.1830 ss        1 5X       0.293000
     18 S2          1.2000    2.1340    3.0410 s         1 5X      -0.015000
     19 O1          0.1210    0.2370   -1.4980 o         1 5X      -0.253000
     20 C3          1.5580   -4.3110    0.9730 c1        1 5X      -0.103000
     21 C4          1.1970   -2.7960    2.9080 c3        1 5X      -0.185000
     22 C5          1.7360   -4.5660   -0.5120 c1        1 5X      -0.455000
     23 C6          2.9970   -4.4800   -1.0810 c2        1 5X      -0.067000
     24 C8          0.6590   -4.9890   -1.2750 c1        1 5X      -0.060000
     25 C10         0.8430   -5.3250   -2.6080 c1        1 5X      -0.116000
     26 C11         3.1810   -4.8160   -2.4140 c1        1 5X      -0.146500
     27 C13         2.1040   -5.2390   -3.1770 c1        1 5X      -0.116000
     28 H22         0.0020    3.1190   -0.3910 hn        1 5X       0.241000
     29 H25        -1.4130    5.7670    1.5980 ha        1 5X       0.153000
     30 H26        -2.0580    7.8960    0.8030 ha        1 5X       0.139750
     31 H27        -3.3440    8.0810   -1.1710 ha        1 5X       0.139750
     32 H29        -3.9850    6.1350   -2.3490 ha        1 5X       0.138000
     33 H30        -3.3400    4.0060   -1.5530 ha        1 5X       0.147500
     34 H11A        1.3140   -2.2360   -0.4640 hc        1 5X       0.118500
     35 H12         2.1580   -1.3510    0.5650 hc        1 5X       0.118500
     36 H14        -0.5170   -1.7350    0.5620 h1        1 5X       0.173000
     37 H3          1.5740   -5.0580    1.6020 ha        1 5X       0.130000
     38 H41         1.5620   -1.9160    3.1350 hc        1 5X       0.086667
     39 H42         0.2440   -2.8220    3.1310 hc        1 5X       0.086667
     40 H43         1.6710   -3.4870    3.4170 hc        1 5X       0.086667
     41 H6          3.7560   -4.1820   -0.5440 ha        1 5X       0.147500
     42 H8         -0.2290   -5.0500   -0.8750 ha        1 5X       0.153000
     43 H10         0.0840   -5.6220   -3.1450 ha        1 5X       0.139750
     44 H11         4.0690   -4.7550   -2.8150 ha        1 5X       0.138000
     45 H13         2.2330   -5.4750   -4.1150 ha        1 5X       0.139750
@<TRIPOS>BOND
     1    1    2 1   
     2    1    3 1   
     3    4   13 1   
     4    4   28 1   
     5    5    6 1   
     6    5   10 1   
     7    6   29 1   
     8    7    8 1   
     9    7   30 1   
    10    8   31 1   
    11    9   10 1   
    12    9   32 1   
    13   10   33 1   
    14   11   12 1   
    15   11   15 1   
    16   11   34 1   
    17   11   35 1   
    18   12   20 1   
    19   12   21 1   
    20   13   14 1   
    21   13   16 1   
    22   14   17 1   
    23   14   18 1   
    24   15   16 1   
    25   15   17 1   
    26   15   36 1   
    27   16   19 1   
    28   20   37 1   
    29   21   38 1   
    30   21   39 1   
    31   21   40 1   
    32   22   23 1   
    33   22   24 1   
    34   23   26 1   
    35   23   41 1   
    36   24   42 1   
    37   25   27 1   
    38   25   43 1   
    39   26   44 1   
    40   27   45 1   
@<TRIPOS>SUBSTRUCTURE
     1 5X          1 TEMP              0 ****  ****    0 ROOT
