@<TRIPOS>MOLECULE
5XA
   23    22     1     0     0
SMALL
bcc


@<TRIPOS>ATOM
      1 O8          1.7120    0.7980   -0.6340 oh        1 5XA     -0.368300
      2 N7          1.1910   -0.2610    0.0220 n4        1 5XA     -0.471300
      3 C6          2.0140   -0.4720    1.3310 c         1 5XA      0.582100
      4 O9          1.3580   -0.9790    2.2170 o         1 5XA     -0.366100
      5 C5          3.4390   -0.0220    1.2880 c3        1 5XA     -0.135400
      6 C4          4.1100   -0.2960    2.6240 c3        1 5XA     -0.086400
      7 C3          5.5460    0.1970    2.6120 c3        1 5XA     -0.107400
      8 C2          6.1790   -0.0880    3.9720 c3        1 5XA      0.099800
      9 N1          7.5960    0.3640    4.0680 n4        1 5XA     -0.837600
     10 H1          1.1310    1.0280   -1.3990 ho        1 5XA      0.493000
     11 H2          0.1940   -0.1050    0.2740 hn        1 5XA      0.478300
     12 H3          3.9740   -0.5580    0.4550 hc        1 5XA      0.124200
     13 H4          3.4610    1.0800    1.0460 hc        1 5XA      0.124200
     14 H5          4.0850   -1.3980    2.8390 hc        1 5XA      0.086700
     15 H6          3.5360    0.2170    3.4440 hc        1 5XA      0.086700
     16 H7          6.1180   -0.3240    1.7980 hc        1 5XA      0.079200
     17 H8          5.5650    1.2990    2.3950 hc        1 5XA      0.079200
     18 H9          6.1600   -1.1990    4.1810 hx        1 5XA      0.122700
     19 H10         5.5970    0.4380    4.7860 hx        1 5XA      0.122700
     20 H11         7.9670    0.1460    5.0030 hn        1 5XA      0.472133
     21 H12         8.1750   -0.1110    3.3660 hn        1 5XA      0.472133
     22 H72         1.2580   -1.1180   -0.5590 hn        1 5XA      0.478300
     23 H13         7.6630    1.3770    3.9160 hn        1 5XA      0.472133
@<TRIPOS>BOND
     1    1    2 1   
     2    1   10 1   
     3    2    3 1   
     4    2   11 1   
     5    2   22 1   
     6    3    4 2   
     7    3    5 1   
     8    5    6 1   
     9    5   12 1   
    10    5   13 1   
    11    6    7 1   
    12    6   14 1   
    13    6   15 1   
    14    7    8 1   
    15    7   16 1   
    16    7   17 1   
    17    8    9 1   
    18    8   18 1   
    19    8   19 1   
    20    9   20 1   
    21    9   21 1   
    22    9   23 1   
@<TRIPOS>SUBSTRUCTURE
     1 5XA         1 TEMP              0 ****  ****    0 ROOT
