@<TRIPOS>MOLECULE
5XA
   23    22     1     0     0
SMALL
bcc


@<TRIPOS>ATOM
      1 O8          1.7250   -0.8030   -0.6450 oh        1 5XA     -0.368300
      2 N7          1.2020    0.2590    0.0040 ny        1 5XA     -0.471300
      3 C6          2.0180    0.4730    1.3170 c         1 5XA      0.582100
      4 O9          1.3590    0.9840    2.1970 o         1 5XA     -0.366100
      5 C5          3.4430    0.0210    1.2820 c3        1 5XA     -0.135400
      6 C4          4.1080    0.2970    2.6210 c3        1 5XA     -0.086400
      7 C3          5.5430   -0.1970    2.6170 c3        1 5XA     -0.107400
      8 C2          6.1700    0.0910    3.9800 c3        1 5XA      0.099800
      9 N1          7.5860   -0.3630    4.0840 nz        1 5XA     -0.837600
     10 H1          1.1470   -1.0360   -1.4120 ho        1 5XA      0.493000
     11 H2          1.2730    1.1140   -0.5790 hn        1 5XA      0.478300
     12 H3          3.9830    0.5540    0.4500 hc        1 5XA      0.124200
     13 H4          3.4650   -1.0820    1.0440 hc        1 5XA      0.124200
     14 H5          4.0830    1.4010    2.8330 hc        1 5XA      0.086700
     15 H6          3.5290   -0.2120    3.4390 hc        1 5XA      0.086700
     16 H7          5.5620   -1.3000    2.4040 hc        1 5XA      0.079200
     17 H8          6.1200    0.3200    1.8040 hc        1 5XA      0.079200
     18 H9          6.1510    1.2030    4.1850 hx        1 5XA      0.122700
     19 H10         5.5830   -0.4320    4.7920 hx        1 5XA      0.122700
     20 H11         8.1690    0.1100    3.3830 hn        1 5XA      0.472133
     21 H12         7.6520   -1.3760    3.9350 hn        1 5XA      0.472133
     22 H72         0.2030    0.1050    0.2520 hn        1 5XA      0.478300
     23 H13         7.9520   -0.1420    5.0200 hn        1 5XA      0.472133
@<TRIPOS>BOND
     1    1    2 1   
     2    1   10 1   
     3    2    3 1   
     4    2   11 1   
     5    2   22 1   
     6    3    4 2   
     7    3    5 1   
     8    5    6 1   
     9    5   12 1   
    10    5   13 1   
    11    6    7 1   
    12    6   14 1   
    13    6   15 1   
    14    7    8 1   
    15    7   16 1   
    16    7   17 1   
    17    8    9 1   
    18    8   18 1   
    19    8   19 1   
    20    9   20 1   
    21    9   21 1   
    22    9   23 1   
@<TRIPOS>SUBSTRUCTURE
     1 5XA         1 TEMP              0 ****  ****    0 ROOT
