@<TRIPOS>MOLECULE
5Y0
   41    42     1     0     0
SMALL
bcc


@<TRIPOS>ATOM
      1 C13         1.2580   -0.5560   -0.1660 ca        1 5Y0      0.015600
      2 C14         1.1830    0.8340    0.0330 ca        1 5Y0     -0.115000
      3 C15         2.2460    1.5370    0.5900 ca        1 5Y0     -0.084000
      4 C16         3.4130    0.8720    0.9730 ca        1 5Y0      0.054900
      5 C17         3.5170   -0.5040    0.7940 ca        1 5Y0     -0.111000
      6 C18         2.4510   -1.2230    0.2230 ca        1 5Y0      0.115900
      7 N9          0.1720   -1.3240   -0.7060 nh        1 5Y0     -0.626000
      8 C5         -0.3910   -0.8290   -1.9200 ca        1 5Y0      0.123600
      9 C6          0.1550   -1.2140   -3.1660 ca        1 5Y0     -0.169600
     10 C1         -0.3900   -0.7450   -4.3700 ca        1 5Y0     -0.034000
     11 C2         -1.5100    0.0740   -4.3740 ca        1 5Y0     -0.149000
     12 C3         -2.1020    0.4520   -3.1560 ca        1 5Y0      0.183900
     13 C4         -1.5360    0.0120   -1.9270 ca        1 5Y0      0.052900
     14 C10         1.3240   -2.0920   -3.2770 c         1 5Y0      0.611700
     15 N12         1.3210   -3.3570   -2.4060 n4        1 5Y0     -0.465300
     16 O11         2.3080   -1.9780   -3.9880 o         1 5Y0     -0.401100
     17 O21         0.4870   -4.2590   -3.0020 os        1 5Y0     -0.210100
     18 C22         0.4380   -5.5860   -2.4170 c3        1 5Y0      0.096400
     19 C24         1.5820   -7.8100   -2.2540 c3        1 5Y0      0.103400
     20 O26         2.6980   -5.6990   -1.7460 oh        1 5Y0     -0.652800
     21 O23         2.8900   -8.3520   -2.2860 oh        1 5Y0     -0.608800
     22 C25         1.7580   -6.3280   -2.6060 c3        1 5Y0      0.105100
     23 I20         4.9480    1.8970    1.7870 i         1 5Y0     -0.070900
     24 F19         2.5820   -2.5650    0.0520 f         1 5Y0     -0.154900
     25 F7         -2.1030    0.3950   -0.7610 f         1 5Y0     -0.103900
     26 F8         -3.1920    1.2380   -3.1400 f         1 5Y0     -0.082900
     27 H17         4.4240   -1.0560    1.0950 ha        1 5Y0      0.178000
     28 H14         0.2630    1.3770   -0.2480 ha        1 5Y0      0.157000
     29 H9         -0.5470   -1.4230   -0.0020 hn        1 5Y0      0.422800
     30 H15         2.1520    2.6280    0.7330 ha        1 5Y0      0.172000
     31 H25         2.1190   -6.2300   -3.6700 h1        1 5Y0      0.081700
     32 H23         2.8190   -9.2870   -2.0550 ho        1 5Y0      0.436000
     33 H1          0.0780   -1.0330   -5.3290 ha        1 5Y0      0.177000
     34 H2         -1.9430    0.4350   -5.3220 ha        1 5Y0      0.191000
     35 H12         0.9840   -3.1320   -1.4440 hn        1 5Y0      0.487300
     36 H221        0.1470   -5.5240   -1.3370 h1        1 5Y0      0.108200
     37 H222       -0.3810   -6.0510   -3.0340 h1        1 5Y0      0.108200
     38 H26         3.4600   -6.2900   -1.6530 ho        1 5Y0      0.468000
     39 H241        1.1400   -7.9210   -1.2280 h1        1 5Y0      0.051200
     40 H122        2.2880   -3.7430   -2.3430 hn        1 5Y0      0.487300
     41 H242        0.9250   -8.3130   -3.0110 h1        1 5Y0      0.051200
@<TRIPOS>BOND
     1    1    2 ar  
     2    1    6 ar  
     3    1    7 1   
     4    2    3 ar  
     5    2   28 1   
     6    3    4 ar  
     7    3   30 1   
     8    4    5 ar  
     9    4   23 1   
    10    5    6 ar  
    11    5   27 1   
    12    6   24 1   
    13    7    8 1   
    14    7   29 1   
    15    8    9 ar  
    16    8   13 ar  
    17    9   10 ar  
    18    9   14 1   
    19   10   11 ar  
    20   10   33 1   
    21   11   12 ar  
    22   11   34 1   
    23   12   13 ar  
    24   12   26 1   
    25   13   25 1   
    26   14   15 1   
    27   14   16 2   
    28   15   17 1   
    29   15   35 1   
    30   15   40 1   
    31   17   18 1   
    32   18   22 1   
    33   18   36 1   
    34   18   37 1   
    35   19   21 1   
    36   19   22 1   
    37   19   39 1   
    38   19   41 1   
    39   20   22 1   
    40   20   38 1   
    41   21   32 1   
    42   22   31 1   
@<TRIPOS>SUBSTRUCTURE
     1 5Y0         1 TEMP              0 ****  ****    0 ROOT
