@<TRIPOS>MOLECULE
5Y0
   42    43     1     0     0
SMALL
bcc


@<TRIPOS>ATOM
      1 C13         0.2120    0.0600    0.1280 ca        1 5Y0     -0.109400
      2 C14         0.6100    1.2830    0.6980 ca        1 5Y0     -0.075000
      3 C15         1.3090    1.2920    1.9010 ca        1 5Y0     -0.078000
      4 C16         1.6260    0.0980    2.5570 ca        1 5Y0      0.090900
      5 C17         1.2410   -1.1220    2.0030 ca        1 5Y0     -0.105000
      6 C18         0.5370   -1.1550    0.7880 ca        1 5Y0      0.152900
      7 N9         -0.5870    0.0520   -1.1070 n4        1 5Y0     -0.504800
      8 C5          0.2140   -0.0570   -2.3370 ca        1 5Y0      0.018600
      9 C6          0.3810   -1.2800   -3.0520 ca        1 5Y0     -0.152600
     10 C1          1.2040   -1.2960   -4.1840 ca        1 5Y0     -0.024000
     11 C2          1.8400   -0.1510   -4.6560 ca        1 5Y0     -0.119000
     12 C3          1.6580    1.0710   -3.9960 ca        1 5Y0      0.220900
     13 C4          0.8310    1.1180   -2.8250 ca        1 5Y0      0.120900
     14 C10        -0.3490   -2.4870   -2.6530 c         1 5Y0      0.596700
     15 N12         0.0840   -3.8540   -3.1670 n4        1 5Y0     -0.446300
     16 O11        -1.3500   -2.5560   -1.9460 o         1 5Y0     -0.439100
     17 O21         1.4390   -3.9750   -3.0560 os        1 5Y0     -0.225100
     18 C22         2.0100   -5.2850   -3.3540 c3        1 5Y0      0.095400
     19 C24         2.3030   -7.6590   -2.5970 c3        1 5Y0      0.108400
     20 O26         0.1260   -6.5520   -2.7210 oh        1 5Y0     -0.674800
     21 O23         1.5980   -8.6260   -1.8420 oh        1 5Y0     -0.610800
     22 C25         1.5000   -6.3650   -2.4060 c3        1 5Y0      0.105100
     23 I20         2.6340    0.1360    4.3040 i         1 5Y0     -0.001900
     24 F19         0.1580   -2.3410    0.2550 f         1 5Y0     -0.138900
     25 F7          0.6460    2.3050   -2.2120 f         1 5Y0     -0.079900
     26 F8          2.2360    2.1950   -4.4320 f         1 5Y0     -0.040900
     27 H17         1.4700   -2.0800    2.5060 ha        1 5Y0      0.200000
     28 H14         0.3720    2.2450    0.2080 ha        1 5Y0      0.175000
     29 H9         -1.2720   -0.7220   -1.0470 hn        1 5Y0      0.487800
     30 H15         1.6070    2.2660    2.3360 ha        1 5Y0      0.199000
     31 H25         1.5780   -6.0250   -1.3340 h1        1 5Y0      0.083700
     32 H23         2.0570   -9.4710   -1.9490 ho        1 5Y0      0.451000
     33 H1          1.3750   -2.2320   -4.7480 ha        1 5Y0      0.173000
     34 H2          2.4860   -0.1930   -5.5550 ha        1 5Y0      0.218000
     35 H12        -0.2030   -3.9700   -4.1560 hn        1 5Y0      0.495300
     36 H221        3.1010   -5.0620   -3.1740 h1        1 5Y0      0.120700
     37 H222        1.8150   -5.5420   -4.4270 h1        1 5Y0      0.120700
     38 H26        -0.1490   -7.4250   -2.3910 ho        1 5Y0      0.489000
     39 H241        3.3460   -7.5300   -2.2060 h1        1 5Y0      0.059200
     40 H92        -1.1130    0.9440   -1.1490 hn        1 5Y0      0.487800
     41 H122       -0.3990   -4.5970   -2.5950 hn        1 5Y0      0.495300
     42 H242        2.3310   -7.9520   -3.6800 h1        1 5Y0      0.059200
@<TRIPOS>BOND
     1    1    2 ar  
     2    1    6 ar  
     3    1    7 1   
     4    2    3 ar  
     5    2   28 1   
     6    3    4 ar  
     7    3   30 1   
     8    4    5 ar  
     9    4   23 1   
    10    5    6 ar  
    11    5   27 1   
    12    6   24 1   
    13    7    8 1   
    14    7   29 1   
    15    7   40 1   
    16    8    9 ar  
    17    8   13 ar  
    18    9   10 ar  
    19    9   14 1   
    20   10   11 ar  
    21   10   33 1   
    22   11   12 ar  
    23   11   34 1   
    24   12   13 ar  
    25   12   26 1   
    26   13   25 1   
    27   14   15 1   
    28   14   16 2   
    29   15   17 1   
    30   15   35 1   
    31   15   41 1   
    32   17   18 1   
    33   18   22 1   
    34   18   36 1   
    35   18   37 1   
    36   19   21 1   
    37   19   22 1   
    38   19   39 1   
    39   19   42 1   
    40   20   22 1   
    41   20   38 1   
    42   21   32 1   
    43   22   31 1   
@<TRIPOS>SUBSTRUCTURE
     1 5Y0         1 TEMP              0 ****  ****    0 ROOT
