@<TRIPOS>MOLECULE
5Y0
   40    41     1     0     0
SMALL
bcc


@<TRIPOS>ATOM
      1 C13        -0.7800   -0.5710    0.3190 ca        1 5Y0      0.151600
      2 C14        -1.3290   -0.9980   -0.9080 ca        1 5Y0     -0.166000
      3 C15        -2.3650   -0.2990   -1.5150 ca        1 5Y0     -0.071000
      4 C16        -2.8870    0.8540   -0.9310 ca        1 5Y0      0.005900
      5 C17        -2.3650    1.3120    0.2750 ca        1 5Y0     -0.098000
      6 C18        -1.3200    0.6190    0.9040 ca        1 5Y0      0.069900
      7 N9          0.2270   -1.2690    0.9970 nh        1 5Y0     -0.627000
      8 C5          0.9120   -2.3570    0.4330 ca        1 5Y0      0.180600
      9 C6          2.3100   -2.3050    0.2040 ca        1 5Y0     -0.181600
     10 C1          3.0100   -3.4280   -0.2410 ca        1 5Y0     -0.079000
     11 C2          2.3570   -4.6250   -0.5020 ca        1 5Y0     -0.163000
     12 C3          0.9700   -4.7080   -0.3080 ca        1 5Y0      0.130900
     13 C4          0.2410   -3.5870    0.1690 ca        1 5Y0      0.071900
     14 C10         3.0690   -1.0480    0.4700 c         1 5Y0      0.619700
     15 N12         3.8180   -0.5350   -0.6280 n         1 5Y0     -0.348400
     16 O11         2.9610   -0.4180    1.5340 o         1 5Y0     -0.550100
     17 O21         4.8420    0.2650   -0.3050 os        1 5Y0     -0.257900
     18 C22         4.4930    1.6720   -0.1810 c3        1 5Y0      0.094400
     19 C24         5.6130    3.8530    0.3190 c3        1 5Y0      0.098400
     20 O26         6.5000    2.3920   -1.3820 oh        1 5Y0     -0.583800
     21 O23         5.2160    3.8100    1.6770 oh        1 5Y0     -0.592800
     22 C25         5.8340    2.4030   -0.1350 c3        1 5Y0      0.133100
     23 I20        -4.3910    1.8590   -1.8250 i         1 5Y0     -0.131900
     24 F19        -0.8230    1.0970    2.0720 f         1 5Y0     -0.134900
     25 F7         -1.0880   -3.7240    0.3750 f         1 5Y0     -0.107900
     26 F8          0.3170   -5.8640   -0.5590 f         1 5Y0     -0.115900
     27 H17        -2.7560    2.2210    0.7600 ha        1 5Y0      0.161000
     28 H14        -0.9420   -1.9090   -1.3920 ha        1 5Y0      0.146000
     29 H9          0.7740   -0.7130    1.6310 hn        1 5Y0      0.466800
     30 H15        -2.7690   -0.6730   -2.4710 ha        1 5Y0      0.150000
     31 H242        6.5710    4.4260    0.2000 h1        1 5Y0      0.032700
     32 H25         6.5400    1.8770    0.5690 h1        1 5Y0      0.110700
     33 H23         5.1970    4.7230    1.9870 ho        1 5Y0      0.407000
     34 H1          4.1030   -3.3770   -0.3780 ha        1 5Y0      0.148000
     35 H2          2.9100   -5.5090   -0.8540 ha        1 5Y0      0.164000
     36 H12         4.1760   -1.2560   -1.2440 hn        1 5Y0      0.302500
     37 H221        3.8780    2.0040   -1.0550 h1        1 5Y0      0.068700
     38 H222        3.9340    1.8200    0.7800 h1        1 5Y0      0.068700
     39 H26         5.8860    2.7300   -2.0450 ho        1 5Y0      0.397000
     40 H241        4.8130    4.3410   -0.3010 h1        1 5Y0      0.032700
@<TRIPOS>BOND
     1    1    2 ar  
     2    1    6 ar  
     3    1    7 1   
     4    2    3 ar  
     5    2   28 1   
     6    3    4 ar  
     7    3   30 1   
     8    4    5 ar  
     9    4   23 1   
    10    5    6 ar  
    11    5   27 1   
    12    6   24 1   
    13    7    8 1   
    14    7   29 1   
    15    8    9 ar  
    16    8   13 ar  
    17    9   10 ar  
    18    9   14 1   
    19   10   11 ar  
    20   10   34 1   
    21   11   12 ar  
    22   11   35 1   
    23   12   13 ar  
    24   12   26 1   
    25   13   25 1   
    26   14   15 1   
    27   14   16 2   
    28   15   17 1   
    29   15   36 1   
    30   17   18 1   
    31   18   22 1   
    32   18   37 1   
    33   18   38 1   
    34   19   21 1   
    35   19   22 1   
    36   19   31 1   
    37   19   40 1   
    38   20   22 1   
    39   20   39 1   
    40   21   33 1   
    41   22   32 1   
@<TRIPOS>SUBSTRUCTURE
     1 5Y0         1 TEMP              0 ****  ****    0 ROOT
