@<TRIPOS>MOLECULE
5Y0
   40    35     1     0     0
SMALL
bcc


@<TRIPOS>ATOM
      1 C13        -1.2370    2.8210    1.8050 c1        1 5Y0      0.068000
      2 C14        -1.7850    3.2760    2.9930 c1        1 5Y0     -0.119500
      3 C15        -3.1420    3.6260    3.0520 c1        1 5Y0     -0.119500
      4 C16        -3.9480    3.5160    1.9060 c1        1 5Y0     -0.279000
      5 C17        -3.3990    3.0590    0.7150 c1        1 5Y0     -0.096000
      6 C18        -2.0380    2.7090    0.6580 c1        1 5Y0      0.036000
      7 N9          0.1510    2.3520    1.7770 n3        1 5Y0     -0.265000
      8 C5          0.8670    2.3280    0.5430 c2        1 5Y0      0.100000
      9 C6          1.3430    1.1160    0.0330 c2        1 5Y0     -0.174000
     10 C1          2.0820    1.1010   -1.1400 c1        1 5Y0     -0.066000
     11 C2          2.3510    2.2960   -1.8130 c1        1 5Y0     -0.168000
     12 C3          1.8790    3.4950   -1.3060 c1        1 5Y0      0.100000
     13 C4          1.1320    3.5090   -0.1190 c1        1 5Y0      0.033000
     14 C10         1.0510   -0.2090    0.7800 c2        1 5Y0      0.314000
     15 N12         1.5380   -1.4820    0.2350 n         1 5Y0     -0.201000
     16 O11         0.4300   -0.1980    1.7750 o         1 5Y0     -0.336000
     17 O21         0.6780   -2.5250    0.0600 os        1 5Y0     -0.194000
     18 C22         1.2880   -3.5200   -0.7920 c3        1 5Y0     -0.019000
     19 C24         0.9520   -5.7000   -1.8970 c3        1 5Y0     -0.051000
     20 O26        -0.8190   -4.1650   -1.6560 oh        1 5Y0     -0.331000
     21 O23        -0.0350   -6.6540   -2.2940 oh        1 5Y0     -0.334000
     22 C25         0.3110   -4.6550   -1.0260 c3        1 5Y0     -0.029000
     23 I20        -6.0240    4.0170    2.0080 i         1 5Y0      0.157000
     24 F19        -1.5130    2.2170   -0.4830 f         1 5Y0     -0.100000
     25 F7          0.6240    4.6730    0.3480 f         1 5Y0     -0.072000
     26 F8          2.2090    4.5980   -1.8630 f         1 5Y0     -0.079000
     27 H17        -3.9640    2.9800   -0.0920 ha        1 5Y0      0.163000
     28 H14        -1.2130    3.3540    3.8050 ha        1 5Y0      0.147500
     29 H9          0.5820    2.1880    2.5450 hn        1 5Y0      0.262000
     30 H15        -3.5250    3.9450    3.8830 ha        1 5Y0      0.147500
     31 H241        1.6480   -6.1430   -1.4060 h1        1 5Y0      0.102000
     32 H242        1.3420   -5.2650   -2.7100 h1        1 5Y0      0.102000
     33 H25         0.0710   -5.0380   -0.1980 h1        1 5Y0      0.092000
     34 H23         0.3520   -7.3130   -2.7350 ho        1 5Y0      0.216000
     35 H1          2.4160    0.2520   -1.4970 ha        1 5Y0      0.160000
     36 H2          2.8940    2.2850   -2.6750 ha        1 5Y0      0.166000
     37 H12         2.3700   -1.5540   -0.0310 hn        1 5Y0      0.217000
     38 H221        2.0620   -3.8540   -0.3780 h1        1 5Y0      0.116000
     39 H222        1.5220   -3.1170   -1.6400 h1        1 5Y0      0.116000
     40 H26        -1.5050   -4.3180   -1.1730 ho        1 5Y0      0.219000
@<TRIPOS>BOND
     1    1    6 1   
     2    1    7 1   
     3    2    3 1   
     4    2   28 1   
     5    3   30 1   
     6    4    5 1   
     7    5   27 1   
     8    6   24 1   
     9    7    8 1   
    10    7   29 1   
    11    8    9 1   
    12    8   13 1   
    13    9   10 1   
    14    9   14 1   
    15   10   35 1   
    16   11   12 1   
    17   11   36 1   
    18   12   26 1   
    19   13   25 1   
    20   14   15 1   
    21   14   16 1   
    22   15   17 1   
    23   15   37 1   
    24   17   18 1   
    25   18   22 1   
    26   18   38 1   
    27   18   39 1   
    28   19   21 1   
    29   19   22 1   
    30   19   31 1   
    31   19   32 1   
    32   20   22 1   
    33   20   40 1   
    34   21   34 1   
    35   22   33 1   
@<TRIPOS>SUBSTRUCTURE
     1 5Y0         1 TEMP              0 ****  ****    0 ROOT
