@<TRIPOS>MOLECULE
5Y0
   41    42     1     0     0
SMALL
bcc


@<TRIPOS>ATOM
      1 C13         1.0750   -0.4840   -0.2450 ca        1 5Y0      0.015600
      2 C14         1.1730    0.9130   -0.1210 ca        1 5Y0     -0.115000
      3 C15         2.1100    1.4940    0.7280 ca        1 5Y0     -0.084000
      4 C16         2.9710    0.6960    1.4840 ca        1 5Y0      0.054900
      5 C17         2.8950   -0.6910    1.3890 ca        1 5Y0     -0.111000
      6 C18         1.9580   -1.2870    0.5260 ca        1 5Y0      0.115900
      7 N9          0.1000   -1.1240   -1.0830 nu        1 5Y0     -0.626000
      8 C5          0.0370   -0.6510   -2.4280 ca        1 5Y0      0.123600
      9 C6          0.8740   -1.2130   -3.4200 ca        1 5Y0     -0.169600
     10 C1          0.8190   -0.7670   -4.7480 ca        1 5Y0     -0.034000
     11 C2         -0.0900    0.2060   -5.1370 ca        1 5Y0     -0.149000
     12 C3         -0.9610    0.7650   -4.1860 ca        1 5Y0      0.183900
     13 C4         -0.8910    0.3470   -2.8280 ca        1 5Y0      0.052900
     14 C10         1.8540   -2.2620   -3.1220 c         1 5Y0      0.611700
     15 N12         1.3670   -3.4370   -2.2620 ny        1 5Y0     -0.465300
     16 O11         3.0150   -2.3540   -3.4810 o         1 5Y0     -0.401100
     17 O21         0.6200   -4.2490   -3.0670 os        1 5Y0     -0.210100
     18 C22         0.1680   -5.5010   -2.4910 c3        1 5Y0      0.096400
     19 C24         0.8090   -7.8500   -1.9020 c3        1 5Y0      0.103400
     20 O26         2.0510   -5.8970   -1.1270 oh        1 5Y0     -0.652800
     21 O23         1.9500   -8.5850   -1.4960 oh        1 5Y0     -0.608800
     22 C25         1.3340   -6.4470   -2.2240 c3        1 5Y0      0.105100
     23 I20         4.3220    1.5450    2.7190 i         1 5Y0     -0.070900
     24 F19         1.9110   -2.6430    0.4460 f         1 5Y0     -0.154900
     25 F7         -1.7220    0.9050   -1.9190 f         1 5Y0     -0.103900
     26 F8         -1.8550    1.7040   -4.5450 f         1 5Y0     -0.082900
     27 H17         3.5580   -1.3440    1.9820 ha        1 5Y0      0.178000
     28 H14         0.4920    1.5610   -0.6990 ha        1 5Y0      0.157000
     29 H9         -0.8080   -1.0580   -0.6460 hn        1 5Y0      0.422800
     30 H15         2.1590    2.5940    0.8010 ha        1 5Y0      0.172000
     31 H25         2.0200   -6.4920   -3.1170 h1        1 5Y0      0.081700
     32 H23         1.6520   -9.4770   -1.2730 ho        1 5Y0      0.436000
     33 H1          1.5090   -1.1990   -5.4960 ha        1 5Y0      0.177000
     34 H2         -0.1380    0.5490   -6.1840 ha        1 5Y0      0.191000
     35 H12         2.1870   -3.9580   -1.8820 hn        1 5Y0      0.487300
     36 H221       -0.4850   -5.8850   -3.3240 h1        1 5Y0      0.108200
     37 H222       -0.4310   -5.3060   -1.5640 h1        1 5Y0      0.108200
     38 H26         2.6350   -6.5880   -0.7760 ho        1 5Y0      0.468000
     39 H241        0.3450   -8.3090   -2.8140 h1        1 5Y0      0.051200
     40 H122        0.7900   -3.0870   -1.4660 hn        1 5Y0      0.487300
     41 H242        0.0570   -7.8090   -1.0700 h1        1 5Y0      0.051200
@<TRIPOS>BOND
     1    1    2 ar  
     2    1    6 ar  
     3    1    7 1   
     4    2    3 ar  
     5    2   28 1   
     6    3    4 ar  
     7    3   30 1   
     8    4    5 ar  
     9    4   23 1   
    10    5    6 ar  
    11    5   27 1   
    12    6   24 1   
    13    7    8 1   
    14    7   29 1   
    15    8    9 ar  
    16    8   13 ar  
    17    9   10 ar  
    18    9   14 1   
    19   10   11 ar  
    20   10   33 1   
    21   11   12 ar  
    22   11   34 1   
    23   12   13 ar  
    24   12   26 1   
    25   13   25 1   
    26   14   15 1   
    27   14   16 2   
    28   15   17 1   
    29   15   35 1   
    30   15   40 1   
    31   17   18 1   
    32   18   22 1   
    33   18   36 1   
    34   18   37 1   
    35   19   21 1   
    36   19   22 1   
    37   19   39 1   
    38   19   41 1   
    39   20   22 1   
    40   20   38 1   
    41   21   32 1   
    42   22   31 1   
@<TRIPOS>SUBSTRUCTURE
     1 5Y0         1 TEMP              0 ****  ****    0 ROOT
