@<TRIPOS>MOLECULE
5YI
   77    74     1     0     0
SMALL
bcc


@<TRIPOS>ATOM
      1 C12         0.3430   -0.5700    0.2440 c3        1 5YI     -0.043200
      2 C13         1.7350   -0.2490    0.8060 c3        1 5YI      0.008200
      3 C14         1.6100    0.1570    2.2820 c3        1 5YI     -0.035200
      4 C15         3.7260   -2.5590    2.7850 c2        1 5YI     -0.225100
      5 C16         3.1710   -2.0220    1.7430 c1        1 5YI     -0.058800
      6 C21         2.0810   -3.4070   -0.7970 c3        1 5YI     -0.070100
      7 C24         5.5100   -1.3510   -2.8180 cy        1 5YI      0.255300
      8 C29         2.6130   -5.1840   -4.0690 c3        1 5YI     -0.116800
      9 C27         4.8520   -2.6510   -2.4540 cv        1 5YI     -1.021200
     10 C26         2.0890   -7.1640   -8.3730 c2        1 5YI     -0.218500
     11 C28         2.9130   -6.9260   -7.3620 c2        1 5YI     -0.218500
     12 O03         6.8540   -1.4090   -3.2080 oh        1 5YI     -0.584800
     13 S22         4.5210   -2.3580   -0.9460 s4        1 5YI      0.446400
     14 C20         2.7890   -2.0800   -0.6640 c3        1 5YI     -0.034200
     15 C17         2.6050   -1.4820    0.6890 c2        1 5YI     -0.100500
     16 C18         2.3650    0.9030    0.0320 c3        1 5YI     -0.091100
     17 C11        -0.6880    0.4220    0.6300 c2        1 5YI     -0.151200
     18 C09        -0.5510    1.2720    1.6560 ce        1 5YI     -0.131000
     19 C08         0.6510    1.2870    2.4820 ce        1 5YI     -0.082300
     20 C07         0.8760    2.2280    3.3680 c1        1 5YI     -0.047800
     21 C06         1.1040    3.1480    4.2600 c2        1 5YI     -0.182300
     22 C05         1.7980    4.4470    4.0060 c3        1 5YI     -0.028500
     23 C10         0.7620    5.5070    3.6700 c3        1 5YI     -0.089100
     24 C01         5.9100    5.5130    2.6580 c         1 5YI      0.576100
     25 O01         5.6170    6.2640    3.5930 o         1 5YI     -0.549100
     26 C04         2.8440    4.3790    2.9020 c3        1 5YI     -0.114400
     27 C03         4.1820    3.8090    3.3790 c3        1 5YI      0.188300
     28 O02         4.1630    2.3870    3.4520 oh        1 5YI     -0.611800
     29 C02         5.2850    4.1980    2.4330 ce        1 5YI     -0.230400
     30 C30         5.7030    3.4000    1.4430 c2        1 5YI     -0.115000
     31 C31         4.4630    7.1470    6.1160 c         1 5YI      0.568700
     32 O04         3.8820    7.5100    7.1370 o         1 5YI     -0.538100
     33 H1          0.0220   -1.5810    0.6180 hc        1 5YI      0.057700
     34 H2          0.4020   -0.6330   -0.8750 hc        1 5YI      0.057700
     35 H3          1.2430   -0.7250    2.8740 hc        1 5YI      0.062200
     36 H4          2.6270    0.4340    2.6700 hc        1 5YI      0.062200
     37 H5          4.7270   -2.2670    3.1380 ha        1 5YI      0.132500
     38 H6          3.2240   -3.3360    3.3810 ha        1 5YI      0.132500
     39 H8          2.4230   -4.1230   -0.0100 hc        1 5YI      0.042700
     40 H9          0.9770   -3.2710   -0.6850 hc        1 5YI      0.042700
     41 H10         2.2790   -3.8520   -1.8060 hc        1 5YI      0.042700
     42 H11         4.6560    0.1170   -1.3320 h1        1 5YI      0.092200
     43 H12         6.2480   -0.5960   -0.8290 h1        1 5YI      0.092200
     44 H13         1.6300   -5.4110   -3.6010 hc        1 5YI      0.029450
     45 H14         3.4310   -5.5090   -3.3900 hc        1 5YI      0.029450
     46 H15         2.6960   -5.7260   -5.0380 hc        1 5YI      0.029450
     47 H16         2.6960   -4.0890   -4.2470 hc        1 5YI      0.029450
     48 H17         4.6720   -3.4450   -3.1590 h4        1 5YI      0.182000
     49 H18         5.0030   -0.7410   -3.6080 h1        1 5YI      0.069700
     50 H19         1.4760   -8.0730   -8.4390 ha        1 5YI      0.109500
     51 H20         1.9630   -6.4680   -9.2130 ha        1 5YI      0.109500
     52 H21         3.5260   -6.0170   -7.2970 ha        1 5YI      0.109500
     53 H22         3.0390   -7.6230   -6.5230 ha        1 5YI      0.109500
     54 H23         7.2520   -2.1740   -2.7740 ho        1 5YI      0.406000
     55 H24         2.3730   -1.3840   -1.4400 h1        1 5YI      0.089700
     56 H26         2.4210    0.6730   -1.0590 hc        1 5YI      0.041367
     57 H27         1.7460    1.8250    0.1670 hc        1 5YI      0.041367
     58 H28         3.3950    1.1080    0.4120 hc        1 5YI      0.041367
     59 H29         0.3670    3.5850    0.8610 ha        1 5YI      0.000500
     60 H30         0.5570    4.1130    0.4800 ha        1 5YI      0.000500
     61 H31        -1.6050    0.4140    0.0180 ha        1 5YI      0.128000
     62 H32        -1.3380    1.9980    1.9140 ha        1 5YI      0.134000
     63 H33         0.7400    3.0150    5.2960 ha        1 5YI      0.142000
     64 H34         3.3370    2.1460    3.8930 ho        1 5YI      0.416000
     65 H35        -0.0380    5.5280    4.4480 hc        1 5YI      0.041367
     66 H36         0.2930    5.2890    2.6790 hc        1 5YI      0.041367
     67 H37         1.2420    6.5140    3.6250 hc        1 5YI      0.041367
     68 H38         6.6910    5.8000    1.9150 h4        1 5YI      0.001200
     69 H39         2.3130    4.7520    4.9650 hc        1 5YI      0.057700
     70 H40         3.0310    5.4180    2.5200 hc        1 5YI      0.062700
     71 H41         2.4580    3.7610    2.0480 hc        1 5YI      0.062700
     72 H42         4.4260    4.2170    4.4050 h1        1 5YI      0.054700
     73 H43         5.2530    2.4090    1.2760 ha        1 5YI      0.128500
     74 H44         6.5150    3.6810    0.7580 ha        1 5YI      0.128500
     75 H45         4.1730    6.2250    5.5660 h4        1 5YI     -0.015300
     76 H46         5.3100    7.7120    5.6740 h4        1 5YI     -0.015300
     77 C23         5.3010   -0.7790   -1.3700 cy        1 5YI     -0.008100
@<TRIPOS>BOND
     1    1    2 1   
     2    1   17 1   
     3    1   33 1   
     4    1   34 1   
     5    2    3 1   
     6    2   15 1   
     7    2   16 1   
     8    3   19 1   
     9    3   35 1   
    10    3   36 1   
    11    4    5 2   
    12    4   37 1   
    13    4   38 1   
    14    5   15 2   
    15    6   14 1   
    16    6   39 1   
    17    6   40 1   
    18    6   41 1   
    19    7    9 1   
    20    7   12 1   
    21    7   49 1   
    22    7   77 1   
    23    8   44 1   
    24    8   45 1   
    25    8   46 1   
    26    8   47 1   
    27    9   13 2   
    28    9   48 1   
    29   10   11 2   
    30   10   50 1   
    31   10   51 1   
    32   11   52 1   
    33   11   53 1   
    34   12   54 1   
    35   13   14 1   
    36   13   77 1   
    37   14   15 1   
    38   14   55 1   
    39   16   56 1   
    40   16   57 1   
    41   16   58 1   
    42   17   18 2   
    43   17   61 1   
    44   18   19 1   
    45   18   62 1   
    46   19   20 2   
    47   20   21 2   
    48   21   22 1   
    49   21   63 1   
    50   22   23 1   
    51   22   26 1   
    52   22   69 1   
    53   23   65 1   
    54   23   66 1   
    55   23   67 1   
    56   24   25 2   
    57   24   29 1   
    58   24   68 1   
    59   26   27 1   
    60   26   70 1   
    61   26   71 1   
    62   27   28 1   
    63   27   29 1   
    64   27   72 1   
    65   28   64 1   
    66   29   30 2   
    67   30   73 1   
    68   30   74 1   
    69   31   32 2   
    70   31   75 1   
    71   31   76 1   
    72   42   77 1   
    73   43   77 1   
    74   59   60 1   
@<TRIPOS>SUBSTRUCTURE
     1 5YI         1 TEMP              0 ****  ****    0 ROOT
