@<TRIPOS>MOLECULE
5YI
   77    77     1     0     0
SMALL
bcc


@<TRIPOS>ATOM
      1 C12         2.5530   -0.4880   -0.4530 c3        1 5YI     -0.062400
      2 C13         3.5740   -1.1540    0.4670 c3        1 5YI     -0.000800
      3 C14         3.5410   -0.5020    1.8610 c3        1 5YI     -0.063400
      4 C15         4.5990   -4.0620    2.3620 c2        1 5YI     -0.249100
      5 C16         3.9580   -3.3490    1.4890 c1        1 5YI     -0.036800
      6 C21         0.9540   -3.4610    0.4180 c3        1 5YI      0.029100
      7 C24         1.6350   -3.5940   -4.2290 c3        1 5YI      0.170100
      8 C29         0.1950   -5.6270   -4.5860 c3        1 5YI     -0.091100
      9 C27         1.6010   -5.1060   -4.4540 c3        1 5YI     -0.117400
     10 C26         3.8550   -3.5580   -7.8680 c2        1 5YI     -0.225500
     11 C28         3.8080   -4.7790   -7.3510 c2        1 5YI     -0.225500
     12 O03         2.9290   -3.0770   -4.5320 oh        1 5YI     -0.621800
     13 S22         2.5360   -3.8030   -1.6580 s4        1 5YI      0.449700
     14 C20         2.2740   -3.2800   -0.2200 ce        1 5YI     -0.843200
     15 C17         3.2880   -2.6400    0.6070 ce        1 5YI     -0.021300
     16 C18         4.9700   -0.9960   -0.1350 c3        1 5YI     -0.086100
     17 C11         2.7500    1.0090   -0.5880 c3        1 5YI     -0.074400
     18 C09         3.0890    1.6850    0.7250 c3        1 5YI     -0.071400
     19 C08         2.7440    0.7980    1.9090 c3        1 5YI     -0.022500
     20 C07         2.9650    1.4740    3.2210 c2        1 5YI     -0.166300
     21 C06         3.0470    2.7600    3.4040 c1        1 5YI     -0.037800
     22 C05         3.1300    4.0460    3.6260 c2        1 5YI     -0.128500
     23 C10         1.9180    4.8750    3.8890 c3        1 5YI     -0.024700
     24 C01         2.0990    5.8810    5.0290 c3        1 5YI      0.182300
     25 O01         1.9780    5.1550    6.2490 oh        1 5YI     -0.591300
     26 C04         4.4360    4.7660    3.5890 c3        1 5YI     -0.024700
     27 C03         4.5860    5.6490    4.8300 c3        1 5YI      0.182300
     28 O02         5.8360    6.3120    4.7020 oh        1 5YI     -0.591300
     29 C02         3.4210    6.5910    4.9350 c2        1 5YI     -0.188400
     30 C30         3.5530    7.9220    4.9150 c2        1 5YI     -0.192200
     31 C31         2.4290    8.8920    5.0140 c3        1 5YI      0.156600
     32 O04         2.8800   10.2320    5.0690 oh        1 5YI     -0.591800
     33 H1          1.5240   -0.6980   -0.0580 hc        1 5YI      0.039700
     34 H2          2.6200   -0.9520   -1.4730 hc        1 5YI      0.039700
     35 H3          3.0920   -1.2140    2.6020 hc        1 5YI      0.047700
     36 H4          4.5930   -0.2980    2.1960 hc        1 5YI      0.047700
     37 H5          4.2290   -4.2080    3.3870 ha        1 5YI      0.121000
     38 H6          5.5510   -4.5610    2.1310 ha        1 5YI      0.121000
     39 H8          1.0760   -3.9340    1.4250 hc        1 5YI      0.020367
     40 H9          0.4310   -2.4810    0.5610 hc        1 5YI      0.020367
     41 H10         0.2900   -4.1190   -0.1980 hc        1 5YI      0.020367
     42 H11         0.3440   -3.6450   -2.5090 h1        1 5YI      0.085200
     43 H12         1.2320   -2.0980   -2.7390 h1        1 5YI      0.085200
     44 H13        -0.3250   -5.1470   -5.4510 hc        1 5YI      0.037700
     45 H14        -0.3970   -5.4170   -3.6620 hc        1 5YI      0.037700
     46 H15         0.2070   -6.7310   -4.7520 hc        1 5YI      0.037700
     47 H16         2.1800   -5.3440   -5.3880 hc        1 5YI      0.047200
     48 H17         2.1230   -5.6180   -3.6020 hc        1 5YI      0.047200
     49 H18         0.8800   -3.1040   -4.9100 h1        1 5YI      0.036700
     50 H19         3.2660   -3.2610   -8.7460 ha        1 5YI      0.114000
     51 H20         4.4920   -2.7630   -7.4540 ha        1 5YI      0.114000
     52 H21         4.4030   -5.0760   -6.4770 ha        1 5YI      0.114000
     53 H22         3.1770   -5.5760   -7.7680 ha        1 5YI      0.114000
     54 H23         3.0920   -3.2540   -5.4690 ho        1 5YI      0.411000
     55 H24         3.6130   -3.1750   -2.0380 hs        1 5YI      0.241000
     56 H26         4.9950   -1.4130   -1.1700 hc        1 5YI      0.035367
     57 H27         5.2520    0.0830   -0.1770 hc        1 5YI      0.035367
     58 H28         5.7220   -1.5400    0.4870 hc        1 5YI      0.035367
     59 H29         3.5670    1.2140   -1.3290 hc        1 5YI      0.036200
     60 H30         1.8090    1.4520   -1.0100 hc        1 5YI      0.036200
     61 H31         4.1830    1.9280    0.7580 hc        1 5YI      0.043700
     62 H32         2.5330    2.6550    0.8100 hc        1 5YI      0.043700
     63 H33         1.6440    0.5440    1.8530 hc        1 5YI      0.060700
     64 H34         3.0410    0.7900    4.0880 ha        1 5YI      0.140000
     65 H35         1.0430    4.2190    4.1390 hc        1 5YI      0.065200
     66 H36         1.6710    5.4530    2.9580 hc        1 5YI      0.065200
     67 H37         1.2530    6.6290    4.9810 h1        1 5YI      0.045700
     68 H38         2.1940    5.7680    6.9610 ho        1 5YI      0.398500
     69 H39         4.5950    5.0010    5.7560 h1        1 5YI      0.045700
     70 H40         5.2960    4.0480    3.5500 hc        1 5YI      0.065200
     71 H41         4.4870    5.4080    2.6700 hc        1 5YI      0.065200
     72 H42         5.9940    6.7700    5.5350 ho        1 5YI      0.398500
     73 H43         4.5510    8.3800    4.7880 ha        1 5YI      0.143000
     74 H44         1.7890    8.8560    4.0870 h1        1 5YI      0.055200
     75 H45         1.7880    8.6700    5.9120 h1        1 5YI      0.055200
     76 H46         3.4590   10.3120    5.8370 ho        1 5YI      0.398000
     77 C23         1.3340   -3.2090   -2.7940 c3        1 5YI     -0.090100
@<TRIPOS>BOND
     1    1    2 1   
     2    1   17 1   
     3    1   33 1   
     4    1   34 1   
     5    2    3 1   
     6    2   15 1   
     7    2   16 1   
     8    3   19 1   
     9    3   35 1   
    10    3   36 1   
    11    4    5 2   
    12    4   37 1   
    13    4   38 1   
    14    5   15 2   
    15    6   14 1   
    16    6   39 1   
    17    6   40 1   
    18    6   41 1   
    19    7    9 1   
    20    7   12 1   
    21    7   49 1   
    22    7   77 1   
    23    8    9 1   
    24    8   44 1   
    25    8   45 1   
    26    8   46 1   
    27    9   47 1   
    28    9   48 1   
    29   10   11 2   
    30   10   50 1   
    31   10   51 1   
    32   11   52 1   
    33   11   53 1   
    34   12   54 1   
    35   13   14 2   
    36   13   55 1   
    37   13   77 1   
    38   14   15 1   
    39   16   56 1   
    40   16   57 1   
    41   16   58 1   
    42   17   18 1   
    43   17   59 1   
    44   17   60 1   
    45   18   19 1   
    46   18   61 1   
    47   18   62 1   
    48   19   20 1   
    49   19   63 1   
    50   20   21 2   
    51   20   64 1   
    52   21   22 2   
    53   22   23 1   
    54   22   26 1   
    55   23   24 1   
    56   23   65 1   
    57   23   66 1   
    58   24   25 1   
    59   24   29 1   
    60   24   67 1   
    61   25   68 1   
    62   26   27 1   
    63   26   70 1   
    64   26   71 1   
    65   27   28 1   
    66   27   29 1   
    67   27   69 1   
    68   28   72 1   
    69   29   30 2   
    70   30   31 1   
    71   30   73 1   
    72   31   32 1   
    73   31   74 1   
    74   31   75 1   
    75   32   76 1   
    76   42   77 1   
    77   43   77 1   
@<TRIPOS>SUBSTRUCTURE
     1 5YI         1 TEMP              0 ****  ****    0 ROOT
