@<TRIPOS>MOLECULE
5YI
   77    76     1     0     0
SMALL
bcc


@<TRIPOS>ATOM
      1 C12        -1.9090    1.7550   -0.6840 c3        1 5YI     -0.144000
      2 C13        -0.3660    1.4990   -0.9700 c3        1 5YI     -0.005000
      3 C14         0.6160    2.1700    0.1010 c3        1 5YI     -0.073000
      4 C15         1.9190    1.3020   -0.0270 c3        1 5YI     -0.129000
      5 C16         1.3650    0.1170   -0.8150 c2        1 5YI     -0.155000
      6 C21         0.1650   -1.9720   -2.1710 c3        1 5YI     -0.202000
      7 C23        -1.2840   -1.0390   -4.8780 c3        1 5YI     -0.308000
      8 C24        -1.7300   -0.2780   -6.1070 c3        1 5YI      0.085000
      9 C29        -3.9010    0.0110   -7.2500 c3        1 5YI     -0.210000
     10 C27        -2.8910   -1.0000   -6.7540 c3        1 5YI     -0.171000
     11 C26        -0.5820   -0.1890   -7.0890 c3        1 5YI     -0.171000
     12 C28        -0.9260    0.8030   -8.1780 c3        1 5YI     -0.210000
     13 O03        -2.1320    1.0180   -5.7370 oh        1 5YI     -0.324000
     14 S22        -0.6510    0.1000   -3.6750 ss        1 5YI      0.063000
     15 C20        -0.6170   -0.6800   -2.0830 c3        1 5YI     -0.160000
     16 C17         0.0430    0.2430   -1.0830 c2        1 5YI     -0.101000
     17 C18        -0.0720    2.1640   -2.2970 c3        1 5YI     -0.209000
     18 C11        -2.2780    1.4620    0.6130 c3        1 5YI     -0.155000
     19 C09        -1.2970    2.2340    1.7650 c3        1 5YI     -0.127000
     20 C08         0.2290    1.9090    1.4450 c2        1 5YI     -0.066000
     21 C07         0.8860    0.9770    2.1680 c1        1 5YI     -0.160000
     22 C06         0.1720    0.2430    3.2820 c1        1 5YI     -0.118000
     23 C05         0.7800    0.0690    4.4720 c1        1 5YI     -0.118000
     24 C10         0.1090   -0.6610    5.6280 c2        1 5YI     -0.159000
     25 C01         1.0020   -1.7930    6.1420 c3        1 5YI      0.070000
     26 O01         1.0020   -2.9150    5.2210 oh        1 5YI     -0.320000
     27 C04         2.1870    0.5910    4.7500 c3        1 5YI     -0.121000
     28 C03         3.0860   -0.5460    5.2660 c3        1 5YI      0.071000
     29 O02         4.4190   -0.0720    5.6210 oh        1 5YI     -0.321000
     30 C02         2.4100   -1.2750    6.4230 c2        1 5YI     -0.188000
     31 C30         3.0160   -1.4510    7.6140 c1        1 5YI     -0.129000
     32 C31         2.2990   -2.1820    8.7270 c2        1 5YI      0.003000
     33 O04         3.2080   -2.4630    9.7680 oh        1 5YI     -0.327000
     34 H1         -2.1090    2.6970   -0.8620 hc        1 5YI      0.084000
     35 H2         -2.4370    1.1990   -1.2940 hc        1 5YI      0.084000
     36 H3          0.7800    3.1170   -0.0710 hc        1 5YI      0.099000
     37 H4          2.2750    1.0790    0.8520 hc        1 5YI      0.094500
     38 H5          2.6770    1.7390   -0.4640 hc        1 5YI      0.094500
     39 H6          1.9430   -0.3730   -1.4300 ha        1 5YI      0.142000
     40 H8         -0.3970   -2.6680   -2.5690 hc        1 5YI      0.080000
     41 H9          0.4400   -2.2490   -1.2710 hc        1 5YI      0.080000
     42 H10         0.9600   -1.8350   -2.7280 hc        1 5YI      0.080000
     43 H11        -0.5840   -1.6760   -5.1250 h1        1 5YI      0.111000
     44 H12        -2.0460   -1.5220   -4.5000 h1        1 5YI      0.111000
     45 H13        -4.5640    0.1820   -6.5490 hc        1 5YI      0.077333
     46 H14        -3.4420    0.8470   -7.4770 hc        1 5YI      0.077333
     47 H15        -4.3510   -0.3400   -8.0470 hc        1 5YI      0.077333
     48 H16        -3.3150   -1.5890   -6.0980 hc        1 5YI      0.092750
     49 H17        -2.5650   -1.5320   -7.5080 hc        1 5YI      0.092750
     50 H18         0.2250    0.1080   -6.6210 hc        1 5YI      0.092750
     51 H19        -0.4240   -1.0680   -7.4860 hc        1 5YI      0.092750
     52 H20        -0.1400    0.9520   -8.7440 hc        1 5YI      0.077333
     53 H21        -1.6580    0.4470   -8.7240 hc        1 5YI      0.077333
     54 H22        -1.2030    1.6510   -7.7730 hc        1 5YI      0.077333
     55 H23        -2.9650    0.9930   -5.4270 ho        1 5YI      0.197000
     56 H24        -1.5300   -0.8720   -1.7960 h1        1 5YI      0.134000
     57 H26         0.1110    3.1160   -2.1520 hc        1 5YI      0.084000
     58 H27         0.7100    1.7390   -2.7080 hc        1 5YI      0.084000
     59 H28        -0.8470    2.0670   -2.8890 hc        1 5YI      0.084000
     60 H29        -3.2060    1.7450    0.7490 hc        1 5YI      0.083000
     61 H30        -2.2200    0.4930    0.7470 hc        1 5YI      0.083000
     62 H31        -1.3840    3.2060    1.8320 hc        1 5YI      0.088500
     63 H32        -1.5810    1.9550    2.6580 hc        1 5YI      0.088500
     64 H33         1.8340    0.8180    2.0100 ha        1 5YI      0.127000
     65 H34        -0.7290   -0.1040    3.1390 ha        1 5YI      0.123000
     66 H35        -0.1180   -0.1060    6.4000 ha        1 5YI      0.101000
     67 H36        -0.7780   -0.9590    5.3410 ha        1 5YI      0.101000
     68 H37         0.6240   -2.2070    6.9430 h1        1 5YI      0.112000
     69 H38         0.5560   -3.5950    5.5810 ho        1 5YI      0.202000
     70 H39         2.4480    1.1040    3.9590 hc        1 5YI      0.107000
     71 H40         2.2210    1.2870    5.4370 hc        1 5YI      0.107000
     72 H41         3.2970   -1.1700    4.5430 h1        1 5YI      0.078000
     73 H42         5.0290   -0.5330    5.1660 ho        1 5YI      0.204000
     74 H43         3.9180   -1.1060    7.7580 ha        1 5YI      0.151000
     75 H44         1.9290   -3.0210    8.3810 h4        1 5YI      0.076000
     76 H45         1.5720   -1.6230    9.0700 h4        1 5YI      0.076000
     77 H46         2.7660   -2.5410   10.5350 ho        1 5YI      0.202000
@<TRIPOS>BOND
     1    1    2 1   
     2    1   18 1   
     3    1   34 1   
     4    1   35 1   
     5    2    3 1   
     6    2   16 1   
     7    2   17 1   
     8    3    4 1   
     9    3   20 1   
    10    3   36 1   
    11    4    5 1   
    12    4   37 1   
    13    4   38 1   
    14    5   16 1   
    15    5   39 1   
    16    6   15 1   
    17    6   40 1   
    18    6   41 1   
    19    6   42 1   
    20    7    8 1   
    21    7   14 1   
    22    7   43 1   
    23    7   44 1   
    24    8   10 1   
    25    8   11 1   
    26    8   13 1   
    27    9   10 1   
    28    9   45 1   
    29    9   46 1   
    30    9   47 1   
    31   10   48 1   
    32   10   49 1   
    33   11   12 1   
    34   11   50 1   
    35   11   51 1   
    36   12   52 1   
    37   12   53 1   
    38   12   54 1   
    39   13   55 1   
    40   14   15 1   
    41   15   16 1   
    42   15   56 1   
    43   17   57 1   
    44   17   58 1   
    45   17   59 1   
    46   18   19 1   
    47   18   60 1   
    48   18   61 1   
    49   19   20 1   
    50   19   62 1   
    51   19   63 1   
    52   20   21 1   
    53   21   64 1   
    54   22   23 1   
    55   22   65 1   
    56   23   27 1   
    57   24   25 1   
    58   24   66 1   
    59   24   67 1   
    60   25   26 1   
    61   25   30 1   
    62   25   68 1   
    63   26   69 1   
    64   27   28 1   
    65   27   70 1   
    66   27   71 1   
    67   28   29 1   
    68   28   30 1   
    69   28   72 1   
    70   29   73 1   
    71   30   31 1   
    72   31   74 1   
    73   32   33 1   
    74   32   75 1   
    75   32   76 1   
    76   33   77 1   
@<TRIPOS>SUBSTRUCTURE
     1 5YI         1 TEMP              0 ****  ****    0 ROOT
