@<TRIPOS>MOLECULE
5YI
   77    79     1     0     0
SMALL
bcc


@<TRIPOS>ATOM
      1 C12        -1.5010    3.1570   -0.6220 c3        1 5YI     -0.062400
      2 C13        -1.3480    1.8740    0.1740 c3        1 5YI     -0.010800
      3 C14        -0.1390    2.0870    1.1400 c3        1 5YI     -0.041500
      4 C15        -0.3770    1.0570    2.2500 c3        1 5YI     -0.044200
      5 C16        -1.8810    0.9860    2.2900 c2        1 5YI     -0.154200
      6 C21        -4.6300    2.3670    1.9250 c3        1 5YI     -0.089100
      7 C24        -6.6480   -0.9690   -0.7840 c3        1 5YI      0.171800
      8 C29        -7.1380   -2.4720    1.2100 c3        1 5YI     -0.092100
      9 C27        -6.3600   -2.2930   -0.0660 c3        1 5YI     -0.089900
     10 C26        -8.1490   -0.7390   -1.0230 c3        1 5YI     -0.089900
     11 C28        -8.7740   -1.8160   -1.8700 c3        1 5YI     -0.092100
     12 O03        -5.9810   -1.0870   -2.0410 oh        1 5YI     -0.585800
     13 S22        -4.4800   -0.0460    0.6290 ss        1 5YI     -0.285200
     14 C20        -3.8710    1.6270    0.8500 c3        1 5YI      0.069600
     15 C17        -2.4390    1.4900    1.1640 c2        1 5YI     -0.112400
     16 C18        -1.1390    0.6900   -0.7620 c3        1 5YI     -0.084100
     17 C11        -0.2210    3.4520   -1.3900 c3        1 5YI     -0.071400
     18 C09         1.0700    3.3390   -0.5920 c3        1 5YI     -0.045200
     19 C08         1.1190    2.1860    0.3620 c2        1 5YI     -0.071400
     20 C07         2.1750    1.3770    0.5420 ce        1 5YI     -0.150000
     21 C06         3.4370    1.4910   -0.1560 ce        1 5YI     -0.122000
     22 C05         4.2820    0.4780   -0.4190 c2        1 5YI     -0.117400
     23 C10         5.5620    0.7170   -1.1420 c3        1 5YI     -0.077200
     24 C01         6.7660    0.0860   -0.4370 c3        1 5YI      0.186300
     25 O01         7.1540    0.8540    0.6930 oh        1 5YI     -0.592800
     26 C04         4.0240   -0.9460   -0.0850 c3        1 5YI     -0.077200
     27 C03         5.2090   -1.5650    0.6640 c3        1 5YI      0.186300
     28 O02         5.0030   -2.9630    0.8370 oh        1 5YI     -0.592800
     29 C02         6.4980   -1.3480   -0.0740 c2        1 5YI     -0.176400
     30 C30         7.3350   -2.3530   -0.3570 c2        1 5YI     -0.107200
     31 C31         8.6410   -2.1840   -1.0500 c3        1 5YI      0.154600
     32 O04         9.2400   -3.4700   -1.1500 oh        1 5YI     -0.597800
     33 H1         -2.3490    3.0650   -1.3490 hc        1 5YI      0.041700
     34 H2         -1.7390    4.0060    0.0700 hc        1 5YI      0.041700
     35 H3         -0.2780    3.1000    1.6290 hc        1 5YI      0.058700
     36 H4          0.0550    0.0570    1.9940 hc        1 5YI      0.054700
     37 H5          0.0520    1.3890    3.2250 hc        1 5YI      0.054700
     38 H6         -2.4030    0.5740    3.1550 ha        1 5YI      0.145000
     39 H8         -4.5230    1.8520    2.9110 hc        1 5YI      0.042367
     40 H9         -4.2390    3.4090    2.0270 hc        1 5YI      0.042367
     41 H10        -5.7160    2.4190    1.6650 hc        1 5YI      0.042367
     42 H11        -6.1090    1.1350   -0.6650 h1        1 5YI      0.059200
     43 H12        -6.7990    0.4440    0.8530 h1        1 5YI      0.059200
     44 H13        -6.7810   -3.3890    1.7400 hc        1 5YI      0.038033
     45 H14        -7.0000   -1.5970    1.8910 hc        1 5YI      0.038033
     46 H15        -8.2290   -2.5920    1.0020 hc        1 5YI      0.038033
     47 H16        -6.5940   -3.1280   -0.7780 hc        1 5YI      0.053450
     48 H17        -5.2560   -2.3390    0.1460 hc        1 5YI      0.053450
     49 H18        -8.6700   -0.6780   -0.0320 hc        1 5YI      0.053450
     50 H19        -8.2770    0.2540   -1.5310 hc        1 5YI      0.053450
     51 H20        -8.1690   -1.9820   -2.7950 hc        1 5YI      0.038033
     52 H21        -8.8230   -2.7800   -1.3080 hc        1 5YI      0.038033
     53 H22        -9.8100   -1.5240   -2.1630 hc        1 5YI      0.038033
     54 H23        -6.1450   -0.2710   -2.5260 ho        1 5YI      0.396000
     55 H24        -3.9940    2.1760   -0.1230 h1        1 5YI      0.069700
     56 H26        -2.0090    0.5990   -1.4560 hc        1 5YI      0.043367
     57 H27        -0.2060    0.8200   -1.3620 hc        1 5YI      0.043367
     58 H28        -1.0510   -0.2560   -0.1760 hc        1 5YI      0.043367
     59 H29        -0.1620    2.7540   -2.2680 hc        1 5YI      0.041700
     60 H30        -0.2860    4.4930   -1.8050 hc        1 5YI      0.041700
     61 H31         1.9230    3.2820   -1.3190 hc        1 5YI      0.048700
     62 H32         1.2090    4.2790    0.0120 hc        1 5YI      0.048700
     63 H33         2.1050    0.5670    1.2900 ha        1 5YI      0.124000
     64 H34         3.7120    2.5130   -0.4780 ha        1 5YI      0.125000
     65 H35         5.4810    0.2740   -2.1710 hc        1 5YI      0.060950
     66 H36         5.7590    1.8170   -1.2550 hc        1 5YI      0.060950
     67 H37         7.6640    0.1600   -1.1180 h1        1 5YI      0.055700
     68 H38         6.4130    0.8540    1.3100 ho        1 5YI      0.402500
     69 H39         3.1000   -1.0640    0.5390 hc        1 5YI      0.060950
     70 H40         3.8570   -1.5220   -1.0360 hc        1 5YI      0.060950
     71 H41         5.2980   -1.0850    1.6840 h1        1 5YI      0.055700
     72 H42         4.1530   -3.0620    1.2800 ho        1 5YI      0.402500
     73 H43         7.0880   -3.3940   -0.0750 ha        1 5YI      0.168000
     74 H44         8.4930   -1.7610   -2.0820 h1        1 5YI      0.035200
     75 H45         9.3110   -1.4940   -0.4660 h1        1 5YI      0.035200
     76 H46        10.1140   -3.3330   -1.5320 ho        1 5YI      0.401000
     77 C23        -6.1110    0.2340   -0.0030 c3        1 5YI     -0.047300
@<TRIPOS>BOND
     1    1    2 1   
     2    1   17 1   
     3    1   33 1   
     4    1   34 1   
     5    2    3 1   
     6    2   15 1   
     7    2   16 1   
     8    3    4 1   
     9    3   19 1   
    10    3   35 1   
    11    4    5 1   
    12    4   36 1   
    13    4   37 1   
    14    5   15 2   
    15    5   38 1   
    16    6   14 1   
    17    6   39 1   
    18    6   40 1   
    19    6   41 1   
    20    7    9 1   
    21    7   10 1   
    22    7   12 1   
    23    7   77 1   
    24    8    9 1   
    25    8   44 1   
    26    8   45 1   
    27    8   46 1   
    28    9   47 1   
    29    9   48 1   
    30   10   11 1   
    31   10   49 1   
    32   10   50 1   
    33   11   51 1   
    34   11   52 1   
    35   11   53 1   
    36   12   54 1   
    37   13   14 1   
    38   13   77 1   
    39   14   15 1   
    40   14   55 1   
    41   16   56 1   
    42   16   57 1   
    43   16   58 1   
    44   17   18 1   
    45   17   59 1   
    46   17   60 1   
    47   18   19 1   
    48   18   61 1   
    49   18   62 1   
    50   19   20 2   
    51   20   21 1   
    52   20   63 1   
    53   21   22 2   
    54   21   64 1   
    55   22   23 1   
    56   22   26 1   
    57   23   24 1   
    58   23   65 1   
    59   23   66 1   
    60   24   25 1   
    61   24   29 1   
    62   24   67 1   
    63   25   68 1   
    64   26   27 1   
    65   26   69 1   
    66   26   70 1   
    67   27   28 1   
    68   27   29 1   
    69   27   71 1   
    70   28   72 1   
    71   29   30 2   
    72   30   31 1   
    73   30   73 1   
    74   31   32 1   
    75   31   74 1   
    76   31   75 1   
    77   32   76 1   
    78   42   77 1   
    79   43   77 1   
@<TRIPOS>SUBSTRUCTURE
     1 5YI         1 TEMP              0 ****  ****    0 ROOT
