@<TRIPOS>MOLECULE
5YL
   51    51     1     0     0
SMALL
bcc


@<TRIPOS>ATOM
      1 O3P         2.8680   -0.5030   -6.6060 o         1 5YL     -0.879500
      2 P           1.7510   -0.9430   -5.7270 p5        1 5YL      1.348600
      3 O1P         0.5200   -1.5630   -6.2710 o         1 5YL     -0.879500
      4 O2P         2.5370   -2.0560   -4.7930 oh        1 5YL     -0.798400
      5 C17         1.3820    0.2780   -4.6150 c3        1 5YL     -0.335600
      6 C16         0.4760   -0.2980   -3.5660 c3        1 5YL     -0.066400
      7 C15         0.0040    0.7370   -2.5670 c3        1 5YL     -0.070400
      8 C14        -0.9100    0.1390   -1.5180 c3        1 5YL     -0.077400
      9 C13        -1.5440    1.2190   -0.6570 c3        1 5YL      0.003800
     10 C5         -2.5730    0.6740    0.2650 cc        1 5YL     -0.379400
     11 C4         -3.9010    0.5140   -0.3030 c         1 5YL      0.735700
     12 O4         -4.2710    0.8690   -1.4400 o         1 5YL     -0.655500
     13 N3         -4.8970   -0.0820    0.5110 n         1 5YL     -0.593500
     14 C2         -4.6490   -0.4660    1.8240 c         1 5YL      0.811500
     15 O2         -5.5370   -0.9980    2.5380 o         1 5YL     -0.707500
     16 N1         -3.3790   -0.2270    2.3620 n         1 5YL     -0.486100
     17 C6         -2.3210    0.3140    1.5960 cd        1 5YL      0.340600
     18 N7         -1.0710    0.3980    2.1850 nh        1 5YL     -0.701000
     19 C8         -0.9210    0.4330    3.6210 c3        1 5YL      0.094800
     20 C9          0.4350    1.1110    4.0690 c3        1 5YL      0.387800
     21 O9          0.8270    2.0780    3.2680 o         1 5YL     -0.867500
     22 C10         1.4930   -0.0310    4.2290 c3        1 5YL      0.026100
     23 O10         1.0900   -1.0000    5.1900 oh        1 5YL     -0.622800
     24 C11         2.8450    0.5680    4.6410 c3        1 5YL      0.115100
     25 O11         3.4490    1.3000    3.5900 oh        1 5YL     -0.660800
     26 C12         3.8460   -0.5270    5.0230 c3        1 5YL      0.130400
     27 O12         5.0840    0.0170    5.4450 oh        1 5YL     -0.633800
     28 H171        0.8830    1.1320   -5.1300 hc        1 5YL      0.057200
     29 H172        2.3090    0.6860   -4.1480 hc        1 5YL      0.057200
     30 H161        1.0260   -1.1230   -3.0400 hc        1 5YL      0.056700
     31 H162       -0.4030   -0.7680   -4.0870 hc        1 5YL      0.056700
     32 H151       -0.5380    1.5530   -3.1140 hc        1 5YL      0.027200
     33 H152        0.8910    1.2080   -2.0670 hc        1 5YL      0.027200
     34 H141       -0.3320   -0.5720   -0.8720 hc        1 5YL      0.041700
     35 H142       -1.7230   -0.4490   -2.0220 hc        1 5YL      0.041700
     36 H131       -2.0440    1.9680   -1.3350 hc        1 5YL      0.046700
     37 H132       -0.7440    1.7770   -0.1010 hc        1 5YL      0.046700
     38 HN3        -5.8070   -0.2410    0.1440 hn        1 5YL      0.333500
     39 HN1        -3.2230   -0.5400    3.2960 hn        1 5YL      0.346500
     40 HN7        -0.4010    0.9860    1.7110 hn        1 5YL      0.473800
     41 H81        -0.9670   -0.6200    4.0130 h1        1 5YL      0.017700
     42 H82        -1.7480    1.0300    4.0990 h1        1 5YL      0.017700
     43 H91         0.2110    1.4550    5.1400 h1        1 5YL     -0.091300
     44 HO9         3.4430   -2.1450   -5.0640 ho        1 5YL      0.416000
     45 H101        1.6010   -0.5990    3.2680 h1        1 5YL      0.076700
     46 H10O        0.7250   -0.5100    5.9350 ho        1 5YL      0.381000
     47 H111        2.6930    1.2570    5.5210 h1        1 5YL      0.021700
     48 H11O        2.7470    1.8400    3.1760 ho        1 5YL      0.472000
     49 H121        4.0160   -1.2100    4.1490 h1        1 5YL      0.041700
     50 H122        3.4600   -1.1150    5.8960 h1        1 5YL      0.041700
     51 H12O        5.3170    0.6980    4.8010 ho        1 5YL      0.414000
@<TRIPOS>BOND
     1    1    2 1   
     2    2    3 1   
     3    2    4 1   
     4    2    5 1   
     5    4   44 1   
     6    5    6 1   
     7    5   28 1   
     8    5   29 1   
     9    6    7 1   
    10    6   30 1   
    11    6   31 1   
    12    7    8 1   
    13    7   32 1   
    14    7   33 1   
    15    8    9 1   
    16    8   34 1   
    17    8   35 1   
    18    9   10 1   
    19    9   36 1   
    20    9   37 1   
    21   10   11 1   
    22   10   17 2   
    23   11   12 2   
    24   11   13 1   
    25   13   14 1   
    26   13   38 1   
    27   14   15 2   
    28   14   16 1   
    29   16   17 1   
    30   16   39 1   
    31   17   18 1   
    32   18   19 1   
    33   18   40 1   
    34   19   20 1   
    35   19   41 1   
    36   19   42 1   
    37   20   21 1   
    38   20   22 1   
    39   20   43 1   
    40   22   23 1   
    41   22   24 1   
    42   22   45 1   
    43   23   46 1   
    44   24   25 1   
    45   24   26 1   
    46   24   47 1   
    47   25   48 1   
    48   26   27 1   
    49   26   49 1   
    50   26   50 1   
    51   27   51 1   
@<TRIPOS>SUBSTRUCTURE
     1 5YL         1 TEMP              0 ****  ****    0 ROOT
