@<TRIPOS>MOLECULE
5YL
   51    51     1     0     0
SMALL
bcc


@<TRIPOS>ATOM
      1 O3P        -0.1170    0.4270    0.7880 o         1 5YL     -0.879000
      2 P           1.3550    0.3330    0.6340 p5        1 5YL      1.347600
      3 O1P         2.2700    0.2940    1.8050 o         1 5YL     -0.879000
      4 O2P         1.7080   -1.1140   -0.0800 oh        1 5YL     -0.799400
      5 C17         1.8610    1.4430   -0.5390 c3        1 5YL     -0.336600
      6 C16         3.3550    1.3820   -0.6490 c3        1 5YL     -0.063400
      7 C15         3.9160    2.4030   -1.6150 c3        1 5YL     -0.069400
      8 C14         5.4290    2.3600   -1.6750 c3        1 5YL     -0.079400
      9 C13         5.9790    3.4970   -2.5220 c3        1 5YL      0.011800
     10 C5          7.4610    3.5830   -2.4580 cc        1 5YL     -0.397400
     11 C4          7.9960    4.1460   -1.2310 c         1 5YL      0.736700
     12 O4          7.3400    4.6210   -0.2820 o         1 5YL     -0.657500
     13 N3          9.4060    4.1930   -1.0870 n         1 5YL     -0.593500
     14 C2         10.2680    3.7480   -2.0820 c         1 5YL      0.812500
     15 O2         11.5180    3.7910   -1.9460 o         1 5YL     -0.707500
     16 N1          9.7190    3.2400   -3.2660 n         1 5YL     -0.490100
     17 C6          8.3240    3.1790   -3.4900 cd        1 5YL      0.355600
     18 N7          7.8850    2.8100   -4.7390 nh        1 5YL     -0.719000
     19 C8          8.7590    2.3220   -5.7750 c3        1 5YL      0.116800
     20 C9          7.9550    2.0000   -7.0950 c3        1 5YL      0.409800
     21 O9          6.8540    1.3130   -6.8840 o         1 5YL     -0.870500
     22 C10         8.9730    1.2170   -8.0070 c3        1 5YL      0.023100
     23 O10        10.1230    2.0280   -8.1920 oh        1 5YL     -0.605800
     24 C11         8.2980    0.8950   -9.3470 c3        1 5YL      0.111100
     25 O11         7.3110   -0.1110   -9.1940 oh        1 5YL     -0.670800
     26 C12         9.2960    0.3530  -10.3770 c3        1 5YL      0.124400
     27 O12         8.6600   -0.1140  -11.5520 oh        1 5YL     -0.628800
     28 H171        1.3880    1.2140   -1.5240 hc        1 5YL      0.060200
     29 H172        1.5330    2.4740   -0.2640 hc        1 5YL      0.060200
     30 H161        3.7890    1.5320    0.3770 hc        1 5YL      0.052200
     31 H162        3.6400    0.3450   -0.9740 hc        1 5YL      0.052200
     32 H151        3.5860    3.4280   -1.2970 hc        1 5YL      0.026700
     33 H152        3.4940    2.2240   -2.6380 hc        1 5YL      0.026700
     34 H141        5.7630    1.3760   -2.0960 hc        1 5YL      0.042200
     35 H142        5.8480    2.4440   -0.6380 hc        1 5YL      0.042200
     36 H131        5.5590    4.4660   -2.1290 hc        1 5YL      0.041200
     37 H132        5.6070    3.3920   -3.5730 hc        1 5YL      0.041200
     38 HN3         9.8070    4.5440   -0.2480 hn        1 5YL      0.333500
     39 HN1        10.3640    2.9580   -3.9730 hn        1 5YL      0.348500
     40 HN7         6.9280    2.5210   -4.8370 hn        1 5YL      0.482800
     41 H81         9.2830    1.3850   -5.4360 h1        1 5YL      0.018200
     42 H82         9.5350    3.0990   -6.0190 h1        1 5YL      0.018200
     43 H91         7.7910    3.0020   -7.6080 h1        1 5YL     -0.055300
     44 HO9         2.3790   -1.5780    0.4060 ho        1 5YL      0.417000
     45 H101        9.2580    0.2540   -7.5040 h1        1 5YL      0.027700
     46 H10O       10.7700    1.4870   -8.6590 ho        1 5YL      0.365000
     47 H111        7.8110    1.8250   -9.7550 h1        1 5YL      0.041700
     48 H11O        6.7910    0.1200   -8.3960 ho        1 5YL      0.481000
     49 H121        9.8930   -0.4850   -9.9280 h1        1 5YL      0.026700
     50 H122        9.9850    1.1690  -10.7190 h1        1 5YL      0.026700
     51 H12O        7.8490   -0.5620  -11.2760 ho        1 5YL      0.422000
@<TRIPOS>BOND
     1    1    2 1   
     2    2    3 1   
     3    2    4 1   
     4    2    5 1   
     5    4   44 1   
     6    5    6 1   
     7    5   28 1   
     8    5   29 1   
     9    6    7 1   
    10    6   30 1   
    11    6   31 1   
    12    7    8 1   
    13    7   32 1   
    14    7   33 1   
    15    8    9 1   
    16    8   34 1   
    17    8   35 1   
    18    9   10 1   
    19    9   36 1   
    20    9   37 1   
    21   10   11 1   
    22   10   17 2   
    23   11   12 2   
    24   11   13 1   
    25   13   14 1   
    26   13   38 1   
    27   14   15 2   
    28   14   16 1   
    29   16   17 1   
    30   16   39 1   
    31   17   18 1   
    32   18   19 1   
    33   18   40 1   
    34   19   20 1   
    35   19   41 1   
    36   19   42 1   
    37   20   21 1   
    38   20   22 1   
    39   20   43 1   
    40   22   23 1   
    41   22   24 1   
    42   22   45 1   
    43   23   46 1   
    44   24   25 1   
    45   24   26 1   
    46   24   47 1   
    47   25   48 1   
    48   26   27 1   
    49   26   49 1   
    50   26   50 1   
    51   27   51 1   
@<TRIPOS>SUBSTRUCTURE
     1 5YL         1 TEMP              0 ****  ****    0 ROOT
