@<TRIPOS>MOLECULE
5YL
   51    49     1     0     0
SMALL
bcc


@<TRIPOS>ATOM
      1 O3P        -3.0610    5.4450    1.6540 o         1 5YL     -0.957167
      2 P          -2.4140    4.5640    2.6800 p5        1 5YL      1.250700
      3 O1P        -0.9120    4.6290    2.5270 o         1 5YL     -0.957167
      4 O2P        -2.8000    5.0350    4.0630 o         1 5YL     -0.957167
      5 C17        -2.9810    2.8210    2.4440 c3        1 5YL     -0.306600
      6 C16        -2.1620    1.8920    3.3570 c3        1 5YL     -0.050400
      7 C15        -2.0740    0.4820    2.7230 c3        1 5YL     -0.083400
      8 C14        -0.7800   -0.2190    3.2040 c3        1 5YL     -0.091400
      9 C13        -0.3940   -1.3010    2.2090 c3        1 5YL      0.001800
     10 C5          1.1840   -1.3690    2.0780 ce        1 5YL     -0.476500
     11 C4          1.9780   -1.0610    3.1560 ce        1 5YL      0.665500
     12 O4          1.4560   -0.7840    4.2540 o         1 5YL     -0.676300
     13 N3          3.3110   -1.1650    3.0560 n2        1 5YL     -0.618400
     14 C2          3.8860   -1.5810    1.8720 c1        1 5YL      0.858900
     15 O2          5.1000   -1.6110    1.7620 o         1 5YL     -0.660500
     16 N1          3.0890   -1.8900    0.7920 n2        1 5YL     -0.794800
     17 C6          1.7590   -1.7870    0.8900 c1        1 5YL      0.348100
     18 N7          0.9000   -2.1910   -0.2360 n3        1 5YL     -0.312400
     19 C8          1.3940   -2.0920   -1.6000 c3        1 5YL      0.006300
     20 C9          0.2520   -1.7530   -2.5280 c3        1 5YL      0.079100
     21 O9         -0.2920   -2.9520   -3.0750 oh        1 5YL     -0.652800
     22 C10         0.7600   -0.8720   -3.6500 c3        1 5YL      0.139100
     23 O10         1.7750   -0.0090   -3.1530 oh        1 5YL     -0.674800
     24 C11        -0.3710   -0.0570   -4.1930 c3        1 5YL      0.082100
     25 O11        -1.1280   -0.8480   -5.0910 oh        1 5YL     -0.663800
     26 C12         0.1690    1.1320   -4.9140 c3        1 5YL      0.139400
     27 O12        -0.9010    1.9560   -5.3240 oh        1 5YL     -0.641800
     28 H171       -2.8510    2.5530    1.4910 hc        1 5YL      0.037700
     29 H172       -3.9270    2.7530    2.6760 hc        1 5YL      0.037700
     30 H161       -1.2510    2.2610    3.4690 hc        1 5YL      0.035700
     31 H162       -2.6070    1.8280    4.2490 hc        1 5YL      0.035700
     32 H151       -2.8440   -0.0430    2.9920 hc        1 5YL      0.026200
     33 H152       -2.0600    0.5610    1.7680 hc        1 5YL      0.026200
     34 H141       -0.0730    0.4240    3.2690 hc        1 5YL      0.034700
     35 H142       -0.9350   -0.6220    4.0800 hc        1 5YL      0.034700
     36 H131       -0.7300   -2.1590    2.5180 hc        1 5YL      0.042700
     37 H132       -0.7860   -1.0930    1.3310 hc        1 5YL      0.042700
     38 HN3         3.8670   -0.9650    3.8170 hn        1 5YL      0.489400
     39 HN1         3.4850   -2.2420   -0.0110 hn        1 5YL      0.510400
     40 HN7         0.0410   -2.4470   -0.0820 hn        1 5YL      0.333700
     41 H81         1.7950   -2.9590   -1.8710 h1        1 5YL      0.043700
     42 H82         2.0700   -1.3920   -1.6490 h1        1 5YL      0.043700
     43 H91        -0.4490   -1.2740   -2.0250 h1        1 5YL      0.171700
     44 HO9        -1.0590   -3.1400   -2.6690 ho        1 5YL      0.472000
     45 H101        1.1240   -1.4230   -4.3510 h1        1 5YL      0.026700
     46 H10O        2.4830    0.0020   -3.7410 ho        1 5YL      0.479000
     47 H111       -0.9370    0.2370   -3.4650 h1        1 5YL      0.135700
     48 H11O       -1.9390   -0.4930   -5.1880 ho        1 5YL      0.477000
     49 H121        0.7620    1.6380   -4.3170 h1        1 5YL      0.022700
     50 H122        0.6660    0.8390   -5.6910 h1        1 5YL      0.022700
     51 H12O       -0.5900    2.7440   -5.5580 ho        1 5YL      0.423000
@<TRIPOS>BOND
     1    1    2 1   
     2    2    3 1   
     3    2    4 1   
     4    2    5 1   
     5    5    6 1   
     6    5   28 1   
     7    5   29 1   
     8    6    7 1   
     9    6   30 1   
    10    6   31 1   
    11    7    8 1   
    12    7   32 1   
    13    7   33 1   
    14    8    9 1   
    15    8   34 1   
    16    8   35 1   
    17    9   10 1   
    18    9   36 1   
    19    9   37 1   
    20   10   11 1   
    21   10   17 2   
    22   11   12 1   
    23   11   13 2   
    24   13   38 1   
    25   14   15 2   
    26   14   16 2   
    27   16   39 1   
    28   17   18 2   
    29   18   19 1   
    30   18   40 1   
    31   19   20 1   
    32   19   41 1   
    33   19   42 1   
    34   20   21 1   
    35   20   22 1   
    36   20   43 1   
    37   21   44 1   
    38   22   23 1   
    39   22   24 1   
    40   22   45 1   
    41   23   46 1   
    42   24   25 1   
    43   24   26 1   
    44   24   47 1   
    45   25   48 1   
    46   26   27 1   
    47   26   49 1   
    48   26   50 1   
    49   27   51 1   
@<TRIPOS>SUBSTRUCTURE
     1 5YL         1 TEMP              0 ****  ****    0 ROOT
