@<TRIPOS>MOLECULE
5YL
   51    51     1     0     0
SMALL
bcc


@<TRIPOS>ATOM
      1 O3P         0.5780    0.3750    0.1460 o         1 5YL     -0.876500
      2 P           1.8910   -0.1420   -0.3100 p5        1 5YL      1.345600
      3 O1P         2.9630   -0.5190    0.6470 o         1 5YL     -0.876500
      4 O2P         1.6350   -1.5990   -1.0530 oh        1 5YL     -0.802400
      5 C17         2.4320    0.8050   -1.6080 c3        1 5YL     -0.343600
      6 C16         3.9250    0.9620   -1.6210 c3        1 5YL     -0.056400
      7 C15         4.3580    2.3180   -2.1480 c3        1 5YL     -0.075400
      8 C14         5.8670    2.4370   -2.2210 c3        1 5YL     -0.078400
      9 C13         6.2900    3.8300   -2.6580 c3        1 5YL      0.001800
     10 C5          7.7510    4.0530   -2.5110 cc        1 5YL     -0.386400
     11 C4          8.1810    4.7120   -1.2920 c         1 5YL      0.737700
     12 O4          7.4470    5.1920   -0.4040 o         1 5YL     -0.660500
     13 N3          9.5750    4.8550   -1.0800 ns        1 5YL     -0.593500
     14 C2         10.5150    4.4280   -2.0120 c         1 5YL      0.812500
     15 O2         11.7510    4.5530   -1.8110 o         1 5YL     -0.707500
     16 N1         10.0620    3.8630   -3.2100 ns        1 5YL     -0.486100
     17 C6          8.6900    3.6490   -3.4730 cd        1 5YL      0.343600
     18 N7          8.3410    2.9900   -4.6350 nu        1 5YL     -0.703000
     19 C8          9.2510    2.8910   -5.7530 c3        1 5YL      0.102800
     20 C9          8.5050    2.5980   -7.1120 c3        1 5YL      0.405800
     21 O9          7.3830    3.2790   -7.2420 o         1 5YL     -0.879500
     22 C10         8.2620    1.0500   -7.1920 c3        1 5YL      0.027100
     23 O10         9.5180    0.3910   -7.0930 oh        1 5YL     -0.609800
     24 C11         7.5890    0.7090   -8.5300 c3        1 5YL      0.112100
     25 O11         6.2420    1.1490   -8.5640 oh        1 5YL     -0.666800
     26 C12         7.5470   -0.8030   -8.7780 c3        1 5YL      0.123400
     27 O12         6.8090   -1.1330   -9.9400 oh        1 5YL     -0.628800
     28 H171        2.0880    0.3600   -2.5730 hc        1 5YL      0.065200
     29 H172        1.9410    1.8090   -1.5420 hc        1 5YL      0.065200
     30 H161        4.3170    0.8150   -0.5760 hc        1 5YL      0.050200
     31 H162        4.4030    0.1720   -2.2650 hc        1 5YL      0.050200
     32 H151        3.9200    2.4810   -3.1670 hc        1 5YL      0.029200
     33 H152        3.9520    3.1230   -1.4800 hc        1 5YL      0.029200
     34 H141        6.3050    2.2150   -1.2130 hc        1 5YL      0.039700
     35 H142        6.2740    1.6770   -2.9380 hc        1 5YL      0.039700
     36 H131        5.7500    4.5860   -2.0220 hc        1 5YL      0.047700
     37 H132        5.9620    4.0090   -3.7170 hc        1 5YL      0.047700
     38 HN3         9.9090    5.2710   -0.2410 hn        1 5YL      0.333500
     39 HN1        10.7590    3.5530   -3.8520 hn        1 5YL      0.348500
     40 HN7         7.3770    3.0790   -4.9160 hn        1 5YL      0.472800
     41 H81         9.9920    2.0730   -5.5440 h1        1 5YL      0.021200
     42 H82         9.8090    3.8580   -5.9040 h1        1 5YL      0.021200
     43 H91         9.2900    2.8280   -7.9030 h1        1 5YL     -0.059300
     44 HO9         2.1700   -2.2780   -0.6610 ho        1 5YL      0.415000
     45 H101        7.5900    0.7380   -6.3490 h1        1 5YL      0.039700
     46 H10O        9.3250   -0.5370   -6.9250 ho        1 5YL      0.371000
     47 H111        8.1540    1.2070   -9.3680 h1        1 5YL      0.035700
     48 H11O        6.2240    2.0450   -8.1710 ho        1 5YL      0.476000
     49 H121        7.0950   -1.3240   -7.8920 h1        1 5YL      0.031200
     50 H122        8.5810   -1.1950   -8.9640 h1        1 5YL      0.031200
     51 H12O        6.0110   -0.5870   -9.9280 ho        1 5YL      0.420000
@<TRIPOS>BOND
     1    1    2 1   
     2    2    3 1   
     3    2    4 1   
     4    2    5 1   
     5    4   44 1   
     6    5    6 1   
     7    5   28 1   
     8    5   29 1   
     9    6    7 1   
    10    6   30 1   
    11    6   31 1   
    12    7    8 1   
    13    7   32 1   
    14    7   33 1   
    15    8    9 1   
    16    8   34 1   
    17    8   35 1   
    18    9   10 1   
    19    9   36 1   
    20    9   37 1   
    21   10   11 1   
    22   10   17 2   
    23   11   12 2   
    24   11   13 1   
    25   13   14 1   
    26   13   38 1   
    27   14   15 2   
    28   14   16 1   
    29   16   17 1   
    30   16   39 1   
    31   17   18 1   
    32   18   19 1   
    33   18   40 1   
    34   19   20 1   
    35   19   41 1   
    36   19   42 1   
    37   20   21 1   
    38   20   22 1   
    39   20   43 1   
    40   22   23 1   
    41   22   24 1   
    42   22   45 1   
    43   23   46 1   
    44   24   25 1   
    45   24   26 1   
    46   24   47 1   
    47   25   48 1   
    48   26   27 1   
    49   26   49 1   
    50   26   50 1   
    51   27   51 1   
@<TRIPOS>SUBSTRUCTURE
     1 5YL         1 TEMP              0 ****  ****    0 ROOT
