@<TRIPOS>MOLECULE
5Z5
   39    41     1     0     0
SMALL
bcc


@<TRIPOS>ATOM
      1 C17         7.0400   -1.4250   -0.6500 c3        1 5Z5      0.079300
      2 N3          5.7810   -0.7520   -0.6340 n         1 5Z5     -0.577900
      3 C16         4.7670   -1.0950    0.2470 c         1 5Z5      0.704700
      4 O2          4.9630   -1.9510    1.1350 o         1 5Z5     -0.612100
      5 C12         3.4810   -0.4030    0.0870 cc        1 5Z5     -0.235600
      6 C11         2.1990   -0.9850    0.3300 cc        1 5Z5     -0.017300
      7 C14         1.9190   -2.3540    0.7680 c3        1 5Z5     -0.055800
      8 C13         3.2670    0.9470   -0.3090 cd        1 5Z5     -0.035600
      9 C15         4.2690    1.9790   -0.6420 c3        1 5Z5     -0.051800
     10 N2          1.9080    1.1840   -0.3210 na        1 5Z5     -0.130100
     11 C10         1.2260    0.0220    0.0620 cd        1 5Z5     -0.162100
     12 C9         -0.1850   -0.1560    0.1760 cf        1 5Z5      0.058800
     13 C7         -1.2190    0.6760   -0.0510 cc        1 5Z5     -0.173400
     14 C5         -2.6300    0.3000    0.1270 ca        1 5Z5     -0.089800
     15 C4         -3.2280   -0.8760    0.5320 ca        1 5Z5     -0.077000
     16 C1         -4.6320   -0.9210    0.6020 ca        1 5Z5     -0.012600
     17 CL1        -5.3840   -2.3640    1.0990 cl        1 5Z5     -0.093400
     18 C2         -5.4160    0.1840    0.2730 ca        1 5Z5     -0.091000
     19 C3         -4.8270    1.3850   -0.1400 ca        1 5Z5     -0.157000
     20 C6         -3.4390    1.4440   -0.2130 ca        1 5Z5      0.056600
     21 N1         -2.6040    2.5050   -0.5920 n         1 5Z5     -0.471100
     22 C8         -1.2530    2.1040   -0.5120 c         1 5Z5      0.725700
     23 O1         -0.3270    2.8810   -0.7980 o         1 5Z5     -0.649500
     24 H171        7.8650   -0.6700   -0.7540 h1        1 5Z5      0.042700
     25 H172        7.1830   -1.9990    0.3050 h1        1 5Z5      0.042700
     26 H173        7.1010   -2.1430   -1.5140 h1        1 5Z5      0.042700
     27 H3          5.5630   -0.1710   -1.4060 hn        1 5Z5      0.305500
     28 H141        1.3770   -2.9190   -0.0330 hc        1 5Z5      0.059367
     29 H142        2.8710   -2.8940    1.0080 hc        1 5Z5      0.059367
     30 H143        1.2800   -2.3480    1.6870 hc        1 5Z5      0.059367
     31 H151        4.5990    1.8630   -1.7060 hc        1 5Z5      0.061033
     32 H152        3.8610    3.0130   -0.5160 hc        1 5Z5      0.061033
     33 H153        5.1590    1.8700    0.0260 hc        1 5Z5      0.061033
     34 H2          1.4770    2.0520   -0.5470 hn        1 5Z5      0.337700
     35 H9         -0.4430   -1.1850    0.5170 ha        1 5Z5      0.147000
     36 H4         -2.6280   -1.7600    0.7970 ha        1 5Z5      0.150000
     37 HA         -6.5140    0.1210    0.3360 ha        1 5Z5      0.150000
     38 HB         -5.4540    2.2500   -0.3960 ha        1 5Z5      0.145000
     39 H1         -2.9150    3.4000   -0.8640 hn        1 5Z5      0.344500
@<TRIPOS>BOND
     1    1    2 1   
     2    1   24 1   
     3    1   25 1   
     4    1   26 1   
     5    2    3 1   
     6    2   27 1   
     7    3    4 2   
     8    3    5 1   
     9    5    6 1   
    10    5    8 2   
    11    6    7 1   
    12    6   11 2   
    13    7   28 1   
    14    7   29 1   
    15    7   30 1   
    16    8    9 1   
    17    8   10 1   
    18    9   31 1   
    19    9   32 1   
    20    9   33 1   
    21   10   11 1   
    22   10   34 1   
    23   11   12 1   
    24   12   13 2   
    25   12   35 1   
    26   13   14 1   
    27   13   22 1   
    28   14   15 ar  
    29   14   20 ar  
    30   15   16 ar  
    31   15   36 1   
    32   16   17 1   
    33   16   18 ar  
    34   18   19 ar  
    35   18   37 1   
    36   19   20 ar  
    37   19   38 1   
    38   20   21 1   
    39   21   22 1   
    40   21   39 1   
    41   22   23 2   
@<TRIPOS>SUBSTRUCTURE
     1 5Z5         1 TEMP              0 ****  ****    0 ROOT
