@<TRIPOS>MOLECULE
5Z5
   40    42     1     0     0
SMALL
bcc


@<TRIPOS>ATOM
      1 C17         0.1750    0.5940   -0.4620 c3        1 5Z5      0.085100
      2 N3          1.5900    0.7760   -0.0810 ny        1 5Z5     -0.670800
      3 C16         2.1570   -0.3940    0.7270 c         1 5Z5      0.602700
      4 O2          1.3660   -1.3120    0.9260 o         1 5Z5     -0.472100
      5 C12         3.5130   -0.2600    1.1320 cc        1 5Z5     -0.329600
      6 C11         4.4820    0.7960    0.9370 cc        1 5Z5     -0.084300
      7 C14         4.2950    2.0600    0.2210 c3        1 5Z5     -0.052800
      8 C13         4.1690   -1.2990    1.8800 cd        1 5Z5      0.073400
      9 C15         3.5820   -2.5770    2.3220 c3        1 5Z5     -0.075800
     10 N2          5.4510   -0.8950    2.1290 na        1 5Z5     -0.120100
     11 C10         5.6750    0.3750    1.5630 cd        1 5Z5     -0.056100
     12 C9          6.9070    1.1170    1.6460 cf        1 5Z5     -0.035200
     13 C7          8.1550    0.7200    1.9350 cc        1 5Z5     -0.076400
     14 C5          9.3250    1.6110    1.9460 ca        1 5Z5     -0.131800
     15 C4          9.4500    2.9700    1.7330 ca        1 5Z5     -0.059000
     16 C1         10.7320    3.5420    1.8050 ca        1 5Z5     -0.013600
     17 Cl1        10.9030    5.2100    1.5450 cl        1 5Z5     -0.066400
     18 C2         11.8610    2.7670    2.0840 ca        1 5Z5     -0.068000
     19 C3         11.7520    1.3890    2.3040 ca        1 5Z5     -0.144000
     20 C6         10.4880    0.8130    2.2360 ca        1 5Z5      0.065600
     21 N1         10.1020   -0.5280    2.4170 ns        1 5Z5     -0.457100
     22 C8          8.7130   -0.6490    2.2700 c         1 5Z5      0.714700
     23 O1          8.1100   -1.7240    2.4120 o         1 5Z5     -0.638500
     24 H171       -0.4500    0.4770    0.4650 hx        1 5Z5      0.109033
     25 H172       -0.1680    1.4860   -1.0500 hx        1 5Z5      0.109033
     26 H173        0.0710   -0.3390   -1.0810 hx        1 5Z5      0.109033
     27 H3          1.6940    1.6260    0.4840 hn        1 5Z5      0.455300
     28 H141        3.5040    2.6880    0.7040 hc        1 5Z5      0.053700
     29 H142        4.0300    1.8830   -0.8530 hc        1 5Z5      0.053700
     30 H143        5.2370    2.6680    0.2190 hc        1 5Z5      0.053700
     31 H151        3.0980   -3.0850    1.4470 hc        1 5Z5      0.088367
     32 H152        2.7840   -2.3760    3.0840 hc        1 5Z5      0.088367
     33 H153        4.3410   -3.2670    2.7670 hc        1 5Z5      0.088367
     34 H2          6.1500   -1.4400    2.5960 hn        1 5Z5      0.360700
     35 H9          6.7700    2.1960    1.4200 ha        1 5Z5      0.154000
     36 H4          8.5730    3.5970    1.5140 ha        1 5Z5      0.148000
     37 HA         12.8560    3.2410    2.1350 ha        1 5Z5      0.165000
     38 HB         12.6480    0.7910    2.5240 ha        1 5Z5      0.160000
     39 H1         10.7160   -1.2690    2.6400 hn        1 5Z5      0.360500
     40 H32         2.1680    0.8840   -0.9220 hn        1 5Z5      0.455300
@<TRIPOS>BOND
     1    1    2 1   
     2    1   24 1   
     3    1   25 1   
     4    1   26 1   
     5    2    3 1   
     6    2   27 1   
     7    2   40 1   
     8    3    4 2   
     9    3    5 1   
    10    5    6 1   
    11    5    8 2   
    12    6    7 1   
    13    6   11 2   
    14    7   28 1   
    15    7   29 1   
    16    7   30 1   
    17    8    9 1   
    18    8   10 1   
    19    9   31 1   
    20    9   32 1   
    21    9   33 1   
    22   10   11 1   
    23   10   34 1   
    24   11   12 1   
    25   12   13 2   
    26   12   35 1   
    27   13   14 1   
    28   13   22 1   
    29   14   15 ar  
    30   14   20 ar  
    31   15   16 ar  
    32   15   36 1   
    33   16   17 1   
    34   16   18 ar  
    35   18   19 ar  
    36   18   37 1   
    37   19   20 ar  
    38   19   38 1   
    39   20   21 1   
    40   21   22 1   
    41   21   39 1   
    42   22   23 2   
@<TRIPOS>SUBSTRUCTURE
     1 5Z5         1 TEMP              0 ****  ****    0 ROOT
