@<TRIPOS>MOLECULE
5Z5
   40    42     1     0     0
SMALL
bcc


@<TRIPOS>ATOM
      1 C17        -0.0740   -0.2420   -0.1490 c3        1 5Z5      0.084100
      2 N3          1.2630   -0.6220    0.3490 n4        1 5Z5     -0.680800
      3 C16         2.1310    0.5850    0.7400 c         1 5Z5      0.612700
      4 O2          1.5320    1.6530    0.7410 o         1 5Z5     -0.448100
      5 C12         3.4980    0.2890    1.0190 cc        1 5Z5     -0.313600
      6 C11         4.5180    1.3100    1.1070 cc        1 5Z5     -0.006300
      7 C14         4.3510    2.7530    0.9290 c3        1 5Z5     -0.065800
      8 C13         4.1370   -0.9680    1.2760 cd        1 5Z5     -0.020600
      9 C15         3.5550   -2.3250    1.3430 c3        1 5Z5     -0.073800
     10 N2          5.4660   -0.7250    1.5020 na        1 5Z5     -0.093100
     11 C10         5.7330    0.6480    1.4040 cd        1 5Z5     -0.094100
     12 C9          7.0070    1.2920    1.5790 cf        1 5Z5     -0.019200
     13 C7          8.2310    0.7970    1.8160 cc        1 5Z5     -0.089400
     14 C5          9.4400    1.6230    1.9640 ca        1 5Z5     -0.124800
     15 C4          9.6330    2.9900    1.9150 ca        1 5Z5     -0.061000
     16 C1         10.9360    3.4860    2.0980 ca        1 5Z5     -0.011600
     17 CL1        11.1920    5.1620    2.0400 cl        1 5Z5     -0.065400
     18 C2         12.0160    2.6290    2.3240 ca        1 5Z5     -0.071000
     19 C3         11.8380    1.2420    2.3780 ca        1 5Z5     -0.142000
     20 C6         10.5530    0.7410    2.1980 ca        1 5Z5      0.059600
     21 N1         10.1000   -0.5920    2.2040 n         1 5Z5     -0.455100
     22 C8          8.7170   -0.6260    1.9840 c         1 5Z5      0.717700
     23 O1          8.0690   -1.6860    1.9460 o         1 5Z5     -0.654500
     24 H171       -0.6170    0.3430    0.6420 hx        1 5Z5      0.109367
     25 H172        0.0370    0.4070   -1.0600 hx        1 5Z5      0.109367
     26 H173       -0.6520   -1.1700   -0.4060 hx        1 5Z5      0.109367
     27 H3          1.1670   -1.2220    1.1750 hn        1 5Z5      0.451800
     28 H141        4.4430    3.2760    1.9170 hc        1 5Z5      0.072700
     29 H142        3.3490    3.0030    0.4980 hc        1 5Z5      0.072700
     30 H143        5.1390    3.1600    0.2450 hc        1 5Z5      0.072700
     31 H151        2.7130   -2.3530    2.0800 hc        1 5Z5      0.071033
     32 H152        4.3100   -3.0850    1.6810 hc        1 5Z5      0.071033
     33 H153        3.1960   -2.6510    0.3350 hc        1 5Z5      0.071033
     34 H2          6.1510   -1.4270    1.7120 hn        1 5Z5      0.361700
     35 H9          6.9200    2.3980    1.4940 ha        1 5Z5      0.160000
     36 H4          8.7950    3.6800    1.7390 ha        1 5Z5      0.151000
     37 HA         13.0290    3.0440    2.4650 ha        1 5Z5      0.164000
     38 HB         12.6970    0.5790    2.5570 ha        1 5Z5      0.158000
     39 H1         10.6730   -1.3840    2.3480 hn        1 5Z5      0.358500
     40 H32         1.7660   -1.1510   -0.3710 hn        1 5Z5      0.451800
@<TRIPOS>BOND
     1    1    2 1   
     2    1   24 1   
     3    1   25 1   
     4    1   26 1   
     5    2    3 1   
     6    2   27 1   
     7    2   40 1   
     8    3    4 2   
     9    3    5 1   
    10    5    6 1   
    11    5    8 2   
    12    6    7 1   
    13    6   11 2   
    14    7   28 1   
    15    7   29 1   
    16    7   30 1   
    17    8    9 1   
    18    8   10 1   
    19    9   31 1   
    20    9   32 1   
    21    9   33 1   
    22   10   11 1   
    23   10   34 1   
    24   11   12 1   
    25   12   13 2   
    26   12   35 1   
    27   13   14 1   
    28   13   22 1   
    29   14   15 ar  
    30   14   20 ar  
    31   15   16 ar  
    32   15   36 1   
    33   16   17 1   
    34   16   18 ar  
    35   18   19 ar  
    36   18   37 1   
    37   19   20 ar  
    38   19   38 1   
    39   20   21 1   
    40   21   22 1   
    41   21   39 1   
    42   22   23 2   
@<TRIPOS>SUBSTRUCTURE
     1 5Z5         1 TEMP              0 ****  ****    0 ROOT
