@<TRIPOS>MOLECULE
5Z5
   39    34     1     0     0
SMALL
bcc


@<TRIPOS>ATOM
      1 C17        -2.1760    5.7960   -0.2330 c3        1 5Z5     -0.074000
      2 N3         -1.4210    4.6570    0.2300 n         1 5Z5     -0.386000
      3 C16        -0.8270    3.7640   -0.7140 c2        1 5Z5      0.381000
      4 O2         -0.8000    4.0560   -1.8920 o         1 5Z5     -0.384000
      5 C12        -0.1210    2.4870   -0.2230 c2        1 5Z5     -0.220000
      6 C11        -0.7140    1.2720   -0.0070 c1        1 5Z5     -0.044000
      7 C14        -2.2020    0.9670   -0.1320 c2        1 5Z5     -0.179000
      8 C13         1.2240    2.3630    0.0670 c1        1 5Z5      0.035000
      9 C15         2.2750    3.4600   -0.0680 c2        1 5Z5     -0.179000
     10 N2          1.4550    1.0690    0.4610 n2        1 5Z5     -0.135000
     11 C10         0.2630    0.3910    0.4180 c1        1 5Z5     -0.118000
     12 C9          0.0370   -1.0630    0.8530 c1        1 5Z5      0.044000
     13 C7          0.4870   -2.0840    0.0730 c1        1 5Z5     -0.164000
     14 C5          0.3810   -3.5390    0.3860 c1        1 5Z5     -0.080000
     15 C4         -0.1710   -4.2260    1.4680 c2        1 5Z5     -0.078000
     16 C1         -0.1290   -5.6200    1.5030 c1        1 5Z5     -0.092000
     17 CL1        -0.9200   -6.6790    2.6380 cl        1 5Z5     -0.015000
     18 C2          0.4700   -6.3330    0.4510 c2        1 5Z5     -0.091000
     19 C3          1.0210   -5.6480   -0.6280 c1        1 5Z5     -0.157000
     20 C6          0.9790   -4.2520   -0.6660 c1        1 5Z5      0.065000
     21 N1          1.4820   -3.2630   -1.6730 n         1 5Z5     -0.326000
     22 C8          1.1930   -1.9500   -1.1890 c2        1 5Z5      0.363000
     23 O1          1.5220   -0.9090   -1.7140 o         1 5Z5     -0.370000
     24 H171       -2.0950    5.8690   -1.2110 h1        1 5Z5      0.081667
     25 H172       -3.1200    5.6840    0.0090 h1        1 5Z5      0.081667
     26 H173       -1.8260    6.6120    0.1860 h1        1 5Z5      0.081667
     27 H3         -1.2810    4.5340    1.1260 hn        1 5Z5      0.224000
     28 H141       -2.3790    0.0510    0.1900 ha        1 5Z5      0.099667
     29 H142       -2.4720    1.0400   -1.0720 ha        1 5Z5      0.099667
     30 H143       -2.7130    1.6060    0.4050 ha        1 5Z5      0.099667
     31 H151        3.1710    3.0580   -0.0650 ha        1 5Z5      0.099667
     32 H152        2.1370    3.9440   -0.9110 ha        1 5Z5      0.099667
     33 H153        2.1950    4.0830    0.6830 ha        1 5Z5      0.099667
     34 H2          2.2650    0.7190    0.7100 DU        1 5Z5      0.289000
     35 H9         -0.4140   -1.2560    1.7020 ha        1 5Z5      0.143000
     36 H4         -0.6340   -3.7360    2.1710 ha        1 5Z5      0.149000
     37 HA          0.5000   -7.3130    0.4770 ha        1 5Z5      0.150000
     38 HB          1.4390   -6.1470   -1.3630 ha        1 5Z5      0.146000
     39 H1          1.9170   -3.4630   -2.4450 hn        1 5Z5      0.259000
@<TRIPOS>BOND
     1    1    2 1   
     2    1   24 1   
     3    1   25 1   
     4    1   26 1   
     5    2    3 1   
     6    2   27 1   
     7    3    4 1   
     8    3    5 1   
     9    5    6 1   
    10    5    8 1   
    11    6   11 1   
    12    7   28 1   
    13    7   29 1   
    14    7   30 1   
    15    8   10 1   
    16    9   31 1   
    17    9   32 1   
    18    9   33 1   
    19   10   11 1   
    20   12   13 1   
    21   12   35 1   
    22   13   22 1   
    23   14   15 1   
    24   14   20 1   
    25   15   16 1   
    26   15   36 1   
    27   16   18 1   
    28   18   19 1   
    29   18   37 1   
    30   19   38 1   
    31   20   21 1   
    32   21   22 1   
    33   21   39 1   
    34   22   23 1   
@<TRIPOS>SUBSTRUCTURE
     1 5Z5         1 TEMP              0 ****  ****    0 ROOT
