@<TRIPOS>MOLECULE
5Z5
   40    42     1     0     0
SMALL
bcc


@<TRIPOS>ATOM
      1 C17         0.1810    0.5860   -0.4800 c3        1 5Z5      0.085100
      2 N3          1.5950    0.7700   -0.0950 n4        1 5Z5     -0.670800
      3 C16         2.1570   -0.3930    0.7240 c         1 5Z5      0.602700
      4 O2          1.3650   -1.3090    0.9290 o         1 5Z5     -0.472100
      5 C12         3.5120   -0.2590    1.1330 cc        1 5Z5     -0.329600
      6 C11         4.4830    0.7940    0.9320 cc        1 5Z5     -0.084300
      7 C14         4.3000    2.0530    0.2050 c3        1 5Z5     -0.052800
      8 C13         4.1650   -1.2920    1.8910 cd        1 5Z5      0.073400
      9 C15         3.5750   -2.5660    2.3420 c3        1 5Z5     -0.075800
     10 N2          5.4470   -0.8870    2.1400 na        1 5Z5     -0.120100
     11 C10         5.6730    0.3770    1.5650 cd        1 5Z5     -0.056100
     12 C9          6.9060    1.1180    1.6450 cf        1 5Z5     -0.035200
     13 C7          8.1530    0.7220    1.9410 cc        1 5Z5     -0.076400
     14 C5          9.3250    1.6110    1.9480 ca        1 5Z5     -0.131800
     15 C4          9.4520    2.9690    1.7250 ca        1 5Z5     -0.059000
     16 C1         10.7350    3.5400    1.7950 ca        1 5Z5     -0.013600
     17 CL1        10.9090    5.2050    1.5230 cl        1 5Z5     -0.066400
     18 C2         11.8610    2.7650    2.0840 ca        1 5Z5     -0.068000
     19 C3         11.7510    1.3890    2.3140 ca        1 5Z5     -0.144000
     20 C6         10.4850    0.8140    2.2470 ca        1 5Z5      0.065600
     21 N1         10.0970   -0.5250    2.4380 n         1 5Z5     -0.457100
     22 C8          8.7090   -0.6450    2.2880 c         1 5Z5      0.714700
     23 O1          8.1040   -1.7180    2.4360 o         1 5Z5     -0.638500
     24 H171       -0.4480    0.4780    0.4450 hx        1 5Z5      0.109033
     25 H172       -0.1590    1.4740   -1.0760 hx        1 5Z5      0.109033
     26 H173        0.0790   -0.3520   -1.0910 hx        1 5Z5      0.109033
     27 H3          1.6970    1.6250    0.4630 hn        1 5Z5      0.455300
     28 H141        3.5080    2.6860    0.6800 hc        1 5Z5      0.053700
     29 H142        4.0380    1.8670   -0.8680 hc        1 5Z5      0.053700
     30 H143        5.2420    2.6600    0.2020 hc        1 5Z5      0.053700
     31 H151        3.0890   -3.0790    1.4710 hc        1 5Z5      0.088367
     32 H152        2.7780   -2.3580    3.1030 hc        1 5Z5      0.088367
     33 H153        4.3330   -3.2550    2.7910 hc        1 5Z5      0.088367
     34 H2          6.1440   -1.4290    2.6140 hn        1 5Z5      0.360700
     35 H9          6.7720    2.1960    1.4100 ha        1 5Z5      0.154000
     36 H4          8.5770    3.5950    1.4990 ha        1 5Z5      0.148000
     37 HA         12.8570    3.2380    2.1330 ha        1 5Z5      0.165000
     38 HB         12.6450    0.7910    2.5410 ha        1 5Z5      0.160000
     39 H1         10.7100   -1.2650    2.6680 hn        1 5Z5      0.360500
     40 H32         2.1760    0.8700   -0.9350 hn        1 5Z5      0.455300
@<TRIPOS>BOND
     1    1    2 1   
     2    1   24 1   
     3    1   25 1   
     4    1   26 1   
     5    2    3 1   
     6    2   27 1   
     7    2   40 1   
     8    3    4 2   
     9    3    5 1   
    10    5    6 1   
    11    5    8 2   
    12    6    7 1   
    13    6   11 2   
    14    7   28 1   
    15    7   29 1   
    16    7   30 1   
    17    8    9 1   
    18    8   10 1   
    19    9   31 1   
    20    9   32 1   
    21    9   33 1   
    22   10   11 1   
    23   10   34 1   
    24   11   12 1   
    25   12   13 2   
    26   12   35 1   
    27   13   14 1   
    28   13   22 1   
    29   14   15 ar  
    30   14   20 ar  
    31   15   16 ar  
    32   15   36 1   
    33   16   17 1   
    34   16   18 ar  
    35   18   19 ar  
    36   18   37 1   
    37   19   20 ar  
    38   19   38 1   
    39   20   21 1   
    40   21   22 1   
    41   21   39 1   
    42   22   23 2   
@<TRIPOS>SUBSTRUCTURE
     1 5Z5         1 TEMP              0 ****  ****    0 ROOT
