@<TRIPOS>MOLECULE
5ZA
   44    46     1     0     0
SMALL
bcc


@<TRIPOS>ATOM
      1 C25        -4.6540    2.7640   -0.1900 c3        1 5ZA     -0.099100
      2 C23        -3.2880    2.1230   -0.3330 c3        1 5ZA      0.097100
      3 O24        -2.3600    3.1570   -0.6430 oh        1 5ZA     -0.625800
      4 C22        -2.8930    1.3980    0.9880 c3        1 5ZA      0.090200
      5 N26        -2.4140    2.2590    2.0530 n3        1 5ZA     -0.882800
      6 C14        -1.8610    0.3340    0.6370 cc        1 5ZA      0.499900
      7 N13        -0.5830    0.6000    0.3410 nd        1 5ZA     -0.669300
      8 C12         0.0340   -0.6500    0.0420 cd        1 5ZA      0.013400
      9 C11         1.3130   -0.9170   -0.2920 ce        1 5ZA     -0.041000
     10 C7          2.3580    0.0510   -0.4270 cc        1 5ZA     -0.094200
     11 C8          2.1860    1.3860   -0.8160 cd        1 5ZA     -0.065100
     12 N9          3.4230    2.0220   -0.9050 na        1 5ZA     -0.197400
     13 C6          4.4200    1.1100   -0.5510 ca        1 5ZA     -0.018200
     14 C5          5.8110    1.2850   -0.4760 ca        1 5ZA     -0.198000
     15 C4          6.5670    0.1980   -0.0700 ca        1 5ZA     -0.081000
     16 C3          5.9830   -1.0270    0.2700 ca        1 5ZA     -0.240000
     17 C2          4.5900   -1.2310    0.1960 ca        1 5ZA      0.193600
     18 N10         4.0360   -2.4790    0.4860 nh        1 5ZA     -0.819200
     19 C1          3.7870   -0.1490   -0.2370 ca        1 5ZA     -0.126800
     20 C16        -1.0270   -1.7370    0.1820 c         1 5ZA      0.669700
     21 O17        -0.8980   -2.9580    0.0340 o         1 5ZA     -0.609500
     22 N15        -2.1920   -1.0460    0.6050 n         1 5ZA     -0.372300
     23 C18        -3.5200   -1.5950    0.5990 c3        1 5ZA     -0.043000
     24 C19        -4.5500   -0.8350   -0.2910 c         1 5ZA      0.894600
     25 O21        -4.3080   -0.7120   -1.5200 o         1 5ZA     -0.824800
     26 H251       -4.8970    3.3400   -1.1140 hc        1 5ZA      0.050033
     27 H252       -5.4100    1.9470   -0.0510 hc        1 5ZA      0.050033
     28 H253       -4.6840    3.4620    0.6790 hc        1 5ZA      0.050033
     29 H23        -3.3260    1.3580   -1.1660 h1        1 5ZA      0.104700
     30 H24        -1.5340    2.7220   -0.8840 ho        1 5ZA      0.404000
     31 H22        -3.8320    0.8770    1.3650 h1        1 5ZA      0.131700
     32 H261       -1.5880    2.7470    1.7570 hn        1 5ZA      0.346800
     33 H262       -3.1240    2.9410    2.2470 hn        1 5ZA      0.346800
     34 H11         1.5660   -1.9710   -0.5140 ha        1 5ZA      0.145000
     35 H8          1.2600    1.9220   -1.0400 h4        1 5ZA      0.190000
     36 HN9         3.5740    2.9660   -1.1370 hn        1 5ZA      0.294700
     37 H5          6.2770    2.2460   -0.7260 ha        1 5ZA      0.124000
     38 H4          7.6610    0.2970   -0.0010 ha        1 5ZA      0.117000
     39 H3          6.6380   -1.8470    0.5980 ha        1 5ZA      0.122000
     40 H101        4.5940   -3.0450    1.0840 hn        1 5ZA      0.394800
     41 H102        3.0740   -2.4560    0.7470 hn        1 5ZA      0.394800
     42 H181       -3.4530   -2.6540    0.2250 h1        1 5ZA      0.054700
     43 H182       -3.8980   -1.6020    1.6600 h1        1 5ZA      0.054700
     44 OXT        -5.5690   -0.3800    0.2990 o         1 5ZA     -0.824800
@<TRIPOS>BOND
     1    1    2 1   
     2    1   26 1   
     3    1   27 1   
     4    1   28 1   
     5    2    3 1   
     6    2    4 1   
     7    2   29 1   
     8    3   30 1   
     9    4    5 1   
    10    4    6 1   
    11    4   31 1   
    12    5   32 1   
    13    5   33 1   
    14    6    7 2   
    15    6   22 1   
    16    7    8 1   
    17    8    9 2   
    18    8   20 1   
    19    9   10 1   
    20    9   34 1   
    21   10   11 2   
    22   10   19 1   
    23   11   12 1   
    24   11   35 1   
    25   12   13 1   
    26   12   36 1   
    27   13   14 ar  
    28   13   19 ar  
    29   14   15 ar  
    30   14   37 1   
    31   15   16 ar  
    32   15   38 1   
    33   16   17 ar  
    34   16   39 1   
    35   17   18 1   
    36   17   19 ar  
    37   18   40 1   
    38   18   41 1   
    39   20   21 2   
    40   20   22 1   
    41   22   23 1   
    42   23   24 1   
    43   23   42 1   
    44   23   43 1   
    45   24   25 1   
    46   24   44 1   
@<TRIPOS>SUBSTRUCTURE
     1 5ZA         1 TEMP              0 ****  ****    0 ROOT
