@<TRIPOS>MOLECULE
5ZA
   44    39     1     0     0
SMALL
bcc


@<TRIPOS>ATOM
      1 C25        -4.9490   -2.8610   -0.3550 c3        1 5ZA     -0.214000
      2 C23        -3.7300   -2.4140   -1.0960 c3        1 5ZA      0.036000
      3 O24        -4.0570   -2.2410   -2.5000 oh        1 5ZA     -0.366000
      4 C22        -3.2590   -1.1270   -0.5330 c3        1 5ZA      0.003000
      5 N26        -3.9690    0.0010   -1.2050 n3        1 5ZA     -0.338000
      6 C14        -1.8060   -0.9850   -0.7510 c2        1 5ZA      0.071000
      7 N13        -0.9590   -1.2910    0.2320 n1        1 5ZA     -0.211000
      8 C12         0.1920   -0.5850    0.1980 c1        1 5ZA     -0.114000
      9 C11         1.2570   -0.6660    1.0690 c1        1 5ZA     -0.020000
     10 C7          2.5300    0.2590    0.8550 c1        1 5ZA     -0.136000
     11 C8          3.3510    0.0600   -0.2480 c1        1 5ZA     -0.018000
     12 N9          4.4920    0.7790   -0.0560 n2        1 5ZA     -0.215000
     13 C6          4.3940    1.4230    1.1500 c1        1 5ZA      0.024000
     14 C5          5.2430    2.2950    1.7950 c1        1 5ZA     -0.140000
     15 C4          4.8760    2.8490    3.0090 c1        1 5ZA     -0.140000
     16 C3          3.6550    2.5240    3.5750 c1        1 5ZA     -0.234000
     17 C2          2.8080    1.6540    2.9310 c1        1 5ZA      0.110000
     18 N10         1.8410    1.4040    4.0070 n2        1 5ZA     -0.336000
     19 C1          3.1790    1.0990    1.7120 c2        1 5ZA     -0.113000
     20 C16         0.0410    0.3510   -1.0600 c2        1 5ZA      0.313000
     21 O17         0.8590    1.1820   -1.4910 o         1 5ZA     -0.322000
     22 N15        -1.3250    0.0200   -1.6200 n         1 5ZA     -0.264000
     23 C18        -1.7660    0.2570   -2.9940 c3        1 5ZA     -0.121000
     24 C19        -0.6020    0.0620   -3.9240 c2        1 5ZA      0.315000
     25 O21         0.0930   -1.0270   -3.8620 o         1 5ZA     -0.559500
     26 H251       -4.8220   -2.7070    0.6190 hc        1 5ZA      0.074333
     27 H252       -5.7130   -2.3600   -0.6620 hc        1 5ZA      0.074333
     28 H253       -5.0900   -3.7680   -0.5100 hc        1 5ZA      0.074333
     29 H23        -3.0290   -3.0830   -1.0050 h1        1 5ZA      0.136000
     30 H24        -4.3550   -3.0380   -2.8450 ho        1 5ZA      0.254000
     31 H22        -3.4510   -1.1060    0.4540 h1        1 5ZA      0.115000
     32 H261       -4.8870   -0.1300   -1.1480 hn        1 5ZA      0.154500
     33 H262       -3.7400    0.8050   -0.7890 hn        1 5ZA      0.154500
     34 H11         1.2290   -1.2860    1.8120 ha        1 5ZA      0.125000
     35 H8          3.2000   -0.5140   -0.9160 DU        1 5ZA      0.227500
     36 HN9         5.2260    0.8250   -0.6530 DU        1 5ZA      0.227500
     37 H5          6.0360    2.5790    1.3680 ha        1 5ZA      0.121000
     38 H4          5.4770    3.4650    3.4660 ha        1 5ZA      0.121000
     39 H3          3.3880    2.9230    4.4510 ha        1 5ZA      0.121000
     40 H101        1.8240    1.9700    4.7670 hn        1 5ZA      0.190500
     41 H102        1.2990    0.6510    3.9790 hn        1 5ZA      0.190500
     42 H181       -2.4810   -0.3780   -3.2250 h1        1 5ZA      0.095500
     43 H182       -2.1100    1.1920   -3.0800 h1        1 5ZA      0.095500
     44 OXT        -0.3910    0.9370   -4.9240 o         1 5ZA     -0.559500
@<TRIPOS>BOND
     1    1    2 1   
     2    1   26 1   
     3    1   27 1   
     4    1   28 1   
     5    2    3 1   
     6    2    4 1   
     7    2   29 1   
     8    3   30 1   
     9    4    5 1   
    10    4    6 1   
    11    4   31 1   
    12    5   32 1   
    13    5   33 1   
    14    6    7 1   
    15    6   22 1   
    16    8    9 1   
    17    8   20 1   
    18    9   34 1   
    19   10   11 1   
    20   10   19 1   
    21   11   12 1   
    22   12   13 1   
    23   13   19 1   
    24   14   15 1   
    25   14   37 1   
    26   15   38 1   
    27   16   17 1   
    28   16   39 1   
    29   17   19 1   
    30   18   40 1   
    31   18   41 1   
    32   20   21 1   
    33   20   22 1   
    34   22   23 1   
    35   23   24 1   
    36   23   42 1   
    37   23   43 1   
    38   24   25 1   
    39   24   44 1   
@<TRIPOS>SUBSTRUCTURE
     1 5ZA         1 TEMP              0 ****  ****    0 ROOT
