@<TRIPOS>MOLECULE
5ZE
   18    18     1     0     0
SMALL
bcc


@<TRIPOS>ATOM
      1 C1          0.0040   -0.0660    0.0060 c3        1 5ZE     -0.155400
      2 C2          1.4990   -0.0110   -0.0180 ca        1 5ZE      0.484600
      3 C3          2.2050   -0.0550    1.2020 ca        1 5ZE     -0.426600
      4 C4          3.6140   -0.0100    1.1480 ca        1 5ZE      0.484600
      5 C5          4.3910   -0.0630    2.4250 c3        1 5ZE     -0.155400
      6 N6          4.2870    0.0830   -0.0200 nb        1 5ZE     -0.758000
      7 C7          3.5150    0.1490   -1.1730 ca        1 5ZE      0.869900
      8 N8          4.1830    0.3630   -2.3850 nh        1 5ZE     -0.925500
      9 N9          2.1270    0.0810   -1.2110 nb        1 5ZE     -0.758000
     10 H1         -0.3530   -0.3410    1.0280 hc        1 5ZE      0.057033
     11 H2         -0.3820   -0.8190   -0.7250 hc        1 5ZE      0.057033
     12 H3         -0.4140    0.9350   -0.2660 hc        1 5ZE      0.057033
     13 H4          1.6780   -0.1280    2.1590 ha        1 5ZE      0.150000
     14 H5          3.7180   -0.3390    3.2720 hc        1 5ZE      0.057033
     15 H6          5.2170   -0.8140    2.3620 hc        1 5ZE      0.057033
     16 H7          4.8430    0.9390    2.6340 hc        1 5ZE      0.057033
     17 H8          5.1530    0.1460   -2.3980 hn        1 5ZE      0.423800
     18 H9          3.6760    0.1450   -3.2120 hn        1 5ZE      0.423800
@<TRIPOS>BOND
     1    1    2 1   
     2    1   10 1   
     3    1   11 1   
     4    1   12 1   
     5    2    3 ar  
     6    2    9 ar  
     7    3    4 ar  
     8    3   13 1   
     9    4    5 1   
    10    4    6 ar  
    11    5   14 1   
    12    5   15 1   
    13    5   16 1   
    14    6    7 ar  
    15    7    8 1   
    16    7    9 ar  
    17    8   17 1   
    18    8   18 1   
@<TRIPOS>SUBSTRUCTURE
     1 5ZE         1 TEMP              0 ****  ****    0 ROOT
