@<TRIPOS>MOLECULE
5ZE
   19    19     1     0     0
SMALL
bcc


@<TRIPOS>ATOM
      1 C1         -0.0150   -0.0270    0.0130 c3        1 5ZE     -0.172400
      2 C2          1.4770   -0.0060   -0.0070 ca        1 5ZE      0.495600
      3 C3          2.1980   -0.0570    1.2090 ca        1 5ZE     -0.317600
      4 C4          3.6100   -0.0210    1.1710 ca        1 5ZE      0.495600
      5 C5          4.3940   -0.0670    2.4400 c3        1 5ZE     -0.172400
      6 N6          4.2790    0.0590   -0.0140 nb        1 5ZE     -0.683000
      7 C7          3.4870    0.1020   -1.1260 ca        1 5ZE      0.702900
      8 N8          4.2080    0.1870   -2.4350 n4        1 5ZE     -0.816300
      9 N9          2.1210    0.0740   -1.2030 nb        1 5ZE     -0.683000
     10 H1         -0.4300   -0.6600   -0.8120 hc        1 5ZE      0.086033
     11 H2         -0.3770   -0.4280    0.9920 hc        1 5ZE      0.086033
     12 H3         -0.4050    1.0160   -0.1160 hc        1 5ZE      0.086033
     13 H4          1.6660   -0.1230    2.1710 ha        1 5ZE      0.193000
     14 H5          4.9400    0.8990    2.5920 hc        1 5ZE      0.086033
     15 H6          5.1500   -0.8930    2.4110 hc        1 5ZE      0.086033
     16 H7          3.7100   -0.2350    3.3080 hc        1 5ZE      0.086033
     17 H8          3.9820   -0.6440   -2.9950 hn        1 5ZE      0.480467
     18 H9          5.2230    0.2320   -2.2750 hn        1 5ZE      0.480467
     19 H83         3.8980    1.0300   -2.9340 hn        1 5ZE      0.480467
@<TRIPOS>BOND
     1    1    2 1   
     2    1   10 1   
     3    1   11 1   
     4    1   12 1   
     5    2    3 ar  
     6    2    9 ar  
     7    3    4 ar  
     8    3   13 1   
     9    4    5 1   
    10    4    6 ar  
    11    5   14 1   
    12    5   15 1   
    13    5   16 1   
    14    6    7 ar  
    15    7    8 1   
    16    7    9 ar  
    17    8   17 1   
    18    8   18 1   
    19    8   19 1   
@<TRIPOS>SUBSTRUCTURE
     1 5ZE         1 TEMP              0 ****  ****    0 ROOT
