@<TRIPOS>MOLECULE
5ZE
   18    18     1     0     0
SMALL
bcc


@<TRIPOS>ATOM
      1 C1          0.0040   -0.0760    0.0090 c3        1 5ZE     -0.155400
      2 C2          1.4990   -0.0160   -0.0170 ca        1 5ZE      0.484600
      3 C3          2.2060   -0.0510    1.2030 ca        1 5ZE     -0.426600
      4 C4          3.6150   -0.0010    1.1470 ca        1 5ZE      0.484600
      5 C5          4.3930   -0.0460    2.4240 c3        1 5ZE     -0.155400
      6 N6          4.2870    0.0880   -0.0210 nb        1 5ZE     -0.758000
      7 C7          3.5130    0.1470   -1.1740 ca        1 5ZE      0.869900
      8 N8          4.1790    0.3580   -2.3880 nv        1 5ZE     -0.925500
      9 N9          2.1250    0.0730   -1.2100 nb        1 5ZE     -0.758000
     10 H1         -0.3790   -0.8430   -0.7100 hc        1 5ZE      0.057033
     11 H2         -0.3510   -0.3360    1.0350 hc        1 5ZE      0.057033
     12 H3         -0.4190    0.9180   -0.2790 hc        1 5ZE      0.057033
     13 H4          1.6800   -0.1210    2.1610 ha        1 5ZE      0.150000
     14 H5          4.8510    0.9550    2.6230 hc        1 5ZE      0.057033
     15 H6          5.2150   -0.8020    2.3660 hc        1 5ZE      0.057033
     16 H7          3.7200   -0.3100    3.2750 hc        1 5ZE      0.057033
     17 H8          5.1500    0.1440   -2.4010 hn        1 5ZE      0.423800
     18 H9          3.6720    0.1340   -3.2130 hn        1 5ZE      0.423800
@<TRIPOS>BOND
     1    1    2 1   
     2    1   10 1   
     3    1   11 1   
     4    1   12 1   
     5    2    3 ar  
     6    2    9 ar  
     7    3    4 ar  
     8    3   13 1   
     9    4    5 1   
    10    4    6 ar  
    11    5   14 1   
    12    5   15 1   
    13    5   16 1   
    14    6    7 ar  
    15    7    8 1   
    16    7    9 ar  
    17    8   17 1   
    18    8   18 1   
@<TRIPOS>SUBSTRUCTURE
     1 5ZE         1 TEMP              0 ****  ****    0 ROOT
