@<TRIPOS>MOLECULE
5ZM
   33    35     1     0     0
SMALL
bcc


@<TRIPOS>ATOM
      1 C1         -0.1020   -0.2830    0.1660 c3        1 5ZM     -0.080600
      2 C2          1.3880   -0.0320    0.0600 c3        1 5ZM     -0.059700
      3 C3          2.0590    0.0080    1.4130 ca        1 5ZM     -0.143300
      4 C4          1.8910    0.8700    2.4730 ca        1 5ZM     -0.062000
      5 C5          2.6540    0.6790    3.6440 cp        1 5ZM     -0.073000
      6 C6          3.5690   -0.3760    3.7160 ca        1 5ZM     -0.081000
      7 C7          3.7590   -1.2620    2.6500 ca        1 5ZM     -0.170000
      8 C8          3.0020   -1.0710    1.4960 ca        1 5ZM      0.067600
      9 N9          3.0000   -1.8100    0.3040 n         1 5ZM     -0.481100
     10 C10         2.0720   -1.2640   -0.6030 c         1 5ZM      0.701500
     11 O11         1.8670   -1.7190   -1.7320 o         1 5ZM     -0.597500
     12 C12         2.4830    1.5860    4.7770 cp        1 5ZM     -0.045000
     13 C13         2.4610    1.0880    6.0880 ca        1 5ZM     -0.098000
     14 C14         2.2980    1.9430    7.1720 ca        1 5ZM     -0.164000
     15 C15         2.1560    3.3250    6.9500 ca        1 5ZM      0.124900
     16 C16         2.1780    3.8360    5.6390 ca        1 5ZM     -0.164000
     17 C17         2.3400    2.9650    4.5670 ca        1 5ZM     -0.098000
     18 F18         1.9980    4.1660    8.0000 f         1 5ZM     -0.139900
     19 C19         1.6770    1.2060   -0.7620 c3        1 5ZM     -0.080600
     20 H11C       -0.5320   -0.4390   -0.8530 hc        1 5ZM      0.050367
     21 H12C       -0.5990    0.5970    0.6420 hc        1 5ZM      0.050367
     22 H13C       -0.3080   -1.1880    0.7860 hc        1 5ZM      0.050367
     23 H191        2.7760    1.3950   -0.8200 hc        1 5ZM      0.050367
     24 H192        1.1860    2.0930   -0.2940 hc        1 5ZM      0.050367
     25 H193        1.2800    1.0730   -1.7980 hc        1 5ZM      0.050367
     26 H4          1.1640    1.6950    2.4150 ha        1 5ZM      0.142000
     27 H6          4.1660   -0.5130    4.6320 ha        1 5ZM      0.138000
     28 H7          4.4870   -2.0800    2.7300 ha        1 5ZM      0.142000
     29 H9          3.5700   -2.5970    0.1350 hn        1 5ZM      0.340500
     30 H13         2.5650    0.0060    6.2620 ha        1 5ZM      0.140000
     31 H17         2.3640    3.3660    3.5420 ha        1 5ZM      0.140000
     32 H14         2.2780    1.5520    8.1990 ha        1 5ZM      0.150000
     33 H16         2.0690    4.9170    5.4740 ha        1 5ZM      0.150000
@<TRIPOS>BOND
     1    1    2 1   
     2    1   20 1   
     3    1   21 1   
     4    1   22 1   
     5    2    3 1   
     6    2   10 1   
     7    2   19 1   
     8    3    4 ar  
     9    3    8 ar  
    10    4    5 ar  
    11    4   26 1   
    12    5    6 ar  
    13    5   12 1   
    14    6    7 ar  
    15    6   27 1   
    16    7    8 ar  
    17    7   28 1   
    18    8    9 1   
    19    9   10 1   
    20    9   29 1   
    21   10   11 2   
    22   12   13 ar  
    23   12   17 ar  
    24   13   14 ar  
    25   13   30 1   
    26   14   15 ar  
    27   14   32 1   
    28   15   16 ar  
    29   15   18 1   
    30   16   17 ar  
    31   16   33 1   
    32   17   31 1   
    33   19   23 1   
    34   19   24 1   
    35   19   25 1   
@<TRIPOS>SUBSTRUCTURE
     1 5ZM         1 TEMP              0 ****  ****    0 ROOT
