@<TRIPOS>MOLECULE
5ZM
   33    35     1     0     0
SMALL
bcc


@<TRIPOS>ATOM
      1 C1         -0.0900   -0.2590    0.1450 c3        1 5ZM     -0.080600
      2 C2          1.4040   -0.0240    0.0540 c3        1 5ZM     -0.059700
      3 C3          2.0630    0.0090    1.4120 ca        1 5ZM     -0.143300
      4 C4          1.8940    0.8720    2.4710 ca        1 5ZM     -0.062000
      5 C5          2.6440    0.6730    3.6490 cp        1 5ZM     -0.073000
      6 C6          3.5480   -0.3920    3.7290 ca        1 5ZM     -0.081000
      7 C7          3.7370   -1.2790    2.6650 ca        1 5ZM     -0.170000
      8 C8          2.9940   -1.0800    1.5030 ca        1 5ZM      0.067600
      9 N9          2.9950   -1.8180    0.3110 ns        1 5ZM     -0.481100
     10 C10         2.0820   -1.2620   -0.6040 c         1 5ZM      0.701500
     11 O11         1.8810   -1.7140   -1.7350 o         1 5ZM     -0.597500
     12 C12         2.4720    1.5810    4.7810 cp        1 5ZM     -0.045000
     13 C13         2.4320    1.0830    6.0910 ca        1 5ZM     -0.098000
     14 C14         2.2690    1.9390    7.1740 ca        1 5ZM     -0.164000
     15 C15         2.1430    3.3230    6.9510 ca        1 5ZM      0.124900
     16 C16         2.1830    3.8340    5.6410 ca        1 5ZM     -0.164000
     17 C17         2.3460    2.9620    4.5710 ca        1 5ZM     -0.098000
     18 F18         1.9850    4.1650    8.0000 f         1 5ZM     -0.139900
     19 C19         1.7140    1.2120   -0.7660 c3        1 5ZM     -0.080600
     20 H11C       -0.5820    0.6260    0.6170 hc        1 5ZM      0.050367
     21 H12C       -0.3100   -1.1620    0.7630 hc        1 5ZM      0.050367
     22 H13C       -0.5120   -0.4100   -0.8780 hc        1 5ZM      0.050367
     23 H191        1.3250    1.0830   -1.8050 hc        1 5ZM      0.050367
     24 H192        1.2280    2.1040   -0.3010 hc        1 5ZM      0.050367
     25 H193        2.8150    1.3890   -0.8130 hc        1 5ZM      0.050367
     26 H4          1.1770    1.7050    2.4070 ha        1 5ZM      0.142000
     27 H6          4.1340   -0.5360    4.6500 ha        1 5ZM      0.138000
     28 H7          4.4560   -2.1050    2.7510 ha        1 5ZM      0.142000
     29 H9          3.5580   -2.6110    0.1470 hn        1 5ZM      0.340500
     30 H13         2.5230   -0.0000    6.2660 ha        1 5ZM      0.140000
     31 H17         2.3840    3.3630    3.5460 ha        1 5ZM      0.140000
     32 H14         2.2340    1.5480    8.2010 ha        1 5ZM      0.150000
     33 H16         2.0870    4.9160    5.4760 ha        1 5ZM      0.150000
@<TRIPOS>BOND
     1    1    2 1   
     2    1   20 1   
     3    1   21 1   
     4    1   22 1   
     5    2    3 1   
     6    2   10 1   
     7    2   19 1   
     8    3    4 ar  
     9    3    8 ar  
    10    4    5 ar  
    11    4   26 1   
    12    5    6 ar  
    13    5   12 1   
    14    6    7 ar  
    15    6   27 1   
    16    7    8 ar  
    17    7   28 1   
    18    8    9 1   
    19    9   10 1   
    20    9   29 1   
    21   10   11 2   
    22   12   13 ar  
    23   12   17 ar  
    24   13   14 ar  
    25   13   30 1   
    26   14   15 ar  
    27   14   32 1   
    28   15   16 ar  
    29   15   18 1   
    30   16   17 ar  
    31   16   33 1   
    32   17   31 1   
    33   19   23 1   
    34   19   24 1   
    35   19   25 1   
@<TRIPOS>SUBSTRUCTURE
     1 5ZM         1 TEMP              0 ****  ****    0 ROOT
