@<TRIPOS>MOLECULE
200
   22    22     1     0     0
SMALL
bcc


@<TRIPOS>ATOM
      1 N          -2.1140    1.6700   -0.6570 n3        1 200     -0.889800
      2 CA         -2.2240    0.2380   -0.4110 c3        1 200      0.021500
      3 C          -3.6910   -0.2710   -0.1960 c         1 200      0.887600
      4 O          -4.6300    0.5650   -0.3220 o         1 200     -0.839800
      5 OXT        -3.8480   -1.4940    0.0730 o         1 200     -0.839800
      6 CB         -1.3820   -0.2290    0.7830 c3        1 200     -0.037100
      7 CG          0.0800   -0.1900    0.5130 ca        1 200     -0.030300
      8 CD1         0.7650   -1.3620    0.1660 ca        1 200     -0.120500
      9 CD2         0.7960    1.0100    0.6100 ca        1 200     -0.120500
     10 CE1         2.1380   -1.3430   -0.0700 ca        1 200     -0.133000
     11 CE2         2.1690    1.0430    0.3750 ca        1 200     -0.133000
     12 CZ          2.8360   -0.1380    0.0400 ca        1 200     -0.003600
     13 CL          4.5220   -0.1080   -0.2400 cl        1 200     -0.144400
     14 H          -2.4540    2.1550    0.1560 hn        1 200      0.331300
     15 H2         -2.7560    1.8920   -1.4010 hn        1 200      0.331300
     16 HA         -1.8410   -0.2840   -1.3360 h1        1 200      0.046700
     17 HB2        -1.6130    0.4020    1.6820 hc        1 200      0.061700
     18 HB3        -1.7070   -1.2810    1.0150 hc        1 200      0.061700
     19 HD1         0.2080   -2.3070    0.0730 ha        1 200      0.145000
     20 HD2         0.2590    1.9400    0.8550 ha        1 200      0.145000
     21 HE1         2.6650   -2.2680   -0.3430 ha        1 200      0.130000
     22 HE2         2.7200    1.9910    0.4490 ha        1 200      0.130000
@<TRIPOS>BOND
     1    1    2 1   
     2    1   14 1   
     3    1   15 1   
     4    2    3 1   
     5    2    6 1   
     6    2   16 1   
     7    3    4 1   
     8    3    5 1   
     9    6    7 1   
    10    6   17 1   
    11    6   18 1   
    12    7    8 ar  
    13    7    9 ar  
    14    8   10 ar  
    15    8   19 1   
    16    9   11 ar  
    17    9   20 1   
    18   10   12 ar  
    19   10   21 1   
    20   11   12 ar  
    21   11   22 1   
    22   12   13 1   
@<TRIPOS>SUBSTRUCTURE
     1 200         1 TEMP              0 ****  ****    0 ROOT
