@<TRIPOS>MOLECULE
201
   38    29     1     0     0
SMALL
bcc


@<TRIPOS>ATOM
      1 C4         -3.8050    0.8750    0.9840 c1        1 201     -0.124000
      2 C2         -2.4200    0.8310    1.0090 c1        1 201     -0.107000
      3 C3         -1.7340    0.0410    0.0990 c1        1 201     -0.043500
      4 C1         -2.4340   -0.7050   -0.8360 c1        1 201     -0.079000
      5 C7         -3.8190   -0.6620   -0.8610 c1        1 201     -0.158000
      6 C6         -4.5050    0.1280    0.0490 c1        1 201     -0.069000
      7 C23        -0.3480    0.0310    0.0970 c1        1 201     -0.043500
      8 C8          0.3510    0.9730   -0.6410 c1        1 201     -0.107000
      9 C12         1.7370    0.9860   -0.6130 c1        1 201     -0.107000
     10 C16         2.4230    0.0570    0.1520 c1        1 201     -0.043500
     11 C13         1.7250   -0.8850    0.8900 c1        1 201     -0.131000
     12 C9          0.3390   -0.8980    0.8630 c1        1 201     -0.131000
     13 C17         3.8100    0.0570    0.1630 c1        1 201     -0.043500
     14 C19         4.5080   -0.7640   -0.7090 c1        1 201     -0.131000
     15 C22         5.8920   -0.7030   -0.7600 c1        1 201     -0.131000
     16 C21         6.5770    0.1790    0.0600 c1        1 201     -0.131000
     17 C20         5.8790    1.0000    0.9320 c1        1 201     -0.131000
     18 C18         4.4950    0.9390    0.9830 c1        1 201     -0.107000
     19 C5         -4.5550    1.6780    2.0240 c2        1 201      0.360000
     20 C11        -4.5850   -1.5230   -1.8420 c2        1 201      0.352000
     21 O3         -3.9850   -2.2520   -2.6070 o         1 201     -0.414000
     22 N1         -6.0030   -1.5020   -1.8480 n         1 201     -0.438000
     23 O1         -4.7940    2.8980    1.8250 o         1 201     -0.560000
     24 O2         -4.9490    1.1230    3.0830 o         1 201     -0.560000
     25 H2         -1.9270    1.3570    1.6670 ha        1 201      0.143750
     26 H1         -1.9510   -1.2610   -1.4770 ha        1 201      0.138000
     27 H6         -5.4800    0.1590    0.0310 ha        1 201      0.155000
     28 H8         -0.1330    1.6370   -1.1680 ha        1 201      0.143750
     29 H12         2.2290    1.6490   -1.1330 ha        1 201      0.143750
     30 H13         2.2080   -1.5400    1.4300 ha        1 201      0.127833
     31 H9         -0.1530   -1.5720    1.3710 ha        1 201      0.127833
     32 H19         4.0250   -1.3850   -1.2870 ha        1 201      0.127833
     33 H22         6.3830   -1.2810   -1.3740 ha        1 201      0.127833
     34 H21         7.5520    0.2220    0.0240 ha        1 201      0.127833
     35 H20         6.3620    1.6210    1.5100 ha        1 201      0.127833
     36 H18         4.0050    1.5000    1.6140 ha        1 201      0.143750
     37 HN11       -6.4550   -1.3340   -2.6250 hn        1 201      0.220500
     38 HN12       -6.4660   -1.6740   -1.0790 hn        1 201      0.220500
@<TRIPOS>BOND
     1    1    6 1   
     2    1   19 1   
     3    2    3 1   
     4    2   25 1   
     5    4    5 1   
     6    4   26 1   
     7    5   20 1   
     8    6   27 1   
     9    7    8 1   
    10    8   28 1   
    11    9   10 1   
    12    9   29 1   
    13   11   12 1   
    14   11   30 1   
    15   12   31 1   
    16   13   18 1   
    17   14   15 1   
    18   14   32 1   
    19   15   33 1   
    20   16   17 1   
    21   16   34 1   
    22   17   35 1   
    23   18   36 1   
    24   19   23 1   
    25   19   24 1   
    26   20   21 1   
    27   20   22 1   
    28   22   37 1   
    29   22   38 1   
@<TRIPOS>SUBSTRUCTURE
     1 201         1 TEMP              0 ****  ****    0 ROOT
