@<TRIPOS>MOLECULE
201
   38    40     1     0     0
SMALL
bcc


@<TRIPOS>ATOM
      1 C4          3.3380   -1.2120   -0.0880 ca        1 201     -0.143600
      2 C2          1.9430   -1.2080   -0.0700 ca        1 201     -0.062000
      3 C3          1.2310    0.0020   -0.0620 cp        1 201     -0.100000
      4 C1          1.9370    1.2120   -0.0670 ca        1 201     -0.079000
      5 C7          3.3370    1.2120   -0.0780 ca        1 201     -0.178600
      6 C6          4.0340   -0.0010   -0.1000 ca        1 201     -0.069000
      7 C23        -0.2290    0.0030   -0.0440 cp        1 201      0.007000
      8 C8         -0.9340   -0.9790    0.6690 ca        1 201     -0.129000
      9 C12        -2.3250   -0.9810    0.6870 ca        1 201     -0.119000
     10 C16        -3.0500    0.0010   -0.0040 cp        1 201     -0.068000
     11 C13        -2.3470    0.9820   -0.7180 ca        1 201     -0.119000
     12 C9         -0.9560    0.9820   -0.7400 ca        1 201     -0.129000
     13 C17        -4.5100   -0.0000    0.0170 cp        1 201     -0.014000
     14 C19        -5.2230    1.2050    0.1080 ca        1 201     -0.124000
     15 C22        -6.6150    1.2010    0.1290 ca        1 201     -0.133500
     16 C21        -7.3160   -0.0030    0.0580 ca        1 201     -0.141000
     17 C20        -6.6150   -1.2060   -0.0340 ca        1 201     -0.133500
     18 C18        -5.2230   -1.2070   -0.0540 ca        1 201     -0.124000
     19 C5          4.1090   -2.5270   -0.0810 c         1 201      0.911200
     20 C11         4.0300    2.5250   -0.0740 c         1 201      0.679700
     21 O3          3.4960    3.5750   -0.5020 o         1 201     -0.653100
     22 N1          5.2980    2.6000    0.4570 n         1 201     -0.677000
     23 O1          5.3700   -2.4630   -0.0860 o         1 201     -0.825300
     24 O2          3.4430   -3.5990   -0.0630 o         1 201     -0.825300
     25 H2          1.4210   -2.1800   -0.0720 ha        1 201      0.160000
     26 H1          1.4020    2.1750   -0.0590 ha        1 201      0.137000
     27 H6          5.1350   -0.0560   -0.1390 ha        1 201      0.155000
     28 H8         -0.3770   -1.7530    1.2200 ha        1 201      0.144500
     29 H12        -2.8610   -1.7550    1.2560 ha        1 201      0.125500
     30 H13        -2.9010    1.7520   -1.2740 ha        1 201      0.125500
     31 H9         -0.4180    1.7510   -1.3150 ha        1 201      0.144500
     32 H19        -4.6730    2.1570    0.1700 ha        1 201      0.136500
     33 H22        -7.1630    2.1520    0.2030 ha        1 201      0.124500
     34 H21        -8.4140   -0.0040    0.0740 ha        1 201      0.122000
     35 H20        -7.1630   -2.1570   -0.0920 ha        1 201      0.124500
     36 H18        -4.6740   -2.1580   -0.1330 ha        1 201      0.136500
     37 HN11        5.7950    3.4520    0.4070 hn        1 201      0.307000
     38 HN12        5.7740    1.7850    0.7490 hn        1 201      0.307000
@<TRIPOS>BOND
     1    1    2 ar  
     2    1    6 ar  
     3    1   19 1   
     4    2    3 ar  
     5    2   25 1   
     6    3    4 ar  
     7    3    7 1   
     8    4    5 ar  
     9    4   26 1   
    10    5    6 ar  
    11    5   20 1   
    12    6   27 1   
    13    7    8 ar  
    14    7   12 ar  
    15    8    9 ar  
    16    8   28 1   
    17    9   10 ar  
    18    9   29 1   
    19   10   11 ar  
    20   10   13 1   
    21   11   12 ar  
    22   11   30 1   
    23   12   31 1   
    24   13   14 ar  
    25   13   18 ar  
    26   14   15 ar  
    27   14   32 1   
    28   15   16 ar  
    29   15   33 1   
    30   16   17 ar  
    31   16   34 1   
    32   17   18 ar  
    33   17   35 1   
    34   18   36 1   
    35   19   23 1   
    36   19   24 1   
    37   20   21 2   
    38   20   22 1   
    39   22   37 1   
    40   22   38 1   
@<TRIPOS>SUBSTRUCTURE
     1 201         1 TEMP              0 ****  ****    0 ROOT
