@<TRIPOS>MOLECULE
201
   39    41     1     0     0
SMALL
bcc


@<TRIPOS>ATOM
      1 C4          0.0080    0.0090    0.0170 ca        1 201     -0.144600
      2 C2          1.4050   -0.0030    0.0150 ca        1 201      0.000000
      3 C3          2.1190   -0.0170    1.2280 cp        1 201     -0.061000
      4 C1          1.4210   -0.0240    2.4390 ca        1 201     -0.048000
      5 C7          0.0110   -0.0180    2.4400 ca        1 201     -0.242600
      6 C6         -0.6870   -0.0010    1.2200 ca        1 201     -0.081000
      7 C23         3.5810   -0.0170    1.2240 cp        1 201     -0.049000
      8 C8          4.2840    0.7450    0.2810 ca        1 201     -0.114500
      9 C12         5.6760    0.7460    0.2720 ca        1 201     -0.119000
     10 C16         6.3960   -0.0140    1.2050 cp        1 201     -0.026000
     11 C13         5.6910   -0.7770    2.1470 ca        1 201     -0.119000
     12 C9          4.2990   -0.7790    2.1560 ca        1 201     -0.114500
     13 C17         7.8570   -0.0130    1.1940 cp        1 201     -0.043000
     14 C19         8.5760    0.0130    2.3970 ca        1 201     -0.116500
     15 C22         9.9700    0.0160    2.3840 ca        1 201     -0.130500
     16 C21        10.6590   -0.0120    1.1720 ca        1 201     -0.125000
     17 C20         9.9500   -0.0400   -0.0290 ca        1 201     -0.130500
     18 C18         8.5570   -0.0390   -0.0210 ca        1 201     -0.116500
     19 C5         -0.8150    0.0380   -1.2840 c         1 201      0.920200
     20 C11        -0.6620   -0.0240    3.7160 c         1 201      0.590700
     21 O3         -0.2440   -0.0530    4.8670 o         1 201     -0.476100
     22 N1         -2.1940    0.0130    3.6440 n4        1 201     -0.768400
     23 O1         -2.0660    0.0320   -1.1310 o         1 201     -0.793300
     24 O2         -0.1780    0.0700   -2.3620 o         1 201     -0.793300
     25 H2          1.9260   -0.0050   -0.9600 ha        1 201      0.187000
     26 H1          1.9660   -0.0280    3.3970 ha        1 201      0.150000
     27 H6         -1.7880    0.0030    1.1280 ha        1 201      0.156000
     28 H8          3.7320    1.3480   -0.4580 ha        1 201      0.138500
     29 H12         6.2160    1.3530   -0.4710 ha        1 201      0.139500
     30 H13         6.2430   -1.3870    2.8770 ha        1 201      0.139500
     31 H9          3.7610   -1.3950    2.8920 ha        1 201      0.138500
     32 H19         8.0360    0.0410    3.3560 ha        1 201      0.135500
     33 H22        10.5260    0.0400    3.3330 ha        1 201      0.133000
     34 H21        11.7590   -0.0110    1.1630 ha        1 201      0.133000
     35 H20        10.4910   -0.0640   -0.9870 ha        1 201      0.133000
     36 H18         8.0020   -0.0670   -0.9710 ha        1 201      0.135500
     37 HN11       -2.4880    0.8540    3.1390 hn        1 201      0.460800
     38 HN12       -2.5930    0.0160    4.5850 hn        1 201      0.460800
     39 H131       -2.5280   -0.8060    3.1280 hn        1 201      0.460800
@<TRIPOS>BOND
     1    1    2 ar  
     2    1    6 ar  
     3    1   19 1   
     4    2    3 ar  
     5    2   25 1   
     6    3    4 ar  
     7    3    7 1   
     8    4    5 ar  
     9    4   26 1   
    10    5    6 ar  
    11    5   20 1   
    12    6   27 1   
    13    7    8 ar  
    14    7   12 ar  
    15    8    9 ar  
    16    8   28 1   
    17    9   10 ar  
    18    9   29 1   
    19   10   11 ar  
    20   10   13 1   
    21   11   12 ar  
    22   11   30 1   
    23   12   31 1   
    24   13   14 ar  
    25   13   18 ar  
    26   14   15 ar  
    27   14   32 1   
    28   15   16 ar  
    29   15   33 1   
    30   16   17 ar  
    31   16   34 1   
    32   17   18 ar  
    33   17   35 1   
    34   18   36 1   
    35   19   23 1   
    36   19   24 1   
    37   20   21 2   
    38   20   22 1   
    39   22   37 1   
    40   22   38 1   
    41   22   39 1   
@<TRIPOS>SUBSTRUCTURE
     1 201         1 TEMP              0 ****  ****    0 ROOT
