@<TRIPOS>MOLECULE
202
    5     4     1     0     0
SMALL
bcc


@<TRIPOS>ATOM
      1 BR         -0.0440   -0.0410   -0.7680 br        1 202      1.065000
      2 O1          1.6950   -0.0360   -0.0130 oh        1 202     -0.345000
      3 O2         -0.4890    1.5020    0.1010 o         1 202     -0.491000
      4 O3         -0.6430   -1.2380    0.4740 o         1 202     -0.491000
      5 H1          1.5440    0.1010    0.9290 ho        1 202      0.263000
@<TRIPOS>BOND
     1    1    2 1   
     2    1    3 1   
     3    1    4 1   
     4    2    5 1   
@<TRIPOS>SUBSTRUCTURE
     1 202         1 TEMP              0 ****  ****    0 ROOT
