@<TRIPOS>MOLECULE
202
    5     4     1     0     0
SMALL
bcc


@<TRIPOS>ATOM
      1 BR          0.0420    0.7650    0.0030 br        1 202      1.065000
      2 O1          1.7370   -0.0850   -0.0000 oh        1 202     -0.345000
      3 O2         -0.5420   -0.2750    1.3850 o         1 202     -0.491000
      4 O3         -0.5430   -0.2670   -1.3850 o         1 202     -0.491000
      5 H1          1.5300   -1.0260   -0.0020 ho        1 202      0.263000
@<TRIPOS>BOND
     1    1    2 1   
     2    1    3 1   
     3    1    4 1   
     4    2    5 1   
@<TRIPOS>SUBSTRUCTURE
     1 202         1 TEMP              0 ****  ****    0 ROOT
