@<TRIPOS>MOLECULE
202
    5     3     1     0     0
SMALL
bcc


@<TRIPOS>ATOM
      1 BR         -0.3330    0.0780    0.0760 br        1 202      1.065000
      2 O1          1.1650   -0.1320   -0.1280 o         1 202     -0.345000
      3 O2         -1.0630   -0.5360    1.3720 o         1 202     -0.491000
      4 O3         -1.0630    1.3530   -0.5790 o         1 202     -0.491000
      5 H1          1.2950   -0.7640   -0.7400 ho        1 202      0.263000
@<TRIPOS>BOND
     1    1    3 1   
     2    1    4 1   
     3    2    5 1   
@<TRIPOS>SUBSTRUCTURE
     1 202         1 TEMP              0 ****  ****    0 ROOT
