@<TRIPOS>MOLECULE
203
   16    13     1     0     0
SMALL
bcc


@<TRIPOS>ATOM
      1 O19        -2.5010    0.6750    0.5700 o         1 203     -0.327000
      2 C18        -1.2860    0.6750    0.5700 c1        1 203      0.420000
      3 N17        -0.6340    0.6750    1.6990 n2        1 203     -0.824000
      4 C13        -0.4820    0.2460   -0.7540 c2        1 203     -0.268000
      5 C14         0.8870   -0.2810   -0.5950 c1        1 203      0.102000
      6 N15         1.3810   -0.5650    0.8040 n2        1 203     -0.824000
      7 S16         0.3800   -0.4450    1.9430 s6        1 203      2.831000
      8 O20         1.0740   -0.2130    3.1790 o         1 203     -0.909500
      9 O21        -0.3390   -1.6850    2.0350 o         1 203     -0.909500
     10 N10         1.4600   -0.2870   -1.7950 n2        1 203     -0.156000
     11 C11         0.4810    0.0690   -2.7500 c1        1 203     -0.034000
     12 N12        -0.7380    0.2970   -2.0680 n2        1 203     -0.147000
     13 H17        -0.9320    1.1810    2.3970 hn        1 203      0.275000
     14 H15         2.1600   -1.0220    0.9280 hn        1 203      0.275000
     15 H11         0.6200    0.1410   -3.7130 DU        1 203      0.247000
     16 H12        -1.5300    0.5390   -2.4510 DU        1 203      0.247000
@<TRIPOS>BOND
     1    1    2 1   
     2    2    4 1   
     3    3    7 1   
     4    3   13 1   
     5    4    5 1   
     6    4   12 1   
     7    5   10 1   
     8    6    7 1   
     9    6   14 1   
    10    7    8 1   
    11    7    9 1   
    12   10   11 1   
    13   11   12 1   
@<TRIPOS>SUBSTRUCTURE
     1 203         1 TEMP              0 ****  ****    0 ROOT
