@<TRIPOS>MOLECULE
203
   16    17     1     0     0
SMALL
bcc


@<TRIPOS>ATOM
      1 O19        -0.7300   -2.7360    0.0760 o         1 203     -0.602500
      2 C18        -0.3540   -1.5550    0.0170 c         1 203      0.783100
      3 N17         1.0080   -1.2220   -0.0430 n         1 203     -0.685300
      4 C13        -1.2520   -0.4090   -0.0110 cc        1 203     -0.378200
      5 C14        -0.8580    0.9630   -0.1430 cd        1 203      0.623200
      6 N15         0.4690    1.3390   -0.2350 nh        1 203     -0.845800
      7 S16         1.7170    0.2710   -0.0420 s6        1 203      1.604500
      8 O20         2.3300    0.4920    1.1960 o         1 203     -0.630300
      9 O21         2.5760    0.3730   -1.1450 o         1 203     -0.630300
     10 N10        -2.0000    1.7800   -0.1610 nd        1 203     -0.682000
     11 C11        -3.0460    0.9170   -0.0380 cc        1 203      0.454400
     12 N12        -2.6470   -0.4080    0.0570 na        1 203     -0.260900
     13 H17         1.5980   -2.0290   -0.0800 hn        1 203      0.357500
     14 H15         0.6300    2.3050   -0.4190 hn        1 203      0.483800
     15 H11        -4.0990    1.2260   -0.0130 h5        1 203      0.076100
     16 H12        -3.2060   -1.2180    0.1510 hn        1 203      0.330700
@<TRIPOS>BOND
     1    1    2 2   
     2    2    3 1   
     3    2    4 1   
     4    3    7 1   
     5    3   13 1   
     6    4    5 2   
     7    4   12 1   
     8    5    6 1   
     9    5   10 1   
    10    6    7 1   
    11    6   14 1   
    12    7    8 2   
    13    7    9 2   
    14   10   11 2   
    15   11   12 1   
    16   11   15 1   
    17   12   16 1   
@<TRIPOS>SUBSTRUCTURE
     1 203         1 TEMP              0 ****  ****    0 ROOT
