@<TRIPOS>MOLECULE
203
   16    17     1     0     0
SMALL
bcc


@<TRIPOS>ATOM
      1 O19        -0.1040    0.1740    0.0510 o         1 203     -0.602500
      2 C18         1.1330    0.1120   -0.0140 c         1 203      0.783100
      3 N17         1.9260    0.0830    1.1430 ns        1 203     -0.685300
      4 C13         1.8870    0.0490   -1.2580 cc        1 203     -0.378200
      5 C14         3.3100   -0.0880   -1.3720 cd        1 203      0.623200
      6 N15         4.1310   -0.1500   -0.2610 nu        1 203     -0.845800
      7 S16         3.5740    0.0870    1.2780 s6        1 203      1.604500
      8 O20         3.9990    1.3390    1.7370 o         1 203     -0.630300
      9 O21         3.9730   -0.9940    2.0760 o         1 203     -0.630300
     10 N10         3.6690   -0.1430   -2.7280 nd        1 203     -0.682000
     11 C11         2.4920   -0.0370   -3.4040 cc        1 203      0.454400
     12 N12         1.3940    0.0830   -2.5650 na        1 203     -0.260900
     13 H17         1.3810    0.0690    1.9820 hn        1 203      0.357500
     14 H15         5.0910   -0.3420   -0.4480 hn        1 203      0.483800
     15 H11         2.4090   -0.0430   -4.4990 h5        1 203      0.076100
     16 H12         0.4390    0.1710   -2.8030 hn        1 203      0.330700
@<TRIPOS>BOND
     1    1    2 2   
     2    2    3 1   
     3    2    4 1   
     4    3    7 1   
     5    3   13 1   
     6    4    5 2   
     7    4   12 1   
     8    5    6 1   
     9    5   10 1   
    10    6    7 1   
    11    6   14 1   
    12    7    8 2   
    13    7    9 2   
    14   10   11 2   
    15   11   12 1   
    16   11   15 1   
    17   12   16 1   
@<TRIPOS>SUBSTRUCTURE
     1 203         1 TEMP              0 ****  ****    0 ROOT
