@<TRIPOS>MOLECULE
204
   22    22     1     0     0
SMALL
bcc


@<TRIPOS>ATOM
      1 C1          0.0350   -0.0310    0.1500 c3        1 204     -0.101100
      2 C2          1.5390   -0.0120    0.0330 c3        1 204      0.142400
      3 O3          2.0480   -0.0220    1.3780 os        1 204     -0.457900
      4 C4          3.4180   -0.0060    1.5060 c         1 204      0.674700
      5 O5          4.0860    0.0160    0.4690 o         1 204     -0.532000
      6 C6          3.8610   -0.0180    2.8910 ca        1 204     -0.456200
      7 C7          2.9440   -0.0460    3.9700 ca        1 204      0.544200
      8 N8          3.2960   -0.0580    5.2540 nb        1 204     -0.785000
      9 C9          4.6750   -0.0400    5.5190 ca        1 204      0.947900
     10 N10         5.0740   -0.0520    6.8370 nh        1 204     -0.949500
     11 N11         5.6660   -0.0120    4.5450 nb        1 204     -0.860000
     12 C12         5.2360   -0.0010    3.2580 ca        1 204      0.750600
     13 O13         6.1600    0.0270    2.2560 oh        1 204     -0.570300
     14 H11        -0.3270    0.8630    0.7110 hc        1 204      0.046700
     15 H12        -0.4090   -0.0250   -0.8740 hc        1 204      0.046700
     16 H13A       -0.3060   -0.9460    0.6900 hc        1 204      0.046700
     17 H21         1.9080    0.9110   -0.4850 h1        1 204      0.051700
     18 H22         1.9300   -0.9150   -0.5070 h1        1 204      0.051700
     19 H7          1.8540   -0.0600    3.7630 h4        1 204      0.053100
     20 H101        4.3950   -0.0720    7.5560 hn        1 204      0.454800
     21 H102        6.0370   -0.0400    7.0640 hn        1 204      0.454800
     22 H13         7.0590    0.0360    2.6320 ho        1 204      0.445000
@<TRIPOS>BOND
     1    1    2 1   
     2    1   14 1   
     3    1   15 1   
     4    1   16 1   
     5    2    3 1   
     6    2   17 1   
     7    2   18 1   
     8    3    4 1   
     9    4    5 2   
    10    4    6 1   
    11    6    7 ar  
    12    6   12 ar  
    13    7    8 ar  
    14    7   19 1   
    15    8    9 ar  
    16    9   10 1   
    17    9   11 ar  
    18   10   20 1   
    19   10   21 1   
    20   11   12 ar  
    21   12   13 1   
    22   13   22 1   
@<TRIPOS>SUBSTRUCTURE
     1 204         1 TEMP              0 ****  ****    0 ROOT
