@<TRIPOS>MOLECULE
204
   23    23     1     0     0
SMALL
bcc


@<TRIPOS>ATOM
      1 C1          0.0380   -0.0020    0.1390 c3        1 204     -0.107100
      2 C2          1.5400   -0.0020    0.0110 c3        1 204      0.144400
      3 O3          2.0530   -0.0080    1.3670 os        1 204     -0.446900
      4 C4          3.4090   -0.0090    1.4940 c         1 204      0.647700
      5 O5          4.1220   -0.0040    0.4920 o         1 204     -0.470000
      6 C6          3.8460   -0.0150    2.9010 ca        1 204     -0.317200
      7 C7          2.9240   -0.0200    3.9610 ca        1 204      0.529200
      8 N8          3.2960   -0.0270    5.2630 nb        1 204     -0.695000
      9 C9          4.6450   -0.0280    5.4810 ca        1 204      0.753900
     10 N10         5.0810   -0.0350    6.9120 n4        1 204     -0.821300
     11 N11         5.6520   -0.0240    4.5560 nb        1 204     -0.774000
     12 C12         5.2350   -0.0170    3.2510 ca        1 204      0.742600
     13 O13         6.1390   -0.0130    2.2470 oh        1 204     -0.523300
     14 H11        -0.3140   -0.9100    0.6830 hc        1 204      0.058367
     15 H12        -0.3130    0.9020    0.6920 hc        1 204      0.058367
     16 H13A       -0.4070    0.0030   -0.8860 hc        1 204      0.058367
     17 H21         1.9250   -0.9150   -0.5140 h1        1 204      0.066700
     18 H22         1.9250    0.9160   -0.5050 h1        1 204      0.066700
     19 H7          1.8270   -0.0190    3.7670 h4        1 204      0.100100
     20 H101        5.6470   -0.8740    7.0880 hn        1 204      0.484800
     21 H102        5.6470    0.8040    7.0960 hn        1 204      0.484800
     22 H13         7.0560   -0.0140    2.5910 ho        1 204      0.474000
     23 H103        4.2560   -0.0380    7.5290 hn        1 204      0.484800
@<TRIPOS>BOND
     1    1    2 1   
     2    1   14 1   
     3    1   15 1   
     4    1   16 1   
     5    2    3 1   
     6    2   17 1   
     7    2   18 1   
     8    3    4 1   
     9    4    5 2   
    10    4    6 1   
    11    6    7 ar  
    12    6   12 ar  
    13    7    8 ar  
    14    7   19 1   
    15    8    9 ar  
    16    9   10 1   
    17    9   11 ar  
    18   10   20 1   
    19   10   21 1   
    20   10   23 1   
    21   11   12 ar  
    22   12   13 1   
    23   13   22 1   
@<TRIPOS>SUBSTRUCTURE
     1 204         1 TEMP              0 ****  ****    0 ROOT
