@<TRIPOS>MOLECULE
204
   22    22     1     0     0
SMALL
bcc


@<TRIPOS>ATOM
      1 C1          0.0310    0.0140    0.1490 c3        1 204     -0.101100
      2 C2          1.5360   -0.0140    0.0310 c3        1 204      0.142400
      3 O3          2.0440   -0.0140    1.3760 os        1 204     -0.457900
      4 C4          3.4150   -0.0380    1.5040 c         1 204      0.674700
      5 O5          4.0820   -0.0580    0.4670 o         1 204     -0.532000
      6 C6          3.8570   -0.0360    2.8890 ca        1 204     -0.456200
      7 C7          2.9410   -0.0110    3.9680 ca        1 204      0.544200
      8 N8          3.2930   -0.0080    5.2530 nb        1 204     -0.785000
      9 C9          4.6720   -0.0330    5.5170 ca        1 204      0.947900
     10 N10         5.0720   -0.0310    6.8350 nv        1 204     -0.949500
     11 N11         5.6630   -0.0590    4.5430 nb        1 204     -0.860000
     12 C12         5.2330   -0.0610    3.2550 ca        1 204      0.750600
     13 O13         6.1570   -0.0860    2.2530 oh        1 204     -0.570300
     14 H11        -0.4130    0.0150   -0.8750 hc        1 204      0.046700
     15 H12        -0.3360   -0.8810    0.7060 hc        1 204      0.046700
     16 H13A       -0.3040    0.9290    0.6940 hc        1 204      0.046700
     17 H21         1.8990   -0.9370   -0.4920 h1        1 204      0.051700
     18 H22         1.9320    0.8890   -0.5040 h1        1 204      0.051700
     19 H7          1.8510    0.0090    3.7610 h4        1 204      0.053100
     20 H101        4.3930   -0.0120    7.5540 hn        1 204      0.454800
     21 H102        6.0340   -0.0480    7.0620 hn        1 204      0.454800
     22 H13         7.0550   -0.1010    2.6290 ho        1 204      0.445000
@<TRIPOS>BOND
     1    1    2 1   
     2    1   14 1   
     3    1   15 1   
     4    1   16 1   
     5    2    3 1   
     6    2   17 1   
     7    2   18 1   
     8    3    4 1   
     9    4    5 2   
    10    4    6 1   
    11    6    7 ar  
    12    6   12 ar  
    13    7    8 ar  
    14    7   19 1   
    15    8    9 ar  
    16    9   10 1   
    17    9   11 ar  
    18   10   20 1   
    19   10   21 1   
    20   11   12 ar  
    21   12   13 1   
    22   13   22 1   
@<TRIPOS>SUBSTRUCTURE
     1 204         1 TEMP              0 ****  ****    0 ROOT
