@<TRIPOS>MOLECULE
204
   22    22     1     0     0
SMALL
bcc


@<TRIPOS>ATOM
      1 C1          1.3680    0.0120    4.3490 c3        1 204     -0.102100
      2 C2          0.0840   -0.0540    3.5610 c3        1 204      0.142400
      3 O3          0.4670   -0.0320    2.1710 os        1 204     -0.437900
      4 C4         -0.5540   -0.0840    1.2620 c         1 204      0.681700
      5 O5         -1.7140   -0.1440    1.7020 o         1 204     -0.591000
      6 C6         -0.1320   -0.0600   -0.1230 ca        1 204     -0.529200
      7 C7          1.2390    0.0100   -0.4780 ca        1 204      0.554200
      8 N8          1.6850    0.0350   -1.7290 nb        1 204     -0.786000
      9 C9          0.7020   -0.0150   -2.7350 ca        1 204      0.942900
     10 N10         1.1260    0.0090   -4.0430 nh        1 204     -0.943500
     11 N11        -0.6700   -0.0850   -2.5100 nb        1 204     -0.794000
     12 C12        -1.0560   -0.1070   -1.2100 ca        1 204      0.763600
     13 O13        -2.4080   -0.1760   -1.0560 oh        1 204     -0.590300
     14 H11         1.1250   -0.0020    5.4380 hc        1 204      0.049033
     15 H12         2.0220   -0.8610    4.1090 hc        1 204      0.049033
     16 H13A        1.9290    0.9470    4.1110 hc        1 204      0.049033
     17 H21        -0.4870   -0.9980    3.7600 h1        1 204      0.054700
     18 H22        -0.5810    0.8270    3.7620 h1        1 204      0.054700
     19 H7          2.0110    0.0490    0.3180 h4        1 204      0.049100
     20 H101        2.0930    0.0590   -4.2460 hn        1 204      0.456300
     21 H102        0.4650   -0.0250   -4.7790 hn        1 204      0.456300
     22 H13        -2.6210   -0.1880   -0.1030 ho        1 204      0.472000
@<TRIPOS>BOND
     1    1    2 1   
     2    1   14 1   
     3    1   15 1   
     4    1   16 1   
     5    2    3 1   
     6    2   17 1   
     7    2   18 1   
     8    3    4 1   
     9    4    5 2   
    10    4    6 1   
    11    6    7 ar  
    12    6   12 ar  
    13    7    8 ar  
    14    7   19 1   
    15    8    9 ar  
    16    9   10 1   
    17    9   11 ar  
    18   10   20 1   
    19   10   21 1   
    20   11   12 ar  
    21   12   13 1   
    22   13   22 1   
@<TRIPOS>SUBSTRUCTURE
     1 204         1 TEMP              0 ****  ****    0 ROOT
