@<TRIPOS>MOLECULE
204
   22    20     1     0     0
SMALL
bcc


@<TRIPOS>ATOM
      1 C1         -1.3800    1.8460   -3.4710 c3        1 204     -0.219000
      2 C2         -1.3330    0.5190   -2.7460 c3        1 204     -0.008000
      3 O3         -0.6730    0.6820   -1.5120 os        1 204     -0.296000
      4 C4         -0.6120   -0.4910   -0.7410 c2        1 204      0.375000
      5 O5         -1.0920   -1.5230   -1.1650 o         1 204     -0.343000
      6 C6          0.0370   -0.4640    0.6270 c2        1 204     -0.305000
      7 C7         -0.6290    0.0780    1.6870 c2        1 204      0.079000
      8 N8         -0.0730    0.0600    2.9080 n1        1 204     -0.259000
      9 C9          1.1570   -0.4980    3.0890 c1        1 204      0.229000
     10 N10         1.7490   -0.5060    4.3780 n3        1 204     -0.347000
     11 N11         1.8230   -1.0400    2.0300 n1        1 204     -0.334000
     12 C12         1.2680   -1.0230    0.8090 c1        1 204      0.252000
     13 O13         1.9410   -1.6130   -0.2770 oh        1 204     -0.199000
     14 H11        -0.4800    2.0830   -3.7770 hc        1 204      0.086000
     15 H12        -1.9790    1.7750   -4.2440 hc        1 204      0.086000
     16 H13A       -1.7120    2.5390   -2.8630 hc        1 204      0.086000
     17 H21        -0.8480   -0.1340   -3.2920 h1        1 204      0.091000
     18 H22        -2.2460    0.2000   -2.5880 h1        1 204      0.091000
     19 H7         -1.5100    0.4780    1.5580 h4        1 204      0.190000
     20 H101        2.5710   -0.8860    4.5010 hn        1 204      0.250000
     21 H102        1.3140   -0.1180    5.0830 hn        1 204      0.250000
     22 H13         2.7080   -1.9650    0.0050 ho        1 204      0.244000
@<TRIPOS>BOND
     1    1    2 1   
     2    1   14 1   
     3    1   15 1   
     4    1   16 1   
     5    2    3 1   
     6    2   17 1   
     7    2   18 1   
     8    3    4 1   
     9    4    5 1   
    10    4    6 1   
    11    6    7 1   
    12    6   12 1   
    13    7    8 1   
    14    7   19 1   
    15    9   10 1   
    16    9   11 1   
    17   10   20 1   
    18   10   21 1   
    19   12   13 1   
    20   13   22 1   
@<TRIPOS>SUBSTRUCTURE
     1 204         1 TEMP              0 ****  ****    0 ROOT
