@<TRIPOS>MOLECULE
205
   26    28     1     0     0
SMALL
bcc


@<TRIPOS>ATOM
      1 C1         20.6740    0.2010   27.8160 ca        1 205     -0.099000
      2 C2         21.1650    0.0160   26.5170 ca        1 205      0.017400
      3 C6         21.5370   -0.0540   28.8750 ca        1 205     -0.123000
      4 C5         22.8650   -0.4850   28.6860 ca        1 205     -0.098600
      5 C4         23.3830   -0.6790   27.4030 ca        1 205     -0.099000
      6 C3         22.5220   -0.4250   26.3450 ca        1 205      0.025100
      7 C11        21.6660    1.0190   22.1840 ca        1 205      0.055900
      8 C10        21.5080   -0.1700   22.9160 ca        1 205     -0.066900
      9 C8         21.5330   -0.1490   24.3750 cc        1 205      0.523200
     10 C12        21.6390    1.0020   20.7850 ca        1 205     -0.142000
     11 C14        21.2950   -1.3910   20.8200 ca        1 205     -0.142000
     12 C13        21.4550   -0.2030   20.1110 ca        1 205     -0.109000
     13 C15        21.3200   -1.3750   22.2190 ca        1 205      0.055900
     14 C18        23.7500   -0.7440   29.9040 c         1 205      0.908200
     15 O19        23.2440   -0.5560   31.0450 o         1 205     -0.821800
     16 O20        24.9330   -1.1300   29.6970 o         1 205     -0.821800
     17 O17        22.7660   -0.5320   24.9720 os        1 205     -0.302700
     18 N17        20.5790    0.1780   25.2410 nd        1 205     -0.528100
     19 CL16       21.1130   -2.8350   23.0560 cl        1 205     -0.059900
     20 H1         19.6420    0.5360   27.9830 ha        1 205      0.128000
     21 H6         21.1980    0.0770   29.9170 ha        1 205      0.161000
     22 H4         24.4210   -1.0150   27.2700 ha        1 205      0.173000
     23 H12        21.7640    1.9380   20.2200 ha        1 205      0.145500
     24 H14        21.1490   -2.3400   20.2830 ha        1 205      0.145500
     25 H13        21.4360   -0.2160   19.0110 ha        1 205      0.134000
     26 CL17       21.8960    2.4990   22.9790 cl        1 205     -0.059900
@<TRIPOS>BOND
     1    1    2 ar  
     2    1    3 ar  
     3    1   20 1   
     4    2    6 ar  
     5    2   18 1   
     6    3    4 ar  
     7    3   21 1   
     8    4    5 ar  
     9    4   14 1   
    10    5    6 ar  
    11    5   22 1   
    12    6   17 1   
    13    7    8 ar  
    14    7   10 ar  
    15    7   26 1   
    16    8    9 1   
    17    8   13 ar  
    18    9   17 1   
    19    9   18 2   
    20   10   12 ar  
    21   10   23 1   
    22   11   12 ar  
    23   11   13 ar  
    24   11   24 1   
    25   12   25 1   
    26   13   19 1   
    27   14   15 1   
    28   14   16 1   
@<TRIPOS>SUBSTRUCTURE
     1 205         1 TEMP              0 ****  ****    0 ROOT
