@<TRIPOS>MOLECULE
205
   26    27     1     0     0
SMALL
bcc


@<TRIPOS>ATOM
      1 C1          0.5290    1.1320    0.5740 c2        1 205     -0.054000
      2 C2          1.7190    0.4980    0.4480 c2        1 205     -0.084000
      3 C6         -0.4960    0.8020    1.5190 c2        1 205     -0.196000
      4 C5         -0.5130   -0.1720    2.4390 c2        1 205     -0.132000
      5 C4          1.6820   -1.3780    2.2330 c1        1 205      0.172000
      6 C3          2.2120   -0.6520    1.2340 c2        1 205     -0.259000
      7 C11         5.1250    0.4570   -2.3840 c3        1 205      0.063000
      8 C10         5.0130   -0.0730   -0.9710 c2        1 205     -0.050000
      9 C8          3.7400   -0.0010   -0.2910 c2        1 205      0.088000
     10 C12         6.5960    0.3440   -2.7070 c2        1 205     -0.447000
     11 C14         7.2940   -0.3480   -1.5620 c3        1 205     -0.051000
     12 C13         7.1980    0.7920   -3.7900 c1        1 205      0.233000
     13 C15         6.2120   -0.5170   -0.5250 c2        1 205     -0.068000
     14 C18        -1.6960   -0.3820    3.3840 c2        1 205      0.351000
     15 O19        -2.6710    0.4100    3.2680 o         1 205     -0.541000
     16 O20        -1.6150   -1.3260    4.2100 o         1 205     -0.541000
     17 O17         3.5130   -0.9520    0.7370 os        1 205     -0.150000
     18 N17         2.7450    0.8390   -0.4920 n2        1 205     -0.135000
     19 Cl16        6.6090   -1.1640    0.9640 cl        1 205      0.053000
     20 H1          0.3040    1.9830   -0.0950 ha        1 205      0.131000
     21 H6         -1.3970    1.4520    1.4780 ha        1 205      0.163000
     22 H4          0.3070   -0.9450    2.6360 ha        1 205      0.156000
     23 H12         4.7530    1.5110   -2.4560 h1        1 205      0.151000
     24 H14         8.1360    0.2740   -1.1640 hc        1 205      0.114500
     25 H13         7.6980   -1.3430   -1.8800 hc        1 205      0.114500
     26 Cl17        4.1520   -0.4840   -3.5100 cl        1 205     -0.084000
@<TRIPOS>BOND
     1    1    2 1   
     2    1    3 1   
     3    1   20 1   
     4    2    6 1   
     5    2   18 1   
     6    3    4 1   
     7    3   21 1   
     8    4   14 1   
     9    4   22 1   
    10    5    6 1   
    11    6   17 1   
    12    7    8 1   
    13    7   10 1   
    14    7   23 1   
    15    7   26 1   
    16    8    9 1   
    17    8   13 1   
    18    9   17 1   
    19    9   18 1   
    20   10   11 1   
    21   10   12 1   
    22   11   13 1   
    23   11   24 1   
    24   11   25 1   
    25   13   19 1   
    26   14   15 1   
    27   14   16 1   
@<TRIPOS>SUBSTRUCTURE
     1 205         1 TEMP              0 ****  ****    0 ROOT
