@<TRIPOS>MOLECULE
205
   26    27     1     0     0
SMALL
bcc


@<TRIPOS>ATOM
      1 C1          0.5640    1.1790    0.6400 c2        1 205     -0.054000
      2 C2          1.7340    0.5170    0.4750 c2        1 205     -0.084000
      3 C6         -0.4700    0.8280    1.5660 c2        1 205     -0.196000
      4 C5         -0.5180   -0.1960    2.4290 c2        1 205     -0.132000
      5 C4          1.6390   -1.4550    2.1520 c1        1 205      0.172000
      6 C3          2.1920   -0.6900    1.1950 c2        1 205     -0.259000
      7 C11         5.1370    0.5310   -2.3590 c3        1 205      0.063000
      8 C10         5.0090   -0.0730   -0.9780 c2        1 205     -0.050000
      9 C8          3.7390   -0.0010   -0.2930 c2        1 205      0.088000
     10 C12         6.6040    0.3920   -2.6910 c2        1 205     -0.447000
     11 C14         7.2810   -0.3830   -1.5870 c3        1 205     -0.051000
     12 C13         7.2200    0.8810   -3.7480 c1        1 205      0.233000
     13 C15         6.1940   -0.5770   -0.5590 c2        1 205     -0.068000
     14 C18        -1.7060   -0.4220    3.3620 c2        1 205      0.351000
     15 O19        -2.6550    0.4070    3.2960 o         1 205     -0.541000
     16 O20        -1.6570   -1.4160    4.1320 o         1 205     -0.541000
     17 O17         3.4830   -1.0010    0.6790 os        1 205     -0.150000
     18 N17         2.7700    0.8790   -0.4450 n2        1 205     -0.135000
     19 CL16        6.5710   -1.3180    0.8910 cl        1 205      0.053000
     20 H1          0.3650    2.0730    0.0200 ha        1 205      0.131000
     21 H6         -1.3510    1.5070    1.5640 ha        1 205      0.163000
     22 H4          0.2770   -1.0040    2.5800 ha        1 205      0.156000
     23 H12         4.7970    1.5980   -2.3720 h1        1 205      0.151000
     24 H14         8.1410    0.1900   -1.1560 hc        1 205      0.114500
     25 H13         7.6550   -1.3710   -1.9600 hc        1 205      0.114500
     26 CL17        4.1360   -0.3160   -3.5350 cl        1 205     -0.085000
@<TRIPOS>BOND
     1    1    2 1   
     2    1    3 1   
     3    1   20 1   
     4    2    6 1   
     5    2   18 1   
     6    3    4 1   
     7    3   21 1   
     8    4   14 1   
     9    4   22 1   
    10    5    6 1   
    11    6   17 1   
    12    7    8 1   
    13    7   10 1   
    14    7   23 1   
    15    7   26 1   
    16    8    9 1   
    17    8   13 1   
    18    9   17 1   
    19    9   18 1   
    20   10   11 1   
    21   10   12 1   
    22   11   13 1   
    23   11   24 1   
    24   11   25 1   
    25   13   19 1   
    26   14   15 1   
    27   14   16 1   
@<TRIPOS>SUBSTRUCTURE
     1 205         1 TEMP              0 ****  ****    0 ROOT
