@<TRIPOS>MOLECULE
205
   26    19     1     0     0
SMALL
bcc


@<TRIPOS>ATOM
      1 C1         -2.9960    0.0430   -0.0090 c1        1 205     -0.060750
      2 C2         -1.5900    0.0100   -0.0450 c1        1 205     -0.071000
      3 C6         -3.6590    0.0470    1.2090 c1        1 205     -0.060750
      4 C5         -2.9360    0.0190    2.3910 cg        1 205     -0.047200
      5 C4         -1.5510   -0.0130    2.3570 c1        1 205     -0.041500
      6 C3         -0.8780   -0.0180    1.1210 c1        1 205     -0.071000
      7 C11         2.3480   -1.2230   -1.6240 c1        1 205      0.067900
      8 C10         1.7780   -0.0300   -1.2090 c1        1 205      0.017000
      9 C8          0.5540   -0.0360   -0.5580 c1        1 205      0.598700
     10 C12         3.5560   -1.2150   -2.3040 c1        1 205     -0.084500
     11 C14         3.6250    1.1800   -2.1520 c1        1 205     -0.060750
     12 C13         4.1940   -0.0130   -2.5680 c1        1 205     -0.060750
     13 C15         2.4170    1.1720   -1.4730 c1        1 205      0.066900
     14 C18        -3.7860   -0.0130    3.6420 c         1 205      0.856800
     15 O19        -4.2020   -1.1120    4.0920 o         1 205     -0.821800
     16 O20        -4.0680    1.0590    4.2400 o         1 205     -0.821800
     17 O17         0.4470   -0.0460    0.8030 o         1 205     -0.378900
     18 N17        -0.7020   -0.0020   -1.0810 n1        1 205     -0.426800
     19 CL16        2.0270    2.8320   -1.1080 cl        1 205     -0.070900
     20 CL17        1.5270   -2.7320   -1.3240 cl        1 205     -0.071900
     21 H1         -3.5050    0.0770   -0.8410 ha        1 205      0.084750
     22 H6         -4.6350    0.0700    1.2330 ha        1 205      0.084750
     23 H4         -1.0420   -0.0180    3.1900 ha        1 205      0.115500
     24 H12         3.9570   -2.0560   -2.5960 ha        1 205      0.087500
     25 H14         4.0740    2.0260   -2.3380 ha        1 205      0.084750
     26 H13         5.0450   -0.0080   -3.0460 ha        1 205      0.084750
@<TRIPOS>BOND
     1    1    3 3   
     2    1   21 1   
     3    2    6 1   
     4    3   22 1   
     5    4    5 3   
     6    4   14 1   
     7    5   23 1   
     8    7   10 3   
     9    7   20 1   
    10    8   13 3   
    11    9   17 1   
    12    9   18 3   
    13   10   24 1   
    14   11   12 3   
    15   11   25 1   
    16   12   26 1   
    17   13   19 1   
    18   14   15 1   
    19   14   16 1   
@<TRIPOS>SUBSTRUCTURE
     1 205         1 TEMP              0 ****  ****    0 ROOT
