@<TRIPOS>MOLECULE
207
   36    38     1     0     0
SMALL
bcc


@<TRIPOS>ATOM
      1 N1          1.6010    0.1570   -1.3040 nb        1 207     -0.813000
      2 C2          1.9800    0.3300   -2.6230 ca        1 207      0.683200
      3 C3          1.0820    0.2390   -3.7180 ca        1 207     -0.357300
      4 C4         -0.2570   -0.0080   -3.4060 ca        1 207      0.012800
      5 C5         -0.6950   -0.1710   -2.0310 ca        1 207     -0.112900
      6 C6          0.3050   -0.0720   -1.0240 ca        1 207      0.738600
      7 O6         -0.1340   -0.2430    0.2640 os        1 207     -0.425100
      8 C9          0.8380   -0.1220    1.3210 c3        1 207      0.138400
      9 N7         -2.0810   -0.4060   -1.9960 nc        1 207     -0.509100
     10 C8         -2.4690   -0.3880   -3.2780 cd        1 207      0.385700
     11 N9         -1.4030   -0.1540   -4.1820 na        1 207     -0.289300
     12 N2          3.3170    0.6760   -2.8750 nh        1 207     -0.925500
     13 C10         0.0590   -0.3310    2.6160 c3        1 207     -0.071700
     14 C11        -0.7960    0.8860    2.9350 c3        1 207     -0.073900
     15 C12        -1.5280    0.7080    4.2490 c3        1 207     -0.075400
     16 C13        -0.5650    0.4120    5.3800 c3        1 207     -0.077400
     17 C14         0.3010   -0.7910    5.0640 c3        1 207     -0.075400
     18 C15         1.0340   -0.6160    3.7490 c3        1 207     -0.073900
     19 H3          1.4180    0.3730   -4.7520 ha        1 207      0.146000
     20 H9C1        1.6210   -0.9130    1.1940 h1        1 207      0.052200
     21 H9C2        1.3090    0.8930    1.2850 h1        1 207      0.052200
     22 H8         -3.4940   -0.5370   -3.6340 h5        1 207      0.069800
     23 H9         -1.4620   -0.0770   -5.1610 hn        1 207      0.306700
     24 H2N1        3.9540    0.5460   -2.1200 hn        1 207      0.404300
     25 H2N2        3.6550    0.3560   -3.7540 hn        1 207      0.404300
     26 H10        -0.6200   -1.2200    2.4840 hc        1 207      0.069700
     27 H111       -0.1460    1.7980    2.9890 hc        1 207      0.044450
     28 H112       -1.5330    1.0410    2.1040 hc        1 207      0.044450
     29 H121       -2.2650   -0.1330    4.1560 hc        1 207      0.040200
     30 H122       -2.1080    1.6390    4.4830 hc        1 207      0.040200
     31 H131       -1.1390    0.2230    6.3240 hc        1 207      0.038200
     32 H132        0.0890    1.3060    5.5570 hc        1 207      0.038200
     33 H141       -0.3420   -1.7090    5.0130 hc        1 207      0.040200
     34 H142        1.0460   -0.9450    5.8870 hc        1 207      0.040200
     35 H151        1.6170   -1.5450    3.5190 hc        1 207      0.044450
     36 H152        1.7640    0.2310    3.8350 hc        1 207      0.044450
@<TRIPOS>BOND
     1    1    2 ar  
     2    1    6 ar  
     3    2    3 ar  
     4    2   12 1   
     5    3    4 ar  
     6    3   19 1   
     7    4    5 ar  
     8    4   11 1   
     9    5    6 ar  
    10    5    9 1   
    11    6    7 1   
    12    7    8 1   
    13    8   13 1   
    14    8   20 1   
    15    8   21 1   
    16    9   10 2   
    17   10   11 1   
    18   10   22 1   
    19   11   23 1   
    20   12   24 1   
    21   12   25 1   
    22   13   14 1   
    23   13   18 1   
    24   13   26 1   
    25   14   15 1   
    26   14   27 1   
    27   14   28 1   
    28   15   16 1   
    29   15   29 1   
    30   15   30 1   
    31   16   17 1   
    32   16   31 1   
    33   16   32 1   
    34   17   18 1   
    35   17   33 1   
    36   17   34 1   
    37   18   35 1   
    38   18   36 1   
@<TRIPOS>SUBSTRUCTURE
     1 207         1 TEMP              0 ****  ****    0 ROOT
