@<TRIPOS>MOLECULE
207
   36    38     1     0     0
SMALL
bcc


@<TRIPOS>ATOM
      1 N1          0.3030   -0.0980   -0.1950 nb        1 207     -0.813000
      2 C2          1.6660   -0.1030    0.0400 ca        1 207      0.683200
      3 C3          2.2420    0.0100    1.3320 ca        1 207     -0.357300
      4 C4          1.3510    0.0980    2.4050 ca        1 207      0.012800
      5 C5         -0.0860    0.0830    2.1970 ca        1 207     -0.112900
      6 C6         -0.5380   -0.0190    0.8530 ca        1 207      0.738600
      7 O6         -1.9000   -0.0180    0.6850 os        1 207     -0.425100
      8 C9         -2.4050   -0.1510   -0.6580 c3        1 207      0.138400
      9 N7         -0.7480    0.1830    3.4340 nc        1 207     -0.509100
     10 C8          0.2300    0.2540    4.3470 cd        1 207      0.385700
     11 N9          1.5280    0.2120    3.7810 na        1 207     -0.289300
     12 N2          2.5140   -0.2960   -1.0610 nh        1 207     -0.925500
     13 C10        -3.9250   -0.1440   -0.5230 c3        1 207     -0.071700
     14 C11        -4.4240   -1.4580    0.0580 c3        1 207     -0.073900
     15 C12        -5.9360   -1.4780    0.1410 c3        1 207     -0.075400
     16 C13        -6.5650   -1.2110   -1.2110 c3        1 207     -0.077400
     17 C14        -6.0620    0.0900   -1.8030 c3        1 207     -0.075400
     18 C15        -4.5500    0.1140   -1.8870 c3        1 207     -0.073900
     19 H3          3.3260    0.0100    1.4810 ha        1 207      0.146000
     20 H9C1       -2.0540    0.7170   -1.2730 h1        1 207      0.052200
     21 H9C2       -2.0390   -1.1100   -1.1050 h1        1 207      0.052200
     22 H8          0.0840    0.3400    5.4290 h5        1 207      0.069800
     23 H9          2.3850    0.2260    4.2620 hn        1 207      0.306700
     24 H2N1        2.1000   -0.1810   -1.9600 hn        1 207      0.404300
     25 H2N2        3.4030    0.1400   -0.9640 hn        1 207      0.404300
     26 H10        -4.2170    0.6890    0.1770 hc        1 207      0.069700
     27 H111       -4.0720   -2.3090   -0.5820 hc        1 207      0.044450
     28 H112       -3.9810   -1.5950    1.0790 hc        1 207      0.044450
     29 H121       -6.2800   -0.7020    0.8740 hc        1 207      0.040200
     30 H122       -6.2750   -2.4760    0.5240 hc        1 207      0.040200
     31 H131       -6.3240   -2.0560   -1.9080 hc        1 207      0.038200
     32 H132       -7.6800   -1.1690   -1.1050 hc        1 207      0.038200
     33 H141       -6.4140    0.9480   -1.1710 hc        1 207      0.040200
     34 H142       -6.4940    0.2280   -2.8280 hc        1 207      0.040200
     35 H151       -4.2000   -0.6690   -2.6110 hc        1 207      0.044450
     36 H152       -4.2120    1.1100   -2.2750 hc        1 207      0.044450
@<TRIPOS>BOND
     1    1    2 ar  
     2    1    6 ar  
     3    2    3 ar  
     4    2   12 1   
     5    3    4 ar  
     6    3   19 1   
     7    4    5 ar  
     8    4   11 1   
     9    5    6 ar  
    10    5    9 1   
    11    6    7 1   
    12    7    8 1   
    13    8   13 1   
    14    8   20 1   
    15    8   21 1   
    16    9   10 2   
    17   10   11 1   
    18   10   22 1   
    19   11   23 1   
    20   12   24 1   
    21   12   25 1   
    22   13   14 1   
    23   13   18 1   
    24   13   26 1   
    25   14   15 1   
    26   14   27 1   
    27   14   28 1   
    28   15   16 1   
    29   15   29 1   
    30   15   30 1   
    31   16   17 1   
    32   16   31 1   
    33   16   32 1   
    34   17   18 1   
    35   17   33 1   
    36   17   34 1   
    37   18   35 1   
    38   18   36 1   
@<TRIPOS>SUBSTRUCTURE
     1 207         1 TEMP              0 ****  ****    0 ROOT
