@<TRIPOS>MOLECULE
207
   37    39     1     0     0
SMALL
bcc


@<TRIPOS>ATOM
      1 N1          0.3150   -0.1100   -0.1830 nb        1 207     -0.782000
      2 C2          1.6570   -0.0840    0.1000 ca        1 207      0.478200
      3 C3          2.2510    0.0190    1.3620 ca        1 207     -0.214300
      4 C4          1.3420    0.1050    2.4340 ca        1 207     -0.056200
      5 C5         -0.0930    0.0830    2.2030 ca        1 207     -0.022900
      6 C6         -0.5510   -0.0280    0.8490 ca        1 207      0.758600
      7 O6         -1.8970   -0.0430    0.6760 os        1 207     -0.393100
      8 C9         -2.4190   -0.1540   -0.6720 c3        1 207      0.136400
      9 N7         -0.7700    0.1810    3.4210 nc        1 207     -0.494100
     10 C8          0.1980    0.2580    4.3550 cd        1 207      0.445700
     11 N9          1.4990    0.2170    3.8100 na        1 207     -0.247300
     12 N2          2.5340   -0.1800   -1.0920 n4        1 207     -0.815300
     13 C10        -3.9360   -0.1540   -0.5090 c3        1 207     -0.072700
     14 C11        -4.4290   -1.5060   -0.0160 c3        1 207     -0.073400
     15 C12        -5.9400   -1.5220    0.0930 c3        1 207     -0.076900
     16 C13        -6.5910   -1.1540   -1.2250 c3        1 207     -0.080400
     17 C14        -6.0900    0.1830   -1.7310 c3        1 207     -0.076900
     18 C15        -4.5790    0.2040   -1.8420 c3        1 207     -0.073400
     19 H3          3.3360    0.0350    1.5290 ha        1 207      0.166000
     20 H9C1       -2.0510   -1.1070   -1.1310 h1        1 207      0.056700
     21 H9C2       -2.0720    0.7290   -1.2670 h1        1 207      0.056700
     22 H8          0.0260    0.3460    5.4390 h5        1 207      0.103800
     23 H9          2.3530    0.2590    4.3040 hn        1 207      0.330700
     24 H2N1        2.3430    0.6070   -1.7250 hn        1 207      0.468467
     25 H2N2        2.3460   -1.0590   -1.5900 hn        1 207      0.468467
     26 H10        -4.2130    0.6290    0.2530 hc        1 207      0.078700
     27 H111       -3.9720   -1.7220    0.9840 hc        1 207      0.042950
     28 H112       -4.0960   -2.3080   -0.7250 hc        1 207      0.042950
     29 H121       -6.2660   -0.8000    0.8870 hc        1 207      0.048950
     30 H122       -6.2780   -2.5440    0.4070 hc        1 207      0.048950
     31 H131       -7.7040   -1.1110   -1.0940 hc        1 207      0.047700
     32 H132       -6.3720   -1.9480   -1.9860 hc        1 207      0.047700
     33 H141       -6.4240    0.9960   -1.0340 hc        1 207      0.048950
     34 H142       -6.5370    0.3960   -2.7370 hc        1 207      0.048950
     35 H151       -4.2410    1.2240   -2.1630 hc        1 207      0.042950
     36 H152       -4.2490   -0.5280   -2.6250 hc        1 207      0.042950
     37 H23         3.5130   -0.1540   -0.7960 hn        1 207      0.468467
@<TRIPOS>BOND
     1    1    2 ar  
     2    1    6 ar  
     3    2    3 ar  
     4    2   12 1   
     5    3    4 ar  
     6    3   19 1   
     7    4    5 ar  
     8    4   11 1   
     9    5    6 ar  
    10    5    9 1   
    11    6    7 1   
    12    7    8 1   
    13    8   13 1   
    14    8   20 1   
    15    8   21 1   
    16    9   10 2   
    17   10   11 1   
    18   10   22 1   
    19   11   23 1   
    20   12   24 1   
    21   12   25 1   
    22   12   37 1   
    23   13   14 1   
    24   13   18 1   
    25   13   26 1   
    26   14   15 1   
    27   14   27 1   
    28   14   28 1   
    29   15   16 1   
    30   15   29 1   
    31   15   30 1   
    32   16   17 1   
    33   16   31 1   
    34   16   32 1   
    35   17   18 1   
    36   17   33 1   
    37   17   34 1   
    38   18   35 1   
    39   18   36 1   
@<TRIPOS>SUBSTRUCTURE
     1 207         1 TEMP              0 ****  ****    0 ROOT
