@<TRIPOS>MOLECULE
207
   36    38     1     0     0
SMALL
bcc


@<TRIPOS>ATOM
      1 N1          0.3030   -0.1000   -0.1850 nb        1 207     -0.813000
      2 C2          1.6660   -0.0550    0.0450 ca        1 207      0.684200
      3 C3          2.2440    0.0080    1.3400 ca        1 207     -0.357300
      4 C4          1.3550    0.0590    2.4170 ca        1 207      0.012800
      5 C5         -0.0820    0.0370    2.2110 ca        1 207     -0.112900
      6 C6         -0.5360   -0.0420    0.8650 ca        1 207      0.738600
      7 O6         -1.8980   -0.0700    0.7010 os        1 207     -0.425100
      8 C9         -2.4060   -0.1310   -0.6460 c3        1 207      0.138400
      9 N7         -0.7430    0.0990    3.4510 nc        1 207     -0.509100
     10 C8          0.2360    0.1550    4.3640 cd        1 207      0.385700
     11 N9          1.5340    0.1300    3.7950 na        1 207     -0.289300
     12 N2          2.5130   -0.0060   -1.0730 nv        1 207     -0.925500
     13 C10        -3.9250   -0.1260   -0.5090 c3        1 207     -0.071700
     14 C11        -4.4280   -1.4680    0.0010 c3        1 207     -0.073900
     15 C12        -5.9400   -1.4870    0.0850 c3        1 207     -0.075400
     16 C13        -6.5700   -1.1450   -1.2500 c3        1 207     -0.077400
     17 C14        -6.0630    0.1850   -1.7710 c3        1 207     -0.075400
     18 C15        -4.5510    0.2070   -1.8560 c3        1 207     -0.073900
     19 H3          3.3290    0.0340    1.4860 ha        1 207      0.146000
     20 H9C1       -2.0520    0.7660   -1.2160 h1        1 207      0.052200
     21 H9C2       -2.0430   -1.0680   -1.1410 h1        1 207      0.052200
     22 H8          0.0910    0.2130    5.4480 h5        1 207      0.069800
     23 H9          2.3920    0.1860    4.2720 hn        1 207      0.306700
     24 H2N1        2.0990   -0.2420   -1.9480 hn        1 207      0.404300
     25 H2N2        3.4040   -0.4200   -0.9200 hn        1 207      0.404300
     26 H10        -4.2130    0.6690    0.2350 hc        1 207      0.070700
     27 H111       -4.0800   -2.2840   -0.6850 hc        1 207      0.044450
     28 H112       -3.9850   -1.6620    1.0130 hc        1 207      0.044450
     29 H121       -6.2830   -2.5020    0.4130 hc        1 207      0.040700
     30 H122       -6.2800   -0.7500    0.8590 hc        1 207      0.040700
     31 H131       -6.3320   -1.9510   -1.9920 hc        1 207      0.037700
     32 H132       -7.6840   -1.1040   -1.1410 hc        1 207      0.037700
     33 H141       -6.4100    1.0080   -1.0930 hc        1 207      0.040700
     34 H142       -6.4950    0.3800   -2.7870 hc        1 207      0.040700
     35 H151       -4.2090    1.2220   -2.1890 hc        1 207      0.044450
     36 H152       -4.2050   -0.5360   -2.6220 hc        1 207      0.044450
@<TRIPOS>BOND
     1    1    2 ar  
     2    1    6 ar  
     3    2    3 ar  
     4    2   12 1   
     5    3    4 ar  
     6    3   19 1   
     7    4    5 ar  
     8    4   11 1   
     9    5    6 ar  
    10    5    9 1   
    11    6    7 1   
    12    7    8 1   
    13    8   13 1   
    14    8   20 1   
    15    8   21 1   
    16    9   10 2   
    17   10   11 1   
    18   10   22 1   
    19   11   23 1   
    20   12   24 1   
    21   12   25 1   
    22   13   14 1   
    23   13   18 1   
    24   13   26 1   
    25   14   15 1   
    26   14   27 1   
    27   14   28 1   
    28   15   16 1   
    29   15   29 1   
    30   15   30 1   
    31   16   17 1   
    32   16   31 1   
    33   16   32 1   
    34   17   18 1   
    35   17   33 1   
    36   17   34 1   
    37   18   35 1   
    38   18   36 1   
@<TRIPOS>SUBSTRUCTURE
     1 207         1 TEMP              0 ****  ****    0 ROOT
