@<TRIPOS>MOLECULE
207
   36    31     1     0     0
SMALL
bcc


@<TRIPOS>ATOM
      1 N1          2.4760   -0.1820   -0.6230 n1        1 207     -0.287000
      2 C2          3.8360   -0.0610   -0.6230 c1        1 207      0.163000
      3 C3          4.4830    0.4960    0.4700 c1        1 207     -0.292000
      4 C4          3.7490    0.9290    1.5630 c1        1 207     -0.064500
      5 C5          2.4050    0.8090    1.5610 c1        1 207     -0.064500
      6 C6          1.7520    0.2440    0.4510 c1        1 207      0.240000
      7 O6          0.3530    0.2400    0.5840 os        1 207     -0.183000
      8 C9         -0.3080   -0.5640   -0.3640 c3        1 207     -0.012000
      9 N7          1.9390    1.3040    2.7380 n1        1 207     -0.164000
     10 C8          2.9980    1.7290    3.4620 c1        1 207     -0.070000
     11 N9          4.1180    1.4990    2.7400 n1        1 207     -0.164000
     12 N2          4.4220   -0.5890   -1.8030 n3        1 207     -0.323000
     13 C10        -1.6380   -0.4710   -0.1810 c3        1 207     -0.110000
     14 C11        -2.4170   -1.6710   -0.8710 c3        1 207     -0.151500
     15 C12        -3.9250   -1.5770   -0.7070 c3        1 207     -0.153000
     16 C13        -4.3120   -0.3210   -0.3870 c3        1 207     -0.155000
     17 C14        -3.7790    0.8190   -0.9030 c3        1 207     -0.153000
     18 C15        -2.2850    0.7070   -1.0690 c3        1 207     -0.151500
     19 H3          5.4550    0.5820    0.4700 ha        1 207      0.146000
     20 H9C1       -0.0800   -0.2590   -1.2680 h1        1 207      0.092000
     21 H9C2       -0.0280   -1.4980   -0.2530 h1        1 207      0.092000
     22 H8          2.9610    2.1350    4.3490 DU        1 207      0.228000
     23 H9          4.9710    1.6930    2.9980 DU        1 207      0.228000
     24 H2N1        5.3230   -0.5180   -1.9360 hn        1 207      0.199500
     25 H2N2        3.8990   -1.0050   -2.4260 hn        1 207      0.199500
     26 H10        -1.8740   -0.3830    0.7630 hc        1 207      0.110000
     27 H111       -2.1100   -2.5120   -0.4780 hc        1 207      0.082750
     28 H112       -2.2050   -1.6750   -1.8260 hc        1 207      0.082750
     29 H121       -4.2080   -2.1890    0.0040 hc        1 207      0.078000
     30 H122       -4.3560   -1.8400   -1.5460 hc        1 207      0.078000
     31 H131       -5.2740   -0.2780   -0.5770 hc        1 207      0.078000
     32 H132       -4.2120   -0.2480    0.5860 hc        1 207      0.078000
     33 H141       -4.1860    0.9940   -1.7770 hc        1 207      0.078000
     34 H142       -3.9790    1.5660   -0.3020 hc        1 207      0.078000
     35 H151       -1.8760    1.5570   -0.8090 hc        1 207      0.082750
     36 H152       -2.0850    0.5370   -2.0110 hc        1 207      0.082750
@<TRIPOS>BOND
     1    1    6 1   
     2    2    3 1   
     3    2   12 1   
     4    3   19 1   
     5    4    5 1   
     6    6    7 1   
     7    7    8 1   
     8    8   13 1   
     9    8   20 1   
    10    8   21 1   
    11    9   10 1   
    12   10   11 1   
    13   12   24 1   
    14   12   25 1   
    15   13   14 1   
    16   13   18 1   
    17   13   26 1   
    18   14   15 1   
    19   14   27 1   
    20   14   28 1   
    21   15   16 1   
    22   15   29 1   
    23   15   30 1   
    24   16   17 1   
    25   16   31 1   
    26   16   32 1   
    27   17   18 1   
    28   17   33 1   
    29   17   34 1   
    30   18   35 1   
    31   18   36 1   
@<TRIPOS>SUBSTRUCTURE
     1 207         1 TEMP              0 ****  ****    0 ROOT
