@<TRIPOS>MOLECULE
208
   53    56     1     0     0
SMALL
bcc


@<TRIPOS>ATOM
      1 C30         2.1320   -2.1070    1.2430 c3        1 208     -0.096100
      2 C28         2.9460   -1.4360    0.1570 c3        1 208      0.133400
      3 O25         3.4870   -0.2450    0.7220 os        1 208     -0.455600
      4 C15         3.9660    0.6870   -0.2600 c3        1 208      0.024100
      5 C13         4.8770    0.0180   -1.3300 c         1 208      0.897600
      6 O22         6.1000    0.3250   -1.3660 o         1 208     -0.835300
      7 O20         4.3190   -0.7800   -2.1350 o         1 208     -0.835300
      8 C19         4.7100    1.7670    0.5180 c3        1 208     -0.040100
      9 C18         3.8370    2.8430    1.0600 ca        1 208     -0.066300
     10 C21         2.6290    2.5090    1.7090 ca        1 208     -0.103000
     11 C17         4.2250    4.1780    0.9530 ca        1 208     -0.098000
     12 C11         3.4230    5.1710    1.5120 ca        1 208     -0.094800
     13 C12         3.5250    6.6160    1.5860 cc        1 208     -0.181200
     14 C10         2.4130    7.0750    2.2750 cd        1 208     -0.120100
     15 C8          2.1990    4.8120    2.1850 ca        1 208     -0.068200
     16 C14         1.8010    3.4700    2.2690 ca        1 208     -0.169000
     17 N4          1.5580    6.0000    2.6000 na        1 208     -0.085400
     18 C9          0.5290    6.0720    3.5920 c3        1 208      0.028000
     19 C3          0.9940    6.3510    4.9880 cc        1 208      0.189300
     20 C7          1.7360    5.5250    5.8330 cd        1 208      0.213700
     21 C26         2.3270    4.1910    5.7310 c3        1 208     -0.146400
     22 O5          1.9150    6.2050    7.0400 os        1 208     -0.386800
     23 N2          0.7060    7.5540    5.6580 nc        1 208     -0.630000
     24 C1          1.2560    7.4460    6.8690 cd        1 208      0.521900
     25 C6          1.3220    8.3580    7.9980 ca        1 208     -0.111500
     26 C16         0.3420    9.3370    8.2350 ca        1 208      0.049400
     27 Cl23       -1.0180    9.5090    7.2380 cl        1 208     -0.061400
     28 C27         0.4680   10.2010    9.3320 ca        1 208     -0.139000
     29 C31         1.5570   10.0900   10.1910 ca        1 208     -0.112000
     30 C29         2.5290    9.1140    9.9660 ca        1 208     -0.138000
     31 C24         2.4130    8.2560    8.8780 ca        1 208     -0.091000
     32 H301        1.7060   -3.0600    0.8510 hc        1 208      0.022367
     33 H302        1.2980   -1.4450    1.5760 hc        1 208      0.022367
     34 H303        2.7730   -2.3320    2.1280 hc        1 208      0.022367
     35 H281        2.3120   -1.1880   -0.7350 h1        1 208      0.051200
     36 H282        3.7900   -2.0920   -0.1860 h1        1 208      0.051200
     37 H15         3.0710    1.1210   -0.7850 h1        1 208      0.022700
     38 H191        5.4900    2.1970   -0.1690 hc        1 208      0.074200
     39 H192        5.2530    1.2800    1.3730 hc        1 208      0.074200
     40 H21         2.3490    1.4410    1.7580 ha        1 208      0.164000
     41 H17         5.1530    4.4480    0.4280 ha        1 208      0.137000
     42 H12         4.3260    7.2130    1.1640 ha        1 208      0.148000
     43 H10         2.1300    8.0930    2.5460 h4        1 208      0.160000
     44 H14         0.8580    3.1850    2.7540 ha        1 208      0.118000
     45 H91        -0.0180    5.0840    3.6010 h1        1 208      0.072200
     46 H92        -0.1950    6.8790    3.2750 h1        1 208      0.072200
     47 H261        3.3990    4.2130    6.0510 hc        1 208      0.073700
     48 H262        2.2720    3.8350    4.6690 hc        1 208      0.073700
     49 H263        1.7770    3.4730    6.3900 hc        1 208      0.073700
     50 H27        -0.2990   10.9700    9.5120 ha        1 208      0.146000
     51 H31         1.6490   10.7730   11.0480 ha        1 208      0.135000
     52 H29         3.3890    9.0240   10.6460 ha        1 208      0.138000
     53 H24         3.1770    7.4820    8.6940 ha        1 208      0.156000
@<TRIPOS>BOND
     1    1    2 1   
     2    1   32 1   
     3    1   33 1   
     4    1   34 1   
     5    2    3 1   
     6    2   35 1   
     7    2   36 1   
     8    3    4 1   
     9    4    5 1   
    10    4    8 1   
    11    4   37 1   
    12    5    6 1   
    13    5    7 1   
    14    8    9 1   
    15    8   38 1   
    16    8   39 1   
    17    9   10 ar  
    18    9   11 ar  
    19   10   16 ar  
    20   10   40 1   
    21   11   12 ar  
    22   11   41 1   
    23   12   13 1   
    24   12   15 ar  
    25   13   14 2   
    26   13   42 1   
    27   14   17 1   
    28   14   43 1   
    29   15   16 ar  
    30   15   17 1   
    31   16   44 1   
    32   17   18 1   
    33   18   19 1   
    34   18   45 1   
    35   18   46 1   
    36   19   20 2   
    37   19   23 1   
    38   20   21 1   
    39   20   22 1   
    40   21   47 1   
    41   21   48 1   
    42   21   49 1   
    43   22   24 1   
    44   23   24 2   
    45   24   25 1   
    46   25   26 ar  
    47   25   31 ar  
    48   26   27 1   
    49   26   28 ar  
    50   28   29 ar  
    51   28   50 1   
    52   29   30 ar  
    53   29   51 1   
    54   30   31 ar  
    55   30   52 1   
    56   31   53 1   
@<TRIPOS>SUBSTRUCTURE
     1 208         1 TEMP              0 ****  ****    0 ROOT
