@<TRIPOS>MOLECULE
208
   53    56     1     0     0
SMALL
bcc


@<TRIPOS>ATOM
      1 C30         2.0940   -2.0640    1.1470 c3        1 208     -0.096100
      2 C28         2.9380   -1.3900    0.0870 c3        1 208      0.133400
      3 O25         3.4850   -0.2150    0.6800 os        1 208     -0.455600
      4 C15         3.9960    0.7250   -0.2790 c3        1 208      0.024100
      5 C13         4.9180    0.0590   -1.3400 c         1 208      0.897600
      6 O22         6.1460    0.3500   -1.3480 o         1 208     -0.835300
      7 O20         4.3660   -0.7200   -2.1680 o         1 208     -0.835300
      8 C19         4.7390    1.7830    0.5300 c3        1 208     -0.040100
      9 C18         3.8700    2.8630    1.0700 ca        1 208     -0.066300
     10 C21         2.6450    2.5370    1.6900 ca        1 208     -0.103000
     11 C17         4.2790    4.1940    0.9910 ca        1 208     -0.098000
     12 C11         3.4800    5.1900    1.5500 ca        1 208     -0.094800
     13 C12         3.6000    6.6320    1.6480 cc        1 208     -0.181200
     14 C10         2.4820    7.0960    2.3210 cd        1 208     -0.120100
     15 C8          2.2370    4.8380    2.1920 ca        1 208     -0.068200
     16 C14         1.8190    3.5010    2.2480 ca        1 208     -0.169000
     17 N4          1.6050    6.0290    2.6120 na        1 208     -0.085400
     18 C9          0.5570    6.1010    3.5850 c3        1 208      0.028000
     19 C3          0.9970    6.3520    4.9940 cc        1 208      0.189300
     20 C7          1.7090    5.5020    5.8410 cd        1 208      0.213700
     21 C26         2.2810    4.1610    5.7310 c3        1 208     -0.146400
     22 O5          1.8740    6.1620    7.0610 os        1 208     -0.386800
     23 N2          0.7140    7.5500    5.6750 nc        1 208     -0.630000
     24 C1          1.2370    7.4150    6.8960 cd        1 208      0.521900
     25 C6          1.2950    8.3100    8.0400 ca        1 208     -0.111500
     26 C16         0.3250    9.3000    8.2710 ca        1 208      0.049400
     27 CL23       -1.0110    9.5080    7.2490 cl        1 208     -0.061400
     28 C27         0.4420   10.1460    9.3830 ca        1 208     -0.139000
     29 C31         1.5110   10.0060   10.2620 ca        1 208     -0.112000
     30 C29         2.4730    9.0180   10.0420 ca        1 208     -0.138000
     31 C24         2.3650    8.1780    8.9390 ca        1 208     -0.091000
     32 H301        1.6630   -3.0060    0.7330 hc        1 208      0.022367
     33 H302        1.2630   -1.3950    1.4730 hc        1 208      0.022367
     34 H303        2.7140   -2.3110    2.0420 hc        1 208      0.022367
     35 H281        3.7800   -2.0520   -0.2490 h1        1 208      0.051200
     36 H282        2.3260   -1.1200   -0.8140 h1        1 208      0.051200
     37 H15         3.1170    1.1790   -0.8150 h1        1 208      0.022700
     38 H191        5.5380    2.2130   -0.1350 hc        1 208      0.074200
     39 H192        5.2580    1.2760    1.3880 hc        1 208      0.074200
     40 H21         2.3490    1.4720    1.7180 ha        1 208      0.164000
     41 H17         5.2210    4.4590    0.4890 ha        1 208      0.137000
     42 H12         4.4180    7.2240    1.2510 ha        1 208      0.148000
     43 H10         2.2070    8.1140    2.6020 h4        1 208      0.160000
     44 H14         0.8630    3.2220    2.7090 ha        1 208      0.118000
     45 H91        -0.1490    6.9230    3.2650 h1        1 208      0.072200
     46 H92        -0.0050    5.1210    3.5670 h1        1 208      0.072200
     47 H261        1.7060    3.4420    6.3670 hc        1 208      0.073700
     48 H262        3.3460    4.1620    6.0740 hc        1 208      0.073700
     49 H263        2.2440    3.8230    4.6620 hc        1 208      0.073700
     50 H27        -0.3170   10.9240    9.5590 ha        1 208      0.146000
     51 H31         1.5960   10.6750   11.1310 ha        1 208      0.135000
     52 H29         3.3170    8.9050   10.7380 ha        1 208      0.138000
     53 H24         3.1210    7.3950    8.7600 ha        1 208      0.156000
@<TRIPOS>BOND
     1    1    2 1   
     2    1   32 1   
     3    1   33 1   
     4    1   34 1   
     5    2    3 1   
     6    2   35 1   
     7    2   36 1   
     8    3    4 1   
     9    4    5 1   
    10    4    8 1   
    11    4   37 1   
    12    5    6 1   
    13    5    7 1   
    14    8    9 1   
    15    8   38 1   
    16    8   39 1   
    17    9   10 ar  
    18    9   11 ar  
    19   10   16 ar  
    20   10   40 1   
    21   11   12 ar  
    22   11   41 1   
    23   12   13 1   
    24   12   15 ar  
    25   13   14 2   
    26   13   42 1   
    27   14   17 1   
    28   14   43 1   
    29   15   16 ar  
    30   15   17 1   
    31   16   44 1   
    32   17   18 1   
    33   18   19 1   
    34   18   45 1   
    35   18   46 1   
    36   19   20 2   
    37   19   23 1   
    38   20   21 1   
    39   20   22 1   
    40   21   47 1   
    41   21   48 1   
    42   21   49 1   
    43   22   24 1   
    44   23   24 2   
    45   24   25 1   
    46   25   26 ar  
    47   25   31 ar  
    48   26   27 1   
    49   26   28 ar  
    50   28   29 ar  
    51   28   50 1   
    52   29   30 ar  
    53   29   51 1   
    54   30   31 ar  
    55   30   52 1   
    56   31   53 1   
@<TRIPOS>SUBSTRUCTURE
     1 208         1 TEMP              0 ****  ****    0 ROOT
