@<TRIPOS>MOLECULE
208
   53    45     1     0     0
SMALL
bcc


@<TRIPOS>ATOM
      1 C30         0.3580   -8.8600   -1.8130 c3        1 208     -0.214000
      2 C28        -0.1150   -7.4060   -2.0210 c3        1 208     -0.020000
      3 O25        -0.0650   -6.7020   -0.7700 os        1 208     -0.297000
      4 C15         0.1790   -5.3210   -0.9020 c3        1 208     -0.040000
      5 C13         1.5440   -5.1080   -1.5000 c2        1 208      0.317000
      6 O22         2.5500   -5.7240   -1.0220 o         1 208     -0.571000
      7 O20         1.6980   -4.2800   -2.4430 o         1 208     -0.571000
      8 C19         0.1180   -4.6640    0.4620 c3        1 208     -0.148000
      9 C18        -0.2520   -3.1240    0.2960 c2        1 208     -0.074000
     10 C21        -1.4760   -2.7140    0.8120 c1        1 208     -0.119000
     11 C17         0.6240   -2.1840   -0.2600 c2        1 208     -0.072000
     12 C11         0.2610   -0.8060   -0.2960 c1        1 208     -0.083000
     13 C12         0.8690    0.2910   -0.8740 c1        1 208     -0.172000
     14 C10         0.0240    1.3810   -0.7180 c1        1 208     -0.105000
     15 C8         -0.9460   -0.4010    0.2120 c1        1 208     -0.020000
     16 C14        -1.8340   -1.3540    0.7750 c1        1 208     -0.177000
     17 N4         -1.0900    0.9590   -0.0510 n1        1 208     -0.185000
     18 C9         -2.1170    1.9330    0.2740 c2        1 208      0.066000
     19 C3         -1.4550    3.2280    0.7630 c2        1 208     -0.172000
     20 C7         -2.0790    4.2360    1.4650 c1        1 208     -0.008000
     21 C26        -3.4740    4.1660    2.0900 c2        1 208     -0.170000
     22 O5         -1.2170    5.2600    1.5750 os        1 208     -0.111000
     23 N2         -0.2100    3.6480    0.4500 n2        1 208     -0.120000
     24 C1         -0.0520    4.9040    0.9470 c2        1 208      0.015000
     25 C6          1.0620    5.7480    0.7270 c1        1 208     -0.001000
     26 C16         2.2190    5.5650    1.4550 c1        1 208     -0.030000
     27 CL23        2.2900    4.3220    2.6900 cl        1 208      0.014000
     28 C27         3.3180    6.4110    1.2470 c1        1 208     -0.137000
     29 C31         3.2420    7.4300    0.3090 c1        1 208     -0.126000
     30 C29         2.0730    7.6130   -0.4250 c1        1 208     -0.126000
     31 C24         0.9840    6.7750   -0.2180 c1        1 208     -0.085000
     32 H301        0.8380   -9.1580   -2.5990 hc        1 208      0.062000
     33 H302       -0.4320   -9.4490   -1.6630 hc        1 208      0.062000
     34 H303        0.9550   -8.9030   -1.0270 hc        1 208      0.062000
     35 H281       -1.0480   -7.4060   -2.3640 h1        1 208      0.088000
     36 H282        0.4610   -6.9690   -2.6580 h1        1 208      0.088000
     37 H15        -0.4950   -4.9260   -1.4820 h1        1 208      0.103000
     38 H191        0.9950   -4.7440    0.9040 hc        1 208      0.090500
     39 H192       -0.5620   -5.1060    1.0060 hc        1 208      0.090500
     40 H21        -2.1060   -3.3680    1.1360 ha        1 208      0.119000
     41 H17         1.5080   -2.4680   -0.5810 ha        1 208      0.210000
     42 H12         1.7480    0.2960   -1.3290 DU        1 208      0.159000
     43 H10         0.2240    2.3030   -0.9750 DU        1 208      0.159000
     44 H14        -2.7300   -1.0690    1.0920 ha        1 208      0.114000
     45 H91        -2.6580    2.1230   -0.5300 ha        1 208      0.108500
     46 H92        -2.7060    1.5690    0.9920 ha        1 208      0.108500
     47 H261       -3.5810    4.9010    2.7380 ha        1 208      0.114667
     48 H262       -4.1500    4.2490    1.3880 ha        1 208      0.114667
     49 H263       -3.5850    3.3020    2.5510 ha        1 208      0.114667
     50 H27         4.1500    6.2790    1.7710 ha        1 208      0.147000
     51 H31         3.9740    8.0780    0.2310 ha        1 208      0.135000
     52 H29         2.0170    8.3400   -1.0940 ha        1 208      0.135000
     53 H24         0.1540    6.9060   -0.7410 ha        1 208      0.152000
@<TRIPOS>BOND
     1    1    2 1   
     2    1   32 1   
     3    1   33 1   
     4    1   34 1   
     5    2    3 1   
     6    2   35 1   
     7    2   36 1   
     8    3    4 1   
     9    4    5 1   
    10    4    8 1   
    11    4   37 1   
    12    5    6 1   
    13    5    7 1   
    14    8    9 1   
    15    8   38 1   
    16    8   39 1   
    17    9   10 1   
    18    9   11 1   
    19   10   40 1   
    20   11   12 1   
    21   11   41 1   
    22   13   14 1   
    23   14   17 1   
    24   15   16 1   
    25   16   44 1   
    26   18   19 1   
    27   18   45 1   
    28   18   46 1   
    29   19   20 1   
    30   19   23 1   
    31   20   22 1   
    32   21   47 1   
    33   21   48 1   
    34   21   49 1   
    35   22   24 1   
    36   23   24 1   
    37   24   25 1   
    38   25   31 1   
    39   26   27 1   
    40   26   28 1   
    41   28   50 1   
    42   29   30 1   
    43   29   51 1   
    44   30   52 1   
    45   31   53 1   
@<TRIPOS>SUBSTRUCTURE
     1 208         1 TEMP              0 ****  ****    0 ROOT
