@<TRIPOS>MOLECULE
208
   53    56     1     0     0
SMALL
bcc


@<TRIPOS>ATOM
      1 C30        -6.5650   -2.0770    0.7750 c3        1 208     -0.096100
      2 C28        -6.8250   -0.6550    0.3250 c3        1 208      0.133400
      3 O25        -5.6280   -0.1920   -0.2940 os        1 208     -0.455600
      4 C15        -5.5750    1.2370   -0.4390 c3        1 208      0.024100
      5 C13        -6.8790    1.8270   -1.0500 c         1 208      0.897600
      6 O22        -6.8320    2.3450   -2.1990 o         1 208     -0.835300
      7 O20        -7.9170    1.7840   -0.3300 o         1 208     -0.835300
      8 C19        -4.3620    1.5220   -1.3160 c3        1 208     -0.040100
      9 C18        -3.0720    1.5860   -0.5760 ca        1 208     -0.066300
     10 C21        -2.7650    0.6030    0.3890 ca        1 208     -0.103000
     11 C17        -2.1560    2.5990   -0.8560 ca        1 208     -0.098000
     12 C11        -0.9300    2.6150   -0.1930 ca        1 208     -0.094800
     13 C12         0.2230    3.4940   -0.2430 cc        1 208     -0.181200
     14 C10         1.1560    3.0030    0.6570 cd        1 208     -0.120100
     15 C8         -0.6260    1.5950    0.7800 ca        1 208     -0.068200
     16 C14        -1.5600    0.5920    1.0750 ca        1 208     -0.169000
     17 N4          0.6410    1.8800    1.3370 na        1 208     -0.085400
     18 C9          1.4490    0.9410    2.0550 c3        1 208      0.028000
     19 C3          2.4600    0.1990    1.2370 cc        1 208      0.189300
     20 C7          2.2360   -0.7650    0.2530 cd        1 208      0.213700
     21 C26         1.0560   -1.3860   -0.3470 c3        1 208     -0.146400
     22 O5          3.4820   -1.1850   -0.2200 os        1 208     -0.386800
     23 N2          3.8460    0.3920    1.3840 nc        1 208     -0.630000
     24 C1          4.4310   -0.4370    0.5180 cd        1 208      0.521900
     25 C6          5.8240   -0.6800    0.1840 ca        1 208     -0.111500
     26 C16         6.8660   -0.4770    1.1050 ca        1 208      0.049400
     27 CL23        6.5750    0.0390    2.6940 cl        1 208     -0.061400
     28 C27         8.1940   -0.7120    0.7220 ca        1 208     -0.139000
     29 C31         8.4840   -1.1520   -0.5660 ca        1 208     -0.112000
     30 C29         7.4530   -1.3650   -1.4820 ca        1 208     -0.138000
     31 C24         6.1340   -1.1300   -1.1100 ca        1 208     -0.091000
     32 H301       -7.4870   -2.4910    1.2470 hc        1 208      0.022367
     33 H302       -6.2830   -2.7160   -0.0950 hc        1 208      0.022367
     34 H303       -5.7310   -2.1090    1.5150 hc        1 208      0.022367
     35 H281       -7.6620   -0.6090   -0.4220 h1        1 208      0.051200
     36 H282       -7.0940    0.0050    1.1920 h1        1 208      0.051200
     37 H15        -5.4390    1.6790    0.5870 h1        1 208      0.022700
     38 H191       -4.2890    0.7170   -2.0970 hc        1 208      0.074200
     39 H192       -4.5580    2.4900   -1.8550 hc        1 208      0.074200
     40 H21        -3.5250   -0.1730    0.5930 ha        1 208      0.164000
     41 H17        -2.3970    3.3820   -1.5890 ha        1 208      0.137000
     42 H12         0.3160    4.3760   -0.8670 ha        1 208      0.148000
     43 H10         2.1530    3.3740    0.9020 h4        1 208      0.160000
     44 H14        -1.3530   -0.1740    1.8330 ha        1 208      0.118000
     45 H91         1.9810    1.5070    2.8760 h1        1 208      0.072200
     46 H92         0.7630    0.1810    2.5310 h1        1 208      0.072200
     47 H261        0.9800   -2.4580   -0.0320 hc        1 208      0.073700
     48 H262        0.1340   -0.8380   -0.0200 hc        1 208      0.073700
     49 H263        1.1220   -1.3510   -1.4640 hc        1 208      0.073700
     50 H27         9.0080   -0.5470    1.4440 ha        1 208      0.146000
     51 H31         9.5290   -1.3330   -0.8590 ha        1 208      0.135000
     52 H29         7.6820   -1.7150   -2.4990 ha        1 208      0.138000
     53 H24         5.3150   -1.2970   -1.8290 ha        1 208      0.156000
@<TRIPOS>BOND
     1    1    2 1   
     2    1   32 1   
     3    1   33 1   
     4    1   34 1   
     5    2    3 1   
     6    2   35 1   
     7    2   36 1   
     8    3    4 1   
     9    4    5 1   
    10    4    8 1   
    11    4   37 1   
    12    5    6 1   
    13    5    7 1   
    14    8    9 1   
    15    8   38 1   
    16    8   39 1   
    17    9   10 ar  
    18    9   11 ar  
    19   10   16 ar  
    20   10   40 1   
    21   11   12 ar  
    22   11   41 1   
    23   12   13 1   
    24   12   15 ar  
    25   13   14 2   
    26   13   42 1   
    27   14   17 1   
    28   14   43 1   
    29   15   16 ar  
    30   15   17 1   
    31   16   44 1   
    32   17   18 1   
    33   18   19 1   
    34   18   45 1   
    35   18   46 1   
    36   19   20 2   
    37   19   23 1   
    38   20   21 1   
    39   20   22 1   
    40   21   47 1   
    41   21   48 1   
    42   21   49 1   
    43   22   24 1   
    44   23   24 2   
    45   24   25 1   
    46   25   26 ar  
    47   25   31 ar  
    48   26   27 1   
    49   26   28 ar  
    50   28   29 ar  
    51   28   50 1   
    52   29   30 ar  
    53   29   51 1   
    54   30   31 ar  
    55   30   52 1   
    56   31   53 1   
@<TRIPOS>SUBSTRUCTURE
     1 208         1 TEMP              0 ****  ****    0 ROOT
