@<TRIPOS>MOLECULE
209
   23    24     1     0     0
SMALL
bcc


@<TRIPOS>ATOM
      1 N1          0.0360   -0.0480   -0.0310 n         1 209     -0.493400
      2 C2          1.4580   -0.0760   -0.0370 c         1 209      0.657000
      3 C3          2.0690   -0.0440    1.2870 cc        1 209      0.196800
      4 C4          1.2520    0.0120    2.4630 cd        1 209     -0.005000
      5 N5         -0.1320    0.0380    2.4220 n         1 209     -0.353000
      6 C6         -0.7500    0.0070    1.1390 c         1 209      0.823500
      7 N7          3.4140   -0.0590    1.6360 nc        1 209     -0.589000
      8 C8          3.4400   -0.0140    2.9990 cd        1 209      0.541400
      9 N9          2.1150    0.0310    3.5510 na        1 209     -0.309900
     10 N10         4.5550   -0.0070    3.8780 nv        1 209     -0.877500
     11 C11        -0.9160    0.0940    3.6230 c3        1 209      0.078300
     12 C15        -0.6900   -0.0750   -1.2800 c3        1 209      0.079300
     13 O19        -1.9980    0.0300    1.0740 o         1 209     -0.635500
     14 O20         2.0710   -0.1250   -1.1120 o         1 209     -0.581500
     15 HN9         1.8770    0.0680    4.5080 hn        1 209      0.319700
     16 H101        5.1260    0.7990    3.6970 hn        1 209      0.387800
     17 H102        5.0930   -0.8450    3.7530 hn        1 209      0.387800
     18 H111       -0.7010   -0.8050    4.2610 h1        1 209      0.061367
     19 H112       -0.6650    1.0240    4.2000 h1        1 209      0.061367
     20 H113       -2.0090    0.1070    3.3600 h1        1 209      0.061367
     21 H151       -1.3310    0.8430   -1.3630 h1        1 209      0.063700
     22 H152        0.0360   -0.1110   -2.1350 h1        1 209      0.063700
     23 H153       -1.3550   -0.9800   -1.3090 h1        1 209      0.063700
@<TRIPOS>BOND
     1    1    2 1   
     2    1    6 1   
     3    1   12 1   
     4    2    3 1   
     5    2   14 2   
     6    3    4 2   
     7    3    7 1   
     8    4    5 1   
     9    4    9 1   
    10    5    6 1   
    11    5   11 1   
    12    6   13 2   
    13    7    8 2   
    14    8    9 1   
    15    8   10 1   
    16    9   15 1   
    17   10   16 1   
    18   10   17 1   
    19   11   18 1   
    20   11   19 1   
    21   11   20 1   
    22   12   21 1   
    23   12   22 1   
    24   12   23 1   
@<TRIPOS>SUBSTRUCTURE
     1 209         1 TEMP              0 ****  ****    0 ROOT
