@<TRIPOS>MOLECULE
209
   23    24     1     0     0
SMALL
bcc


@<TRIPOS>ATOM
      1 N1          0.6880   -0.0410    1.7710 n         1 209     -0.493400
      2 C2          1.4890   -0.0750    0.5970 c         1 209      0.657000
      3 C3          0.7350   -0.0430   -0.6500 cc        1 209      0.196800
      4 C4         -0.6970    0.0170   -0.6330 cd        1 209     -0.005000
      5 N5         -1.4380    0.0480    0.5360 n         1 209     -0.353000
      6 C6         -0.7220    0.0180    1.7670 c         1 209      0.823500
      7 N7          1.2000   -0.0620   -1.9600 nc        1 209     -0.589000
      8 C8          0.0850   -0.0150   -2.7450 cd        1 209      0.541400
      9 N9         -1.1150    0.0350   -1.9570 na        1 209     -0.309900
     10 N10        -0.0180   -0.0110   -4.1620 nh        1 209     -0.877500
     11 C11        -2.8720    0.1090    0.5130 c3        1 209      0.078300
     12 C15         1.3160   -0.0680    3.0730 c3        1 209      0.079300
     13 O19        -1.3670    0.0450    2.8370 o         1 209     -0.635500
     14 O20         2.7230   -0.1260    0.6920 o         1 209     -0.581500
     15 HN9        -2.0400    0.0740   -2.2960 hn        1 209      0.319700
     16 H101        0.4530    0.7930   -4.5350 hn        1 209      0.387800
     17 H102        0.3840   -0.8510   -4.5350 hn        1 209      0.387800
     18 H111       -3.2660    0.1250    1.5650 h1        1 209      0.061367
     19 H112       -3.2060    1.0390   -0.0210 h1        1 209      0.061367
     20 H113       -3.2830   -0.7900   -0.0210 h1        1 209      0.061367
     21 H151        0.9570   -0.9640    3.6460 h1        1 209      0.063700
     22 H152        2.4300   -0.1160    2.9510 h1        1 209      0.063700
     23 H153        1.0360    0.8580    3.6440 h1        1 209      0.063700
@<TRIPOS>BOND
     1    1    2 1   
     2    1    6 1   
     3    1   12 1   
     4    2    3 1   
     5    2   14 2   
     6    3    4 2   
     7    3    7 1   
     8    4    5 1   
     9    4    9 1   
    10    5    6 1   
    11    5   11 1   
    12    6   13 2   
    13    7    8 2   
    14    8    9 1   
    15    8   10 1   
    16    9   15 1   
    17   10   16 1   
    18   10   17 1   
    19   11   18 1   
    20   11   19 1   
    21   11   20 1   
    22   12   21 1   
    23   12   22 1   
    24   12   23 1   
@<TRIPOS>SUBSTRUCTURE
     1 209         1 TEMP              0 ****  ****    0 ROOT
