@<TRIPOS>MOLECULE
209
   23    17     1     0     0
SMALL
bcc


@<TRIPOS>ATOM
      1 N1         -1.0410   -0.0020   -1.6960 n2        1 209     -0.322000
      2 C2          0.3010   -0.0020   -1.6960 c1        1 209      0.404000
      3 C3          0.9940   -0.0020   -0.4960 c1        1 209     -0.221000
      4 C4          0.3180   -0.0020    0.6710 c1        1 209      0.092000
      5 N5         -1.0450   -0.0020    0.6680 n2        1 209     -0.256000
      6 C6         -1.7250   -0.0020   -0.5150 c1        1 209      0.414000
      7 N7          2.3240   -0.0020   -0.2100 n1        1 209     -0.129500
      8 C8          2.4630   -0.0020    1.1340 c1        1 209     -0.003000
      9 N9          1.2270   -0.0020    1.6830 n1        1 209     -0.129500
     10 N10         3.7850   -0.0010    1.6470 n2        1 209     -0.275000
     11 C11        -1.7600   -0.0030    1.8990 c3        1 209     -0.077000
     12 C15        -1.7530    0.0030   -2.9300 c3        1 209     -0.076000
     13 O19        -2.9400   -0.0010   -0.5160 o         1 209     -0.360000
     14 O20         0.9090    0.0210   -2.7480 o         1 209     -0.306000
     15 HN9         1.0370   -0.0020    2.5750 DU        1 209      0.270000
     16 H101        3.9250    0.0000    2.5480 hn        1 209      0.183000
     17 H102        4.4960   -0.0000    1.0750 hn        1 209      0.183000
     18 H111       -1.5440   -0.8130    2.4000 h1        1 209      0.100667
     19 H112       -2.7190    0.0230    1.7190 h1        1 209      0.100667
     20 H113       -1.5060    0.7800    2.4240 h1        1 209      0.100667
     21 H151       -2.6840   -0.2420   -2.7690 h1        1 209      0.103000
     22 H152       -1.3480   -0.6410   -3.5410 h1        1 209      0.103000
     23 H153       -1.7140    0.8950   -3.3240 h1        1 209      0.103000
@<TRIPOS>BOND
     1    1    6 1   
     2    1   12 1   
     3    2    3 1   
     4    2   14 1   
     5    4    5 1   
     6    5   11 1   
     7    6   13 1   
     8    7    8 1   
     9    8    9 1   
    10   10   16 1   
    11   10   17 1   
    12   11   18 1   
    13   11   19 1   
    14   11   20 1   
    15   12   21 1   
    16   12   22 1   
    17   12   23 1   
@<TRIPOS>SUBSTRUCTURE
     1 209         1 TEMP              0 ****  ****    0 ROOT
