@<TRIPOS>MOLECULE
209
   24    25     1     0     0
SMALL
bcc


@<TRIPOS>ATOM
      1 N1          0.0170    0.0120   -0.0540 n         1 209     -0.483400
      2 C2          1.4310    0.0130   -0.0880 c         1 209      0.652000
      3 C3          2.0730   -0.0010    1.2350 cc        1 209      0.207800
      4 C4          1.2620   -0.0160    2.4410 cd        1 209      0.084000
      5 N5         -0.1050   -0.0180    2.4200 n         1 209     -0.341000
      6 C6         -0.7510   -0.0030    1.1260 c         1 209      0.821500
      7 N7          3.4050   -0.0040    1.5480 nc        1 209     -0.462000
      8 C8          3.4460   -0.0200    2.9220 cd        1 209      0.312400
      9 N9          2.1420   -0.0280    3.5180 na        1 209     -0.310900
     10 N10         4.6760   -0.0280    3.6930 n4        1 209     -0.763300
     11 C11        -0.8880   -0.0320    3.6290 c3        1 209      0.057300
     12 C15        -0.7320    0.0260   -1.2970 c3        1 209      0.071300
     13 O19        -1.9930   -0.0040    1.1040 o         1 209     -0.562500
     14 O20         2.0510    0.0270   -1.1550 o         1 209     -0.528500
     15 HN9         1.9150   -0.0400    4.4790 hn        1 209      0.334700
     16 H101        4.7250   -0.8770    4.2700 hn        1 209      0.477467
     17 H102        4.7230    0.8070    4.2890 hn        1 209      0.477467
     18 H111       -0.6590    0.8800    4.2420 h1        1 209      0.078700
     19 H112       -0.6570   -0.9580    4.2210 h1        1 209      0.078700
     20 H113       -1.9830   -0.0300    3.3660 h1        1 209      0.078700
     21 H151       -1.3830    0.9400   -1.3290 h1        1 209      0.080033
     22 H152       -0.0180    0.0350   -2.1630 h1        1 209      0.080033
     23 H153       -1.3830   -0.8880   -1.3490 h1        1 209      0.080033
     24 H103        5.4720   -0.0190    3.0340 hn        1 209      0.477467
@<TRIPOS>BOND
     1    1    2 1   
     2    1    6 1   
     3    1   12 1   
     4    2    3 1   
     5    2   14 2   
     6    3    4 2   
     7    3    7 1   
     8    4    5 1   
     9    4    9 1   
    10    5    6 1   
    11    5   11 1   
    12    6   13 2   
    13    7    8 2   
    14    8    9 1   
    15    8   10 1   
    16    9   15 1   
    17   10   16 1   
    18   10   17 1   
    19   10   24 1   
    20   11   18 1   
    21   11   19 1   
    22   11   20 1   
    23   12   21 1   
    24   12   22 1   
    25   12   23 1   
@<TRIPOS>SUBSTRUCTURE
     1 209         1 TEMP              0 ****  ****    0 ROOT
