@<TRIPOS>MOLECULE
20A
   53    47     1     0     0
SMALL
bcc


@<TRIPOS>ATOM
      1 O14        -0.9910   -1.1250    1.9920 o         1 20A     -0.370000
      2 C8         -0.9210   -0.0190    1.3990 c1        1 20A      0.360000
      3 N5         -1.5160    1.2180    2.0420 n3        1 20A     -0.365000
      4 C18        -1.9460    1.1600    3.3300 c3        1 20A      0.001000
      5 C22        -3.4940    1.4860    3.3820 c2        1 20A     -0.114000
      6 C24        -4.4280    0.4560    3.6350 c1        1 20A     -0.110000
      7 C26        -5.7500    0.7590    3.8140 c1        1 20A     -0.126500
      8 C4         -6.1730    2.0770    3.7460 c1        1 20A     -0.126500
      9 C27        -5.2420    3.1090    3.4920 c1        1 20A     -0.130000
     10 C25        -3.9220    2.8070    3.3140 c2        1 20A     -0.125000
     11 C3         -0.1250    0.0980    0.0700 c1        1 20A     -0.291000
     12 C7         -1.3120    0.1390   -0.5950 c2        1 20A      0.018000
     13 N11        -1.3340    0.0810   -1.9360 n1        1 20A     -0.170000
     14 C13        -0.1320   -0.0210   -2.6590 c1        1 20A     -0.092000
     15 N10         0.1290    0.1620   -3.9970 n1        1 20A     -0.136000
     16 C17        -0.3270   -0.3710   -5.2190 c2        1 20A      0.002000
     17 C21        -0.5040    0.7970   -6.2750 c3        1 20A     -0.238000
     18 N12         1.4750    0.2310   -4.1560 n2        1 20A     -0.042000
     19 C2          1.0340   -0.0620   -2.0130 c1        1 20A     -0.092000
     20 C6          2.0440    0.0950   -2.9430 c1        1 20A     -0.137000
     21 C1          1.0600   -0.0030   -0.6380 c1        1 20A      0.239000
     22 N4          2.1760   -0.9710   -0.4540 n3        1 20A     -0.288000
     23 C9          3.2010   -0.7380    0.6350 c3        1 20A      0.012000
     24 C15         4.5190   -0.5080    0.0120 c3        1 20A     -0.210500
     25 C19         5.0750   -1.7550   -0.6430 c3        1 20A     -0.027000
     26 O23         5.0760   -2.8870    0.2460 os        1 20A     -0.271000
     27 C20         3.7600   -3.1230    0.8770 c3        1 20A     -0.027000
     28 C16         3.2090   -1.8890    1.5330 c3        1 20A     -0.210500
     29 HN5        -1.7330    1.9520    1.5190 hn        1 20A      0.224000
     30 H18        -1.4340    1.8410    3.8920 h1        1 20A      0.109000
     31 H18A       -1.7890    0.2610    3.6840 h1        1 20A      0.109000
     32 H24        -4.1340   -0.4630    3.6830 ha        1 20A      0.141000
     33 H26        -6.3920    0.0500    3.9880 ha        1 20A      0.134000
     34 H4         -7.0570    2.2790    3.8650 ha        1 20A      0.134000
     35 H27        -5.5500    4.0610    3.4430 ha        1 20A      0.133000
     36 H25        -3.2600    3.5410    3.1340 ha        1 20A      0.129000
     37 H7         -2.1520    0.1800   -0.0950 h4        1 20A      0.166000
     38 H17         0.3050   -0.9930   -5.5430 ha        1 20A      0.113500
     39 H17A       -1.2370   -0.8460   -5.0740 ha        1 20A      0.113500
     40 H21        -1.0260    0.4630   -7.0600 hc        1 20A      0.089333
     41 H21A       -0.9750    1.5280   -5.8670 hc        1 20A      0.089333
     42 H21B        0.4290    1.1200   -6.5930 hc        1 20A      0.089333
     43 H6          2.9830    0.1050   -2.7560 DU        1 20A      0.180000
     44 HN4         2.3210   -1.6780   -1.1150 hn        1 20A      0.208000
     45 H9          2.9500    0.0600    1.1460 h1        1 20A      0.121000
     46 H15         5.1540   -0.2050    0.7120 hc        1 20A      0.111000
     47 H15A        4.4380    0.1550   -0.6260 hc        1 20A      0.111000
     48 H19         5.9530   -1.5820   -0.9130 h1        1 20A      0.086250
     49 H19A        4.4980   -1.9850   -1.4870 h1        1 20A      0.086250
     50 H20         3.1490   -3.4200    0.2130 h1        1 20A      0.086250
     51 H20A        3.8650   -3.8940    1.6250 h1        1 20A      0.086250
     52 H16         3.8120   -1.6550    2.3830 hc        1 20A      0.111000
     53 H16A        2.2390   -2.0760    1.8500 hc        1 20A      0.111000
@<TRIPOS>BOND
     1    1    2 1   
     2    2    3 1   
     3    3    4 1   
     4    3   29 1   
     5    4    5 1   
     6    4   30 1   
     7    4   31 1   
     8    5    6 1   
     9    5   10 1   
    10    6   32 1   
    11    7    8 1   
    12    7   33 1   
    13    8   34 1   
    14    9   10 1   
    15    9   35 1   
    16   10   36 1   
    17   11   12 1   
    18   11   21 1   
    19   12   13 1   
    20   12   37 1   
    21   14   19 1   
    22   15   18 1   
    23   16   17 1   
    24   16   38 1   
    25   16   39 1   
    26   17   40 1   
    27   17   41 1   
    28   17   42 1   
    29   18   20 1   
    30   21   22 1   
    31   22   23 1   
    32   22   44 1   
    33   23   24 1   
    34   23   28 1   
    35   23   45 1   
    36   24   25 1   
    37   24   46 1   
    38   24   47 1   
    39   25   26 1   
    40   25   48 1   
    41   25   49 1   
    42   26   27 1   
    43   27   28 1   
    44   27   50 1   
    45   27   51 1   
    46   28   52 1   
    47   28   53 1   
@<TRIPOS>SUBSTRUCTURE
     1 20A         1 TEMP              0 ****  ****    0 ROOT
