@<TRIPOS>MOLECULE
20A
   54    57     1     0     0
SMALL
bcc


@<TRIPOS>ATOM
      1 O14         0.1980   -1.0090   -0.4530 o         1 20A     -0.457100
      2 C8          1.3510   -0.6030   -0.5470 c         1 20A      0.603700
      3 N5          2.0260   -0.3600    0.8070 n4        1 20A     -0.687800
      4 C18         1.3750    0.7780    1.5350 c3        1 20A      0.176100
      5 C22         1.9290    0.9280    2.9090 ca        1 20A     -0.190300
      6 C24         1.3510    0.2260    3.9740 ca        1 20A     -0.101500
      7 C26         1.8480    0.3920    5.2650 ca        1 20A     -0.118500
      8 C4          2.9190    1.2570    5.4970 ca        1 20A     -0.079000
      9 C27         3.4950    1.9590    4.4360 ca        1 20A     -0.118500
     10 C25         3.0020    1.7960    3.1420 ca        1 20A     -0.101500
     11 C3          2.1770   -0.3570   -1.7000 ca        1 20A     -0.475900
     12 C7          3.4960   -0.9350   -1.7200 ca        1 20A      0.487200
     13 N11         4.3230   -0.9910   -2.7430 nb        1 20A     -0.652000
     14 C13         3.8350   -0.4260   -3.9080 ca        1 20A      0.467800
     15 N10         4.4360   -0.3020   -5.1660 na        1 20A      0.042200
     16 C17         5.7220   -0.8800   -5.5500 c3        1 20A      0.052300
     17 C21         5.6110   -2.1670   -6.3480 c3        1 20A     -0.120100
     18 N12         3.6060    0.3150   -6.0330 nc        1 20A     -0.483100
     19 C2          2.5360    0.2070   -4.0120 ca        1 20A     -0.426200
     20 C6          2.4690    0.6500   -5.3880 cd        1 20A      0.383800
     21 C1          1.6760    0.2850   -2.8790 ca        1 20A      0.401600
     22 N4          0.4990    0.9490   -3.0150 nh        1 20A     -0.732600
     23 C9         -0.3490    1.5120   -1.9820 c3        1 20A      0.228500
     24 C15        -1.7290    0.8350   -1.9210 c3        1 20A     -0.136400
     25 C19        -2.5670    1.4850   -0.8340 c3        1 20A      0.126900
     26 O23        -2.7050    2.8860   -1.0320 os        1 20A     -0.393600
     27 C20        -1.4590    3.5640   -1.0870 c3        1 20A      0.126900
     28 C16        -0.5660    3.0240   -2.1920 c3        1 20A     -0.136400
     29 HN5         1.9440   -1.2030    1.3850 hn        1 20A      0.451300
     30 H18         1.5480    1.7130    0.9270 hx        1 20A      0.106200
     31 H18A        0.2660    0.5650    1.5670 hx        1 20A      0.106200
     32 H24         0.4960   -0.4450    3.7980 ha        1 20A      0.139500
     33 H26         1.3900   -0.1560    6.1040 ha        1 20A      0.159500
     34 H4          3.3080    1.3900    6.5200 ha        1 20A      0.160000
     35 H27         4.3350    2.6470    4.6200 ha        1 20A      0.159500
     36 H25         3.4500    2.3630    2.3110 ha        1 20A      0.139500
     37 H7          3.8840   -1.4390   -0.8130 h4        1 20A      0.012100
     38 H17         6.2970   -1.0650   -4.5990 h1        1 20A      0.084700
     39 H17A        6.2720   -0.1060   -6.1610 h1        1 20A      0.084700
     40 H21         6.6460   -2.5130   -6.5920 hc        1 20A      0.060700
     41 H21A        5.0550   -2.0060   -7.3030 hc        1 20A      0.060700
     42 H21B        5.0970   -2.9670   -5.7640 hc        1 20A      0.060700
     43 H6          1.6550    1.1720   -5.8960 h4        1 20A      0.066800
     44 HN4         0.2690    1.2500   -3.9420 hn        1 20A      0.454800
     45 H9          0.1630    1.3810   -0.9820 h1        1 20A      0.031700
     46 H15        -1.6210   -0.2590   -1.7030 hc        1 20A      0.073450
     47 H15A       -2.2480    0.9440   -2.9090 hc        1 20A      0.073450
     48 H19        -2.1180    1.2900    0.1760 h1        1 20A      0.057200
     49 H19A       -3.6230    1.1010   -0.8610 h1        1 20A      0.057200
     50 H20        -1.7380    4.6340   -1.2880 h1        1 20A      0.057200
     51 H20A       -0.9420    3.4880   -0.0930 h1        1 20A      0.057200
     52 H16         0.4100    3.5710   -2.1800 hc        1 20A      0.073450
     53 H16A       -1.0580    3.2050   -3.1830 hc        1 20A      0.073450
     54 H52         3.0190   -0.1490    0.6760 hn        1 20A      0.451300
@<TRIPOS>BOND
     1    1    2 2   
     2    2    3 1   
     3    2   11 1   
     4    3    4 1   
     5    3   29 1   
     6    3   54 1   
     7    4    5 1   
     8    4   30 1   
     9    4   31 1   
    10    5    6 ar  
    11    5   10 ar  
    12    6    7 ar  
    13    6   32 1   
    14    7    8 ar  
    15    7   33 1   
    16    8    9 ar  
    17    8   34 1   
    18    9   10 ar  
    19    9   35 1   
    20   10   36 1   
    21   11   12 ar  
    22   11   21 ar  
    23   12   13 ar  
    24   12   37 1   
    25   13   14 ar  
    26   14   15 1   
    27   14   19 ar  
    28   15   16 1   
    29   15   18 1   
    30   16   17 1   
    31   16   38 1   
    32   16   39 1   
    33   17   40 1   
    34   17   41 1   
    35   17   42 1   
    36   18   20 2   
    37   19   20 1   
    38   19   21 ar  
    39   20   43 1   
    40   21   22 1   
    41   22   23 1   
    42   22   44 1   
    43   23   24 1   
    44   23   28 1   
    45   23   45 1   
    46   24   25 1   
    47   24   46 1   
    48   24   47 1   
    49   25   26 1   
    50   25   48 1   
    51   25   49 1   
    52   26   27 1   
    53   27   28 1   
    54   27   50 1   
    55   27   51 1   
    56   28   52 1   
    57   28   53 1   
@<TRIPOS>SUBSTRUCTURE
     1 20A         1 TEMP              0 ****  ****    0 ROOT
