@<TRIPOS>MOLECULE
20A
   55    58     1     0     0
SMALL
bcc


@<TRIPOS>ATOM
      1 O14         0.1420    0.3520    0.2610 o         1 20A     -0.488100
      2 C8          1.3580    0.2300    0.0910 c         1 20A      0.575700
      3 N5          2.1830    0.1170    1.3350 n4        1 20A     -0.670800
      4 C18         1.3630    0.0810    2.6130 c3        1 20A      0.196100
      5 C22         2.2690   -0.0370    3.7810 ca        1 20A     -0.218300
      6 C24         2.6070   -1.3030    4.2800 ca        1 20A     -0.095000
      7 C26         3.4060   -1.4110    5.4160 ca        1 20A     -0.115000
      8 C4          3.8700   -0.2590    6.0570 ca        1 20A     -0.057000
      9 C27         3.5340    1.0030    5.5620 ca        1 20A     -0.115000
     10 C25         2.7350    1.1170    4.4260 ca        1 20A     -0.095000
     11 C3          2.0360    0.1780   -1.2000 ca        1 20A     -0.362900
     12 C7          3.4690    0.0970   -1.2800 ca        1 20A      0.475200
     13 N11         4.1970    0.0080   -2.3830 nb        1 20A     -0.589000
     14 C13         3.4960   -0.0090   -3.5600 ca        1 20A      0.485800
     15 N10         3.9300   -0.0870   -4.8820 na        1 20A      0.062200
     16 C17         5.3280   -0.2400   -5.3220 c3        1 20A      0.047300
     17 C21         5.6440   -1.6080   -5.8910 c3        1 20A     -0.126100
     18 N12         2.8820   -0.0730   -5.7300 nc        1 20A     -0.400100
     19 C2          2.0200    0.0870   -3.6130 ca        1 20A     -0.350200
     20 C6          1.7340    0.0360   -5.0390 cd        1 20A      0.358800
     21 C1          1.3110    0.1890   -2.4240 ca        1 20A      0.185600
     22 N4         -0.1490    0.2840   -2.4940 n4        1 20A     -0.669400
     23 C9         -0.6590    1.7240   -2.5690 c3        1 20A      0.142500
     24 C15        -2.0500    1.8190   -1.9330 c3        1 20A     -0.148900
     25 C19        -2.5550    3.2550   -2.0670 c3        1 20A      0.125400
     26 O23        -2.5740    3.6610   -3.4250 os        1 20A     -0.370600
     27 C20        -1.2880    3.6400   -4.0230 c3        1 20A      0.125400
     28 C16        -0.7080    2.2260   -4.0120 c3        1 20A     -0.148900
     29 HN5         2.8270    0.9180    1.3880 hn        1 20A      0.467800
     30 H18         0.7550    1.0310    2.6470 hx        1 20A      0.116700
     31 H18A        0.6610   -0.7980    2.5350 hx        1 20A      0.116700
     32 H24         2.2230   -2.2140    3.7950 ha        1 20A      0.138500
     33 H26         3.6630   -2.4060    5.8160 ha        1 20A      0.170000
     34 H4          4.4960   -0.3470    6.9620 ha        1 20A      0.174000
     35 H27         3.8910    1.9110    6.0770 ha        1 20A      0.170000
     36 H25         2.4520    2.1150    4.0560 ha        1 20A      0.138500
     37 H7          4.0970    0.1110   -0.3650 h4        1 20A      0.043100
     38 H17         5.5130    0.5530   -6.1060 h1        1 20A      0.101200
     39 H17A        5.9760   -0.0280   -4.4250 h1        1 20A      0.101200
     40 H21         5.0230   -1.8340   -6.7920 hc        1 20A      0.074700
     41 H21A        5.4940   -2.4170   -5.1360 hc        1 20A      0.074700
     42 H21B        6.7220   -1.6070   -6.1990 hc        1 20A      0.074700
     43 H6          0.7620    0.0750   -5.5430 h4        1 20A      0.086800
     44 HN4        -0.5720   -0.1640   -1.6650 hn        1 20A      0.473800
     45 H9          0.0690    2.3480   -1.9710 hx        1 20A      0.102700
     46 H15        -2.7700    1.1350   -2.4540 hc        1 20A      0.081200
     47 H15A       -2.0100    1.5430   -0.8460 hc        1 20A      0.081200
     48 H19        -1.9220    3.9530   -1.4580 h1        1 20A      0.086200
     49 H19A       -3.6300    3.3240   -1.7410 h1        1 20A      0.086200
     50 H20        -0.5990    4.3520   -3.4970 h1        1 20A      0.086200
     51 H20A       -1.4660    3.9830   -5.0790 h1        1 20A      0.086200
     52 H16         0.3170    2.2440   -4.4650 hc        1 20A      0.081200
     53 H16A       -1.3670    1.5650   -4.6360 hc        1 20A      0.081200
     54 H52         2.7490   -0.7420    1.2900 hn        1 20A      0.467800
     55 H42        -0.4710   -0.2190   -3.3340 hn        1 20A      0.473800
@<TRIPOS>BOND
     1    1    2 2   
     2    2    3 1   
     3    2   11 1   
     4    3    4 1   
     5    3   29 1   
     6    3   54 1   
     7    4    5 1   
     8    4   30 1   
     9    4   31 1   
    10    5    6 ar  
    11    5   10 ar  
    12    6    7 ar  
    13    6   32 1   
    14    7    8 ar  
    15    7   33 1   
    16    8    9 ar  
    17    8   34 1   
    18    9   10 ar  
    19    9   35 1   
    20   10   36 1   
    21   11   12 ar  
    22   11   21 ar  
    23   12   13 ar  
    24   12   37 1   
    25   13   14 ar  
    26   14   15 1   
    27   14   19 ar  
    28   15   16 1   
    29   15   18 1   
    30   16   17 1   
    31   16   38 1   
    32   16   39 1   
    33   17   40 1   
    34   17   41 1   
    35   17   42 1   
    36   18   20 2   
    37   19   20 1   
    38   19   21 ar  
    39   20   43 1   
    40   21   22 1   
    41   22   23 1   
    42   22   44 1   
    43   22   55 1   
    44   23   24 1   
    45   23   28 1   
    46   23   45 1   
    47   24   25 1   
    48   24   46 1   
    49   24   47 1   
    50   25   26 1   
    51   25   48 1   
    52   25   49 1   
    53   26   27 1   
    54   27   28 1   
    55   27   50 1   
    56   27   51 1   
    57   28   52 1   
    58   28   53 1   
@<TRIPOS>SUBSTRUCTURE
     1 20A         1 TEMP              0 ****  ****    0 ROOT
