@<TRIPOS>MOLECULE
20A
   53    56     1     0     0
SMALL
bcc


@<TRIPOS>ATOM
      1 O14         1.1270   -1.1410   -0.8840 o         1 20A     -0.614100
      2 C8          0.8740   -0.4190    0.1030 c         1 20A      0.686700
      3 N5          1.6250   -0.4960    1.2640 n         1 20A     -0.553900
      4 C18         2.8450   -1.2540    1.3360 c3        1 20A      0.128300
      5 C22         4.0900   -0.4820    0.9980 ca        1 20A     -0.127300
      6 C24         4.3600   -0.1560   -0.3360 ca        1 20A     -0.117000
      7 C26         5.5240    0.5380   -0.6620 ca        1 20A     -0.132500
      8 C4          6.4210    0.9090    0.3400 ca        1 20A     -0.123000
      9 C27         6.1540    0.5850    1.6690 ca        1 20A     -0.132500
     10 C25         4.9890   -0.1080    2.0000 ca        1 20A     -0.117000
     11 C3         -0.2400    0.5670    0.1140 ca        1 20A     -0.370900
     12 C7          0.1340    1.9150   -0.1450 ca        1 20A      0.481200
     13 N11        -0.6760    2.9720   -0.1970 nb        1 20A     -0.694000
     14 C13        -1.9940    2.6720    0.0310 ca        1 20A      0.459800
     15 N10        -3.1150    3.5300    0.0970 na        1 20A     -0.001800
     16 C17        -3.1070    4.9270   -0.3060 c3        1 20A      0.061300
     17 C21        -3.4830    5.1730   -1.7570 c3        1 20A     -0.120100
     18 N12        -4.2440    2.8210    0.3150 nc        1 20A     -0.508100
     19 C2         -2.4930    1.3390    0.2990 ca        1 20A     -0.399200
     20 C6         -3.9210    1.5230    0.4670 cd        1 20A      0.363800
     21 C1         -1.5940    0.2380    0.3480 ca        1 20A      0.312600
     22 N4         -2.0910   -0.9990    0.7220 nh        1 20A     -0.725600
     23 C9         -1.5560   -2.2640    0.2510 c3        1 20A      0.202500
     24 C15        -1.6570   -2.4660   -1.2710 c3        1 20A     -0.130400
     25 C19        -1.0910   -3.8220   -1.6490 c3        1 20A      0.129400
     26 O23        -1.7370   -4.8850   -0.9550 os        1 20A     -0.416600
     27 C20        -1.6510   -4.7500    0.4570 c3        1 20A      0.129400
     28 C16        -2.2610   -3.4460    0.9410 c3        1 20A     -0.130400
     29 HN5         1.4940    0.2110    1.9490 hn        1 20A      0.312500
     30 H18         2.9300   -1.6590    2.3870 h1        1 20A      0.067700
     31 H18A        2.7620   -2.1280    0.6250 h1        1 20A      0.067700
     32 H24         3.6460   -0.4550   -1.1200 ha        1 20A      0.140500
     33 H26         5.7340    0.7920   -1.7120 ha        1 20A      0.133500
     34 H4          7.3400    1.4550    0.0810 ha        1 20A      0.132000
     35 H27         6.8610    0.8750    2.4600 ha        1 20A      0.133500
     36 H25         4.7820   -0.3630    3.0500 ha        1 20A      0.140500
     37 H7          1.2030    2.1420   -0.3360 h4        1 20A      0.030100
     38 H17        -3.8280    5.4800    0.3630 h1        1 20A      0.073200
     39 H17A       -2.0670    5.3160   -0.1120 h1        1 20A      0.073200
     40 H21        -3.4410    6.2720   -1.9510 hc        1 20A      0.050367
     41 H21A       -2.7730    4.6620   -2.4510 hc        1 20A      0.050367
     42 H21B       -4.5160    4.8110   -1.9740 hc        1 20A      0.050367
     43 H6         -4.6730    0.7650    0.6890 h4        1 20A      0.050800
     44 HN4        -3.0900   -1.0120    0.8010 hn        1 20A      0.408800
     45 H9         -0.4630   -2.3040    0.5390 h1        1 20A      0.080700
     46 H15        -2.7260   -2.3970   -1.5970 hc        1 20A      0.061200
     47 H15A       -1.0670   -1.6690   -1.7960 hc        1 20A      0.061200
     48 H19        -1.2830   -4.0490   -2.7310 h1        1 20A      0.053950
     49 H19A        0.0130   -3.8520   -1.4430 h1        1 20A      0.053950
     50 H20        -2.2260   -5.6300    0.8520 h1        1 20A      0.053950
     51 H20A       -0.5770   -4.8240    0.7780 h1        1 20A      0.053950
     52 H16        -2.1470   -3.3740    2.0530 hc        1 20A      0.061200
     53 H16A       -3.3550   -3.4360    0.6990 hc        1 20A      0.061200
@<TRIPOS>BOND
     1    1    2 2   
     2    2    3 1   
     3    2   11 1   
     4    3    4 1   
     5    3   29 1   
     6    4    5 1   
     7    4   30 1   
     8    4   31 1   
     9    5    6 ar  
    10    5   10 ar  
    11    6    7 ar  
    12    6   32 1   
    13    7    8 ar  
    14    7   33 1   
    15    8    9 ar  
    16    8   34 1   
    17    9   10 ar  
    18    9   35 1   
    19   10   36 1   
    20   11   12 ar  
    21   11   21 ar  
    22   12   13 ar  
    23   12   37 1   
    24   13   14 ar  
    25   14   15 1   
    26   14   19 ar  
    27   15   16 1   
    28   15   18 1   
    29   16   17 1   
    30   16   38 1   
    31   16   39 1   
    32   17   40 1   
    33   17   41 1   
    34   17   42 1   
    35   18   20 2   
    36   19   20 1   
    37   19   21 ar  
    38   20   43 1   
    39   21   22 1   
    40   22   23 1   
    41   22   44 1   
    42   23   24 1   
    43   23   28 1   
    44   23   45 1   
    45   24   25 1   
    46   24   46 1   
    47   24   47 1   
    48   25   26 1   
    49   25   48 1   
    50   25   49 1   
    51   26   27 1   
    52   27   28 1   
    53   27   50 1   
    54   27   51 1   
    55   28   52 1   
    56   28   53 1   
@<TRIPOS>SUBSTRUCTURE
     1 20A         1 TEMP              0 ****  ****    0 ROOT
