@<TRIPOS>MOLECULE
20A
   54    57     1     0     0
SMALL
bcc


@<TRIPOS>ATOM
      1 O14         0.1950   -1.0130   -0.4640 o         1 20A     -0.457100
      2 C8          1.3470   -0.6060   -0.5510 c         1 20A      0.603700
      3 N5          2.0160   -0.3650    0.8070 ny        1 20A     -0.687800
      4 C18         1.3640    0.7750    1.5310 c3        1 20A      0.177100
      5 C22         1.9100    0.9230    2.9080 ca        1 20A     -0.190300
      6 C24         1.3220    0.2260    3.9700 ca        1 20A     -0.101500
      7 C26         1.8120    0.3910    5.2650 ca        1 20A     -0.118500
      8 C4          2.8860    1.2510    5.5020 ca        1 20A     -0.079000
      9 C27         3.4720    1.9480    4.4430 ca        1 20A     -0.118500
     10 C25         2.9870    1.7860    3.1470 ca        1 20A     -0.101500
     11 C3          2.1800   -0.3570   -1.6990 ca        1 20A     -0.475900
     12 C7          3.4990   -0.9350   -1.7140 ca        1 20A      0.487200
     13 N11         4.3320   -0.9880   -2.7320 nb        1 20A     -0.652000
     14 C13         3.8500   -0.4210   -3.8980 ca        1 20A      0.467800
     15 N10         4.4580   -0.2930   -5.1520 na        1 20A      0.042200
     16 C17         5.7460   -0.8700   -5.5310 c3        1 20A      0.052300
     17 C21         5.6400   -2.1560   -6.3310 c3        1 20A     -0.120100
     18 N12         3.6320    0.3260   -6.0220 nc        1 20A     -0.483100
     19 C2          2.5520    0.2130   -4.0070 ca        1 20A     -0.426200
     20 C6          2.4920    0.6590   -5.3830 cd        1 20A      0.383800
     21 C1          1.6850    0.2880   -2.8790 ca        1 20A      0.401600
     22 N4          0.5090    0.9520   -3.0200 nu        1 20A     -0.732600
     23 C9         -0.3450    1.5120   -1.9900 c3        1 20A      0.228500
     24 C15        -1.7250    0.8330   -1.9390 c3        1 20A     -0.136400
     25 C19        -2.5700    1.4800   -0.8560 c3        1 20A      0.126900
     26 O23        -2.7080    2.8810   -1.0510 os        1 20A     -0.393600
     27 C20        -1.4620    3.5610   -1.0960 c3        1 20A      0.126900
     28 C16        -0.5620    3.0240   -2.1970 c3        1 20A     -0.136400
     29 HN5         3.0100   -0.1580    0.6820 hn        1 20A      0.451300
     30 H18         0.2540    0.5650    1.5570 hx        1 20A      0.106200
     31 H18A        1.5430    1.7090    0.9240 hx        1 20A      0.106200
     32 H24         0.4640   -0.4400    3.7900 ha        1 20A      0.139500
     33 H26         1.3450   -0.1530    6.1010 ha        1 20A      0.159500
     34 H4          3.2690    1.3830    6.5270 ha        1 20A      0.160000
     35 H27         4.3150    2.6310    4.6320 ha        1 20A      0.159500
     36 H25         3.4420    2.3490    2.3180 ha        1 20A      0.139500
     37 H7          3.8830   -1.4410   -0.8050 h4        1 20A      0.012100
     38 H17         6.2980   -0.0950   -6.1380 h1        1 20A      0.084700
     39 H17A        6.3170   -1.0560   -4.5770 h1        1 20A      0.084700
     40 H21         5.1230   -2.9570   -5.7510 hc        1 20A      0.060700
     41 H21A        5.0880   -1.9940   -7.2890 hc        1 20A      0.060700
     42 H21B        6.6760   -2.5020   -6.5710 hc        1 20A      0.060700
     43 H6          1.6800    1.1820   -5.8940 h4        1 20A      0.066800
     44 HN4         0.2840    1.2550   -3.9470 hn        1 20A      0.454800
     45 H9          0.1610    1.3780   -0.9880 h1        1 20A      0.031700
     46 H15        -2.2380    0.9450   -2.9300 hc        1 20A      0.073450
     47 H15A       -1.6170   -0.2610   -1.7230 hc        1 20A      0.073450
     48 H19        -2.1260    1.2820    0.1570 h1        1 20A      0.057200
     49 H19A       -3.6250    1.0950   -0.8890 h1        1 20A      0.057200
     50 H20        -0.9510    3.4820   -0.0990 h1        1 20A      0.057200
     51 H20A       -1.7410    4.6300   -1.2960 h1        1 20A      0.057200
     52 H16        -1.0480    3.2080   -3.1910 hc        1 20A      0.073450
     53 H16A        0.4140    3.5710   -2.1790 hc        1 20A      0.073450
     54 H52         1.9270   -1.2080    1.3850 hn        1 20A      0.451300
@<TRIPOS>BOND
     1    1    2 2   
     2    2    3 1   
     3    2   11 1   
     4    3    4 1   
     5    3   29 1   
     6    3   54 1   
     7    4    5 1   
     8    4   30 1   
     9    4   31 1   
    10    5    6 ar  
    11    5   10 ar  
    12    6    7 ar  
    13    6   32 1   
    14    7    8 ar  
    15    7   33 1   
    16    8    9 ar  
    17    8   34 1   
    18    9   10 ar  
    19    9   35 1   
    20   10   36 1   
    21   11   12 ar  
    22   11   21 ar  
    23   12   13 ar  
    24   12   37 1   
    25   13   14 ar  
    26   14   15 1   
    27   14   19 ar  
    28   15   16 1   
    29   15   18 1   
    30   16   17 1   
    31   16   38 1   
    32   16   39 1   
    33   17   40 1   
    34   17   41 1   
    35   17   42 1   
    36   18   20 2   
    37   19   20 1   
    38   19   21 ar  
    39   20   43 1   
    40   21   22 1   
    41   22   23 1   
    42   22   44 1   
    43   23   24 1   
    44   23   28 1   
    45   23   45 1   
    46   24   25 1   
    47   24   46 1   
    48   24   47 1   
    49   25   26 1   
    50   25   48 1   
    51   25   49 1   
    52   26   27 1   
    53   27   28 1   
    54   27   50 1   
    55   27   51 1   
    56   28   52 1   
    57   28   53 1   
@<TRIPOS>SUBSTRUCTURE
     1 20A         1 TEMP              0 ****  ****    0 ROOT
