@<TRIPOS>MOLECULE
20B
   28    30     1     0     0
SMALL
bcc


@<TRIPOS>ATOM
      1 CAM        -2.2910    0.8380   -0.4110 ca        1 20B     -0.116000
      2 CAL        -3.6910    0.9350   -0.3810 ca        1 20B      0.119100
      3 OAR        -4.2250    2.1420   -0.7730 oh        1 20B     -0.493100
      4 CAP        -4.4820   -0.1470    0.0280 ca        1 20B     -0.194000
      5 CAO        -3.8610   -1.3330    0.4130 ca        1 20B     -0.096000
      6 CAN        -2.4730   -1.4480    0.3890 ca        1 20B     -0.135000
      7 CAK        -1.6870   -0.3630   -0.0290 ca        1 20B     -0.042800
      8 CAI        -0.2280   -0.4990   -0.0700 cc        1 20B      0.193900
      9 OAJ         0.3990    0.7210    0.1410 os        1 20B     -0.222200
     10 CAF         1.7850    0.7290    0.1170 ca        1 20B      0.142100
     11 CAA         2.3810    1.9860    0.3310 ca        1 20B     -0.158000
     12 CAB         3.7660    2.0750    0.3230 ca        1 20B     -0.078000
     13 CAC         4.5550    0.9380    0.1070 ca        1 20B     -0.166000
     14 CAD         3.9580   -0.2990   -0.1030 ca        1 20B     -0.047000
     15 CAE         2.5600   -0.4210   -0.1010 ca        1 20B     -0.215600
     16 CAG         1.9010   -1.7170   -0.3200 c         1 20B      0.589900
     17 OAQ         2.5230   -2.7710   -0.5130 o         1 20B     -0.545100
     18 CAH         0.4400   -1.6540   -0.2920 cd        1 20B     -0.314200
     19 H1         -1.6870    1.7010   -0.7300 ha        1 20B      0.166000
     20 H2         -5.1890    2.0770   -0.7080 ho        1 20B      0.422000
     21 H3         -5.5780   -0.0590    0.0470 ha        1 20B      0.138000
     22 H4         -4.4740   -2.1870    0.7400 ha        1 20B      0.140000
     23 H5         -1.9940   -2.3870    0.7030 ha        1 20B      0.145000
     24 H6          1.7470    2.8670    0.5000 ha        1 20B      0.155000
     25 H7          4.2490    3.0500    0.4880 ha        1 20B      0.140000
     26 H8          5.6510    1.0270    0.1040 ha        1 20B      0.142000
     27 H9          4.5640   -1.2040   -0.2740 ha        1 20B      0.161000
     28 H10        -0.0990   -2.5960   -0.4710 ha        1 20B      0.169000
@<TRIPOS>BOND
     1    1    2 ar  
     2    1    7 ar  
     3    1   19 1   
     4    2    3 1   
     5    2    4 ar  
     6    3   20 1   
     7    4    5 ar  
     8    4   21 1   
     9    5    6 ar  
    10    5   22 1   
    11    6    7 ar  
    12    6   23 1   
    13    7    8 1   
    14    8    9 1   
    15    8   18 2   
    16    9   10 1   
    17   10   11 ar  
    18   10   15 ar  
    19   11   12 ar  
    20   11   24 1   
    21   12   13 ar  
    22   12   25 1   
    23   13   14 ar  
    24   13   26 1   
    25   14   15 ar  
    26   14   27 1   
    27   15   16 1   
    28   16   17 2   
    29   16   18 1   
    30   18   28 1   
@<TRIPOS>SUBSTRUCTURE
     1 20B         1 TEMP              0 ****  ****    0 ROOT
