@<TRIPOS>MOLECULE
20B
   28    30     1     0     0
SMALL
bcc


@<TRIPOS>ATOM
      1 CAM        -0.1020   -0.4250    0.0380 ca        1 20B     -0.116000
      2 CAL         1.3000   -0.3970   -0.0330 ca        1 20B      0.119100
      3 OAR         1.8560   -0.7940   -1.2270 oh        1 20B     -0.493100
      4 CAP         2.0710    0.0150    1.0630 ca        1 20B     -0.194000
      5 CAO         1.4280    0.4050    2.2360 ca        1 20B     -0.096000
      6 CAN         0.0380    0.3840    2.3250 ca        1 20B     -0.135000
      7 CAK        -0.7280   -0.0370    1.2260 ca        1 20B     -0.042800
      8 CAI        -2.1900   -0.0750    1.3350 cc        1 20B      0.193900
      9 OAJ        -2.7930    0.1310    0.1020 os        1 20B     -0.222200
     10 CAF        -4.1790    0.1090    0.0690 ca        1 20B      0.142100
     11 CAA        -4.7500    0.3190   -1.2000 ca        1 20B     -0.158000
     12 CAB        -6.1340    0.3130   -1.3150 ca        1 20B     -0.078000
     13 CAC        -6.9440    0.1020   -0.1930 ca        1 20B     -0.166000
     14 CAD        -6.3710   -0.1040    1.0560 ca        1 20B     -0.047000
     15 CAE        -4.9760   -0.1030    1.2040 ca        1 20B     -0.215600
     16 CAG        -4.3410   -0.3190    2.5130 c         1 20B      0.589900
     17 OAQ        -4.9840   -0.5070    3.5560 o         1 20B     -0.545100
     18 CAH        -2.8800   -0.2930    2.4780 cd        1 20B     -0.314200
     19 H1         -0.6900   -0.7460   -0.8350 ha        1 20B      0.166000
     20 H2          2.8190   -0.7300   -1.1440 ho        1 20B      0.422000
     21 H3          3.1680    0.0320    0.9960 ha        1 20B      0.138000
     22 H4          2.0240    0.7350    3.1000 ha        1 20B      0.140000
     23 H5         -0.4590    0.7020    3.2530 ha        1 20B      0.145000
     24 H6         -4.0990    0.4840   -2.0700 ha        1 20B      0.155000
     25 H7         -6.5980    0.4750   -2.3000 ha        1 20B      0.140000
     26 H8         -8.0390    0.1000   -0.3030 ha        1 20B      0.142000
     27 H9         -6.9950   -0.2710    1.9500 ha        1 20B      0.161000
     28 H10        -2.3590   -0.4690    3.4310 ha        1 20B      0.169000
@<TRIPOS>BOND
     1    1    2 ar  
     2    1    7 ar  
     3    1   19 1   
     4    2    3 1   
     5    2    4 ar  
     6    3   20 1   
     7    4    5 ar  
     8    4   21 1   
     9    5    6 ar  
    10    5   22 1   
    11    6    7 ar  
    12    6   23 1   
    13    7    8 1   
    14    8    9 1   
    15    8   18 2   
    16    9   10 1   
    17   10   11 ar  
    18   10   15 ar  
    19   11   12 ar  
    20   11   24 1   
    21   12   13 ar  
    22   12   25 1   
    23   13   14 ar  
    24   13   26 1   
    25   14   15 ar  
    26   14   27 1   
    27   15   16 1   
    28   16   17 2   
    29   16   18 1   
    30   18   28 1   
@<TRIPOS>SUBSTRUCTURE
     1 20B         1 TEMP              0 ****  ****    0 ROOT
