@<TRIPOS>MOLECULE
20B
   28    22     1     0     0
SMALL
bcc


@<TRIPOS>ATOM
      1 CAM         2.4730    1.0970    0.2900 c1        1 20B     -0.127000
      2 CAL         3.8580    1.0910    0.2500 c1        1 20B      0.075000
      3 OAR         4.5670    2.3060    0.2180 oh        1 20B     -0.248000
      4 CAP         4.5450   -0.1130    0.2420 c1        1 20B     -0.193000
      5 CAO         3.8470   -1.3100    0.2740 c1        1 20B     -0.112000
      6 CAN         2.4620   -1.3040    0.3130 c1        1 20B     -0.112000
      7 CAK         1.7740   -0.1000    0.3220 c1        1 20B     -0.030000
      8 CAI         0.2610   -0.0930    0.3160 c1        1 20B      0.136000
      9 OAJ        -0.4520    0.0410   -0.9220 o         1 20B     -0.135000
     10 CAF        -1.9440   -0.0580   -0.9420 c1        1 20B      0.097000
     11 CAA        -2.6260   -0.0710   -2.1620 c1        1 20B     -0.112000
     12 CAB        -4.0210   -0.1080   -2.1800 c1        1 20B     -0.112000
     13 CAC        -4.7400   -0.1330   -0.9740 c1        1 20B     -0.112000
     14 CAD        -4.0600   -0.1200    0.2450 c1        1 20B     -0.112000
     15 CAE        -2.6630   -0.0820    0.2660 c1        1 20B     -0.194000
     16 CAG        -1.9270   -0.1480    1.5760 c2        1 20B      0.311000
     17 OAQ        -2.5460   -0.2070    2.6200 o         1 20B     -0.304000
     18 CAH        -0.4820   -0.1660    1.5890 c2        1 20B     -0.293000
     19 H1          1.9890    1.9450    0.2960 ha        1 20B      0.161000
     20 H2          4.7660    2.5550    1.0480 ho        1 20B      0.221000
     21 H3          5.5210   -0.1180    0.2140 ha        1 20B      0.138000
     22 H4          4.3310   -2.1580    0.2680 ha        1 20B      0.148000
     23 H5          1.9700   -2.1460    0.3360 ha        1 20B      0.148000
     24 H6         -2.1270   -0.0540   -3.0000 ha        1 20B      0.148000
     25 H7         -4.4970   -0.1170   -3.0320 ha        1 20B      0.148000
     26 H8         -5.7160   -0.1590   -0.9880 ha        1 20B      0.148000
     27 H9         -4.5610   -0.1370    1.0830 ha        1 20B      0.148000
     28 H10        -0.0010   -0.1310    2.4380 ha        1 20B      0.171000
@<TRIPOS>BOND
     1    1    7 1   
     2    1   19 1   
     3    2    3 1   
     4    2    4 1   
     5    3   20 1   
     6    4   21 1   
     7    5    6 1   
     8    5   22 1   
     9    6   23 1   
    10    8   18 1   
    11    9   10 1   
    12   10   15 1   
    13   11   12 1   
    14   11   24 1   
    15   12   25 1   
    16   13   14 1   
    17   13   26 1   
    18   14   27 1   
    19   15   16 1   
    20   16   17 1   
    21   16   18 1   
    22   18   28 1   
@<TRIPOS>SUBSTRUCTURE
     1 20B         1 TEMP              0 ****  ****    0 ROOT
