@<TRIPOS>MOLECULE
20C
   32    34     1     0     0
SMALL
bcc


@<TRIPOS>ATOM
      1 C1          0.0190   -0.1230   -0.0720 ca        1 20C     -0.010300
      2 C2          1.4260    0.0290   -0.0680 ca        1 20C     -0.132000
      3 C3          2.1270    0.2830    1.1020 ca        1 20C     -0.123000
      4 C4          1.4610    0.3980    2.3370 ca        1 20C     -0.078000
      5 C5          0.0920    0.2490    2.3390 ca        1 20C     -0.133600
      6 C6         -0.6320   -0.0090    1.1440 ca        1 20C     -0.141600
      7 C7         -0.8910    0.3130    3.4750 c         1 20C      0.721100
      8 N8         -2.1800    0.0880    2.9150 n         1 20C     -0.406600
      9 C9         -2.0880   -0.1130    1.5090 c         1 20C      0.726100
     10 C10        -3.3900    0.0520    3.6580 ca        1 20C      0.047600
     11 O11        -3.0260   -0.3290    0.7370 o         1 20C     -0.570500
     12 O12        -0.6210    0.5220    4.6590 o         1 20C     -0.558500
     13 C13        -0.6860   -0.3890   -1.3450 c3        1 20C     -0.071800
     14 C14        -4.5890    0.5260    3.0880 ca        1 20C     -0.200000
     15 C15        -5.7670    0.4790    3.8290 ca        1 20C     -0.063000
     16 C16        -5.8050   -0.0200    5.1300 ca        1 20C     -0.210600
     17 C17        -4.6030   -0.4910    5.6940 ca        1 20C      0.186100
     18 C18        -3.3980   -0.4600    4.9670 ca        1 20C     -0.207000
     19 O19        -4.4970   -1.0100    6.9550 oh        1 20C     -0.548100
     20 C20        -7.1280   -0.0300    5.8710 c         1 20C      0.918200
     21 O21        -7.1590   -0.5040    7.0490 o         1 20C     -0.830800
     22 O22        -8.1440    0.4320    5.2860 o         1 20C     -0.830800
     23 H2          1.9650   -0.0580   -1.0230 ha        1 20C      0.132000
     24 H3          3.2210    0.3960    1.0710 ha        1 20C      0.132000
     25 H4          2.0150    0.5980    3.2650 ha        1 20C      0.155000
     26 H13        -1.7800   -0.5600   -1.1730 hc        1 20C      0.059033
     27 H13A       -0.5680    0.4820   -2.0370 hc        1 20C      0.059033
     28 H13B       -0.2560   -1.2940   -1.8430 hc        1 20C      0.059033
     29 H14        -4.6070    0.9100    2.0580 ha        1 20C      0.131000
     30 H15        -6.7120    0.8460    3.3920 ha        1 20C      0.159000
     31 H18        -2.4780   -0.8170    5.4510 ha        1 20C      0.147000
     32 HO19       -5.3820   -0.9890    7.3810 ho        1 20C      0.484000
@<TRIPOS>BOND
     1    1    2 ar  
     2    1    6 ar  
     3    1   13 1   
     4    2    3 ar  
     5    2   23 1   
     6    3    4 ar  
     7    3   24 1   
     8    4    5 ar  
     9    4   25 1   
    10    5    6 ar  
    11    5    7 1   
    12    6    9 1   
    13    7    8 1   
    14    7   12 2   
    15    8    9 1   
    16    8   10 1   
    17    9   11 2   
    18   10   14 ar  
    19   10   18 ar  
    20   13   26 1   
    21   13   27 1   
    22   13   28 1   
    23   14   15 ar  
    24   14   29 1   
    25   15   16 ar  
    26   15   30 1   
    27   16   17 ar  
    28   16   20 1   
    29   17   18 ar  
    30   17   19 1   
    31   18   31 1   
    32   19   32 1   
    33   20   21 1   
    34   20   22 1   
@<TRIPOS>SUBSTRUCTURE
     1 20C         1 TEMP              0 ****  ****    0 ROOT
