@<TRIPOS>MOLECULE
20C
   32    29     1     0     0
SMALL
bcc


@<TRIPOS>ATOM
      1 C1          2.4050    0.0310   -2.6480 c1        1 20C     -0.003000
      2 C2          3.7910   -0.0070   -2.6550 c2        1 20C     -0.132000
      3 C3          4.4900   -0.0700   -1.4590 c1        1 20C     -0.123000
      4 C4          3.8020   -0.0940   -0.2550 c1        1 20C     -0.078000
      5 C5          2.4020   -0.0550   -0.2470 c1        1 20C     -0.113000
      6 C6          1.7100    0.0060   -1.4310 c2        1 20C     -0.121000
      7 C7          1.3870   -0.0630    0.8900 c1        1 20C      0.358000
      8 N8          0.0780   -0.0400    0.3150 n         1 20C     -0.280000
      9 C9          0.2210    0.0220   -1.1060 c2        1 20C      0.363000
     10 C10        -1.1480   -0.0670    1.0300 c2        1 20C      0.055000
     11 O11        -0.6870    0.0450   -1.9140 o         1 20C     -0.295000
     12 O12         1.6450   -0.1070    2.0770 o         1 20C     -0.283000
     13 C13         1.9230   -0.0210   -4.0800 c2        1 20C     -0.197000
     14 C14        -1.7150   -1.3010    1.3060 c2        1 20C     -0.200000
     15 C15        -2.9260   -1.3720    1.9780 c1        1 20C     -0.063000
     16 C16        -3.5680   -0.2100    2.3750 c1        1 20C     -0.190000
     17 C17        -3.0000    1.0240    2.0990 c1        1 20C      0.141000
     18 C18        -1.7900    1.0960    1.4270 c2        1 20C     -0.207000
     19 O19        -3.6430    2.2040    2.5190 o         1 20C     -0.302000
     20 C20        -4.9010   -0.2870    3.0880 c2        1 20C      0.367000
     21 O21        -4.9420   -0.3040    4.3460 o         1 20C     -0.565500
     22 O22        -5.9680   -0.3510    2.4220 o         1 20C     -0.565500
     23 H2          4.2750   -0.0100   -3.5040 ha        1 20C      0.132000
     24 H3          5.4650   -0.1170   -1.4660 ha        1 20C      0.132000
     25 H4          4.2950   -0.1380    0.5870 ha        1 20C      0.155000
     26 H13         2.0750    0.8470   -4.5070 ha        1 20C      0.098333
     27 H13A        2.4160   -0.7150   -4.5650 ha        1 20C      0.098333
     28 H13B        0.9650   -0.2300   -4.0950 ha        1 20C      0.098333
     29 H14        -1.2670   -2.1190    1.0200 ha        1 20C      0.131000
     30 H15        -3.3190   -2.2420    2.1850 ha        1 20C      0.159000
     31 H18        -1.3830    1.9650    1.2450 ha        1 20C      0.147000
     32 HO19       -3.0870    2.6810    3.0230 ho        1 20C      0.283000
@<TRIPOS>BOND
     1    1    2 1   
     2    1    6 1   
     3    2    3 1   
     4    2   23 1   
     5    3   24 1   
     6    4    5 1   
     7    4   25 1   
     8    5    6 1   
     9    6    9 1   
    10    7    8 1   
    11    7   12 1   
    12    8    9 1   
    13    8   10 1   
    14    9   11 1   
    15   10   14 1   
    16   10   18 1   
    17   13   26 1   
    18   13   27 1   
    19   13   28 1   
    20   14   15 1   
    21   14   29 1   
    22   15   30 1   
    23   16   17 1   
    24   16   20 1   
    25   17   18 1   
    26   18   31 1   
    27   19   32 1   
    28   20   21 1   
    29   20   22 1   
@<TRIPOS>SUBSTRUCTURE
     1 20C         1 TEMP              0 ****  ****    0 ROOT
