@<TRIPOS>MOLECULE
20C
   32    34     1     0     0
SMALL
bcc


@<TRIPOS>ATOM
      1 C1          0.0210   -0.1300   -0.0690 ca        1 20C     -0.010300
      2 C2          1.4270    0.0360   -0.0660 ca        1 20C     -0.132000
      3 C3          2.1250    0.3090    1.1010 ca        1 20C     -0.123000
      4 C4          1.4570    0.4310    2.3340 ca        1 20C     -0.078000
      5 C5          0.0900    0.2690    2.3380 ca        1 20C     -0.133600
      6 C6         -0.6310   -0.0100    1.1450 ca        1 20C     -0.141600
      7 C7         -0.8950    0.3350    3.4720 c         1 20C      0.721100
      8 N8         -2.1810    0.0920    2.9140 n         1 20C     -0.406600
      9 C9         -2.0870   -0.1240    1.5110 c         1 20C      0.726100
     10 C10        -3.3920    0.0510    3.6560 ca        1 20C      0.047600
     11 O11        -3.0210   -0.3560    0.7400 o         1 20C     -0.570500
     12 O12        -0.6270    0.5600    4.6540 o         1 20C     -0.558500
     13 C13        -0.6800   -0.4170   -1.3390 c3        1 20C     -0.071800
     14 C14        -4.5940    0.5070    3.0810 ca        1 20C     -0.200000
     15 C15        -5.7720    0.4580    3.8220 ca        1 20C     -0.063000
     16 C16        -5.8060   -0.0280    5.1280 ca        1 20C     -0.210600
     17 C17        -4.6000   -0.4820    5.6970 ca        1 20C      0.186100
     18 C18        -3.3950   -0.4460    4.9710 ca        1 20C     -0.207000
     19 O19        -4.4900   -0.9870    6.9640 oh        1 20C     -0.548100
     20 C20        -7.1300   -0.0440    5.8690 c         1 20C      0.918200
     21 O21        -7.1560   -0.5060    7.0520 o         1 20C     -0.830800
     22 O22        -8.1500    0.4030    5.2780 o         1 20C     -0.830800
     23 H2          1.9670   -0.0560   -1.0200 ha        1 20C      0.132000
     24 H3          3.2170    0.4330    1.0700 ha        1 20C      0.132000
     25 H4          2.0080    0.6470    3.2610 ha        1 20C      0.155000
     26 H13        -1.7730   -0.5910   -1.1670 hc        1 20C      0.059033
     27 H13A       -0.5640    0.4450   -2.0430 hc        1 20C      0.059033
     28 H13B       -0.2450   -1.3270   -1.8240 hc        1 20C      0.059033
     29 H14        -4.6150    0.8800    2.0470 ha        1 20C      0.131000
     30 H15        -6.7210    0.8100    3.3800 ha        1 20C      0.159000
     31 H18        -2.4720   -0.7890    5.4600 ha        1 20C      0.147000
     32 HO19       -5.3750   -0.9690    7.3900 ho        1 20C      0.484000
@<TRIPOS>BOND
     1    1    2 ar  
     2    1    6 ar  
     3    1   13 1   
     4    2    3 ar  
     5    2   23 1   
     6    3    4 ar  
     7    3   24 1   
     8    4    5 ar  
     9    4   25 1   
    10    5    6 ar  
    11    5    7 1   
    12    6    9 1   
    13    7    8 1   
    14    7   12 2   
    15    8    9 1   
    16    8   10 1   
    17    9   11 2   
    18   10   14 ar  
    19   10   18 ar  
    20   13   26 1   
    21   13   27 1   
    22   13   28 1   
    23   14   15 ar  
    24   14   29 1   
    25   15   16 ar  
    26   15   30 1   
    27   16   17 ar  
    28   16   20 1   
    29   17   18 ar  
    30   17   19 1   
    31   18   31 1   
    32   19   32 1   
    33   20   21 1   
    34   20   22 1   
@<TRIPOS>SUBSTRUCTURE
     1 20C         1 TEMP              0 ****  ****    0 ROOT
