@<TRIPOS>MOLECULE
20C
   32    34     1     0     0
SMALL
bcc


@<TRIPOS>ATOM
      1 C1         -4.2670   -1.0170   -0.1710 ca        1 20C     -0.010300
      2 C2         -5.4030   -0.1870   -0.0210 ca        1 20C     -0.132000
      3 C3         -5.2840    1.1690    0.2450 ca        1 20C     -0.123000
      4 C4         -4.0200    1.7750    0.3770 ca        1 20C     -0.078000
      5 C5         -2.9110    0.9730    0.2320 ca        1 20C     -0.133600
      6 C6         -3.0270   -0.4180   -0.0400 ca        1 20C     -0.141600
      7 C7         -1.4480    1.3120    0.3120 c         1 20C      0.721100
      8 N8         -0.7340    0.1030    0.0830 n         1 20C     -0.406600
      9 C9         -1.6330   -0.9780   -0.1360 c         1 20C      0.726100
     10 C10         0.6830   -0.0090    0.0590 ca        1 20C      0.047600
     11 O11        -1.3270   -2.1530   -0.3590 o         1 20C     -0.570500
     12 O12        -0.9720    2.4260    0.5360 o         1 20C     -0.558500
     13 C13        -4.4430   -2.4580   -0.4520 c3        1 20C     -0.071800
     14 C14         1.3120   -1.1790    0.5280 ca        1 20C     -0.200000
     15 C15         2.7010   -1.2730    0.4940 ca        1 20C     -0.063000
     16 C16         3.5020   -0.2380    0.0120 ca        1 20C     -0.210600
     17 C17         2.8660    0.9280   -0.4560 ca        1 20C      0.186100
     18 C18         1.4640    1.0500   -0.4360 ca        1 20C     -0.207000
     19 O19         3.5270    2.0140   -0.9590 oh        1 20C     -0.548100
     20 C20         5.0080   -0.4180    0.0130 c         1 20C      0.918200
     21 O21         5.7300    0.5200   -0.4460 o         1 20C     -0.830800
     22 O22         5.4810   -1.4940    0.4710 o         1 20C     -0.830800
     23 H2         -6.4000   -0.6410   -0.1210 ha        1 20C      0.132000
     24 H3         -6.1880    1.7870    0.3560 ha        1 20C      0.132000
     25 H4         -3.9240    2.8500    0.5880 ha        1 20C      0.155000
     26 H13        -5.0660   -2.5980   -1.3700 hc        1 20C      0.059033
     27 H13A       -3.4560   -2.9630   -0.6070 hc        1 20C      0.059033
     28 H13B       -4.9650   -2.9540    0.4050 hc        1 20C      0.059033
     29 H14         0.7170   -2.0250    0.9000 ha        1 20C      0.131000
     30 H15         3.2040   -2.1860    0.8570 ha        1 20C      0.159000
     31 H18         1.0080    1.9860   -0.7900 ha        1 20C      0.147000
     32 HO19        4.4940    1.8390   -0.9300 ho        1 20C      0.484000
@<TRIPOS>BOND
     1    1    2 ar  
     2    1    6 ar  
     3    1   13 1   
     4    2    3 ar  
     5    2   23 1   
     6    3    4 ar  
     7    3   24 1   
     8    4    5 ar  
     9    4   25 1   
    10    5    6 ar  
    11    5    7 1   
    12    6    9 1   
    13    7    8 1   
    14    7   12 2   
    15    8    9 1   
    16    8   10 1   
    17    9   11 2   
    18   10   14 ar  
    19   10   18 ar  
    20   13   26 1   
    21   13   27 1   
    22   13   28 1   
    23   14   15 ar  
    24   14   29 1   
    25   15   16 ar  
    26   15   30 1   
    27   16   17 ar  
    28   16   20 1   
    29   17   18 ar  
    30   17   19 1   
    31   18   31 1   
    32   19   32 1   
    33   20   21 1   
    34   20   22 1   
@<TRIPOS>SUBSTRUCTURE
     1 20C         1 TEMP              0 ****  ****    0 ROOT
