@<TRIPOS>MOLECULE
20C
   32    34     1     0     0
SMALL
bcc


@<TRIPOS>ATOM
      1 C1          0.0190    0.1290   -0.0720 ca        1 20C     -0.010300
      2 C2          1.4250   -0.0300   -0.0680 ca        1 20C     -0.132000
      3 C3          2.1250   -0.2910    1.1000 ca        1 20C     -0.123000
      4 C4          1.4590   -0.4070    2.3350 ca        1 20C     -0.078000
      5 C5          0.0910   -0.2520    2.3380 ca        1 20C     -0.133600
      6 C6         -0.6320    0.0150    1.1430 ca        1 20C     -0.141600
      7 C7         -0.8920   -0.3150    3.4740 c         1 20C      0.721100
      8 N8         -2.1800   -0.0820    2.9150 n         1 20C     -0.406600
      9 C9         -2.0880    0.1240    1.5100 c         1 20C      0.726100
     10 C10        -3.3910   -0.0420    3.6580 ca        1 20C      0.047600
     11 O11        -3.0240    0.3470    0.7380 o         1 20C     -0.570500
     12 O12        -0.6230   -0.5300    4.6570 o         1 20C     -0.558500
     13 C13        -0.6850    0.4030   -1.3440 c3        1 20C     -0.071800
     14 C14        -4.5910   -0.5080    3.0860 ca        1 20C     -0.200000
     15 C15        -5.7690   -0.4600    3.8280 ca        1 20C     -0.063000
     16 C16        -5.8040    0.0350    5.1310 ca        1 20C     -0.210600
     17 C17        -4.6000    0.4990    5.6960 ca        1 20C      0.186100
     18 C18        -3.3950    0.4640    4.9680 ca        1 20C     -0.207000
     19 O19        -4.4920    1.0130    6.9590 oh        1 20C     -0.548100
     20 C20        -7.1270    0.0490    5.8720 c         1 20C      0.918200
     21 O21        -7.1550    0.5190    7.0520 o         1 20C     -0.830800
     22 O22        -8.1460   -0.4070    5.2860 o         1 20C     -0.830800
     23 H2          1.9650    0.0580   -1.0240 ha        1 20C      0.132000
     24 H3          3.2190   -0.4090    1.0690 ha        1 20C      0.132000
     25 H4          2.0120   -0.6130    3.2620 ha        1 20C      0.155000
     26 H13        -0.2450    1.3010   -1.8430 hc        1 20C      0.059033
     27 H13A       -1.7760    0.5870   -1.1700 hc        1 20C      0.059033
     28 H13B       -0.5780   -0.4710   -2.0350 hc        1 20C      0.059033
     29 H14        -4.6110   -0.8890    2.0550 ha        1 20C      0.131000
     30 H15        -6.7160   -0.8200    3.3900 ha        1 20C      0.159000
     31 H18        -2.4740    0.8160    5.4540 ha        1 20C      0.147000
     32 HO19       -5.3770    0.9940    7.3860 ho        1 20C      0.484000
@<TRIPOS>BOND
     1    1    2 ar  
     2    1    6 ar  
     3    1   13 1   
     4    2    3 ar  
     5    2   23 1   
     6    3    4 ar  
     7    3   24 1   
     8    4    5 ar  
     9    4   25 1   
    10    5    6 ar  
    11    5    7 1   
    12    6    9 1   
    13    7    8 1   
    14    7   12 2   
    15    8    9 1   
    16    8   10 1   
    17    9   11 2   
    18   10   14 ar  
    19   10   18 ar  
    20   13   26 1   
    21   13   27 1   
    22   13   28 1   
    23   14   15 ar  
    24   14   29 1   
    25   15   16 ar  
    26   15   30 1   
    27   16   17 ar  
    28   16   20 1   
    29   17   18 ar  
    30   17   19 1   
    31   18   31 1   
    32   19   32 1   
    33   20   21 1   
    34   20   22 1   
@<TRIPOS>SUBSTRUCTURE
     1 20C         1 TEMP              0 ****  ****    0 ROOT
