@<TRIPOS>MOLECULE
20D
   27    20     1     0     0
SMALL
bcc


@<TRIPOS>ATOM
      1 CAJ         0.2700   -0.0130   -1.6100 c1        1 20D     -0.298000
      2 CAG         1.7140   -0.0450   -1.6340 c1        1 20D      0.311000
      3 OAK         2.3010   -0.1760   -2.6900 o         1 20D     -0.304000
      4 CAF         2.4830   -0.0410   -0.3410 c2        1 20D     -0.194000
      5 CAA         3.8810   -0.0660   -0.3560 c2        1 20D     -0.046000
      6 CAB         4.5930   -0.0200    0.8430 c1        1 20D     -0.165000
      7 CAC         3.9060    0.0520    2.0660 c1        1 20D     -0.120750
      8 CAD         2.5120    0.0770    2.0830 c1        1 20D     -0.120750
      9 CAE         1.7960    0.0310    0.8830 c1        1 20D      0.097000
     10 OAH         0.3030   -0.0390    0.9090 o         1 20D     -0.137000
     11 CAI        -0.4400    0.0230   -0.3170 c1        1 20D      0.141000
     12 CAL        -1.9530    0.0180   -0.2850 c1        1 20D      0.016000
     13 CAM        -2.6420   -1.1850   -0.2820 c1        1 20D     -0.120750
     14 CAN        -4.0280   -1.1900   -0.2590 c1        1 20D     -0.120750
     15 CAO        -4.7250    0.0080   -0.2380 c1        1 20D      0.016000
     16 FAR        -6.0640    0.0030   -0.2360 f         1 20D     -0.099000
     17 CAP        -4.0360    1.2110   -0.2410 c1        1 20D     -0.118500
     18 CAQ        -2.6500    1.2160   -0.2650 c1        1 20D     -0.118500
     19 H1         -0.2330    0.0290   -2.4460 ha        1 20D      0.168000
     20 H2          4.3590   -0.1160   -1.2060 ha        1 20D      0.161000
     21 H3          5.5690   -0.0370    0.8310 ha        1 20D      0.142000
     22 H4          4.4050    0.0840    2.9040 ha        1 20D      0.149750
     23 H5          2.0350    0.1270    2.9340 ha        1 20D      0.149750
     24 H6         -2.1510   -2.0290   -0.2970 ha        1 20D      0.149750
     25 H7         -4.5130   -2.0370   -0.2570 ha        1 20D      0.149750
     26 H8         -4.5270    2.0540   -0.2270 ha        1 20D      0.155000
     27 H9         -2.1650    2.0630   -0.2670 ha        1 20D      0.155000
@<TRIPOS>BOND
     1    1   11 1   
     2    1   19 1   
     3    2    3 1   
     4    2    4 1   
     5    4    5 1   
     6    4    9 1   
     7    5    6 1   
     8    5   20 1   
     9    6   21 1   
    10    7    8 1   
    11    7   22 1   
    12    8   23 1   
    13   10   11 1   
    14   12   18 1   
    15   13   14 1   
    16   13   24 1   
    17   14   25 1   
    18   15   17 1   
    19   17   26 1   
    20   18   27 1   
@<TRIPOS>SUBSTRUCTURE
     1 20D         1 TEMP              0 ****  ****    0 ROOT
