@<TRIPOS>MOLECULE
20D
   27    29     1     0     0
SMALL
bcc


@<TRIPOS>ATOM
      1 CAJ         0.0590   -0.2650   -0.0750 cc        1 20D     -0.317200
      2 CAG         1.5210   -0.2930   -0.0670 c         1 20D      0.589900
      3 OAK         2.1930   -0.4680   -1.0930 o         1 20D     -0.543100
      4 CAF         2.1160   -0.0970    1.2630 ca        1 20D     -0.214600
      5 CAA         3.5070   -0.1020    1.4520 ca        1 20D     -0.046000
      6 CAB         4.0430    0.0850    2.7200 ca        1 20D     -0.165000
      7 CAC         3.2000    0.2810    3.8210 ca        1 20D     -0.078000
      8 CAD         1.8200    0.2910    3.6660 ca        1 20D     -0.159000
      9 CAE         1.2870    0.1000    2.3780 ca        1 20D      0.142100
     10 OAH        -0.0980    0.1240    2.3030 os        1 20D     -0.226200
     11 CAI        -0.6650   -0.0620    1.0500 cd        1 20D      0.196900
     12 CAL        -2.1270   -0.0190    1.1170 ca        1 20D     -0.092800
     13 CAM        -2.7970   -0.3970    2.2900 ca        1 20D     -0.068000
     14 CAN        -4.1850   -0.3740    2.3490 ca        1 20D     -0.173500
     15 CAO        -4.9210    0.0370    1.2210 ca        1 20D      0.147900
     16 FAR        -6.2720    0.0610    1.2700 f         1 20D     -0.133900
     17 CAP        -4.2540    0.4250    0.0430 ca        1 20D     -0.173500
     18 CAQ        -2.8650    0.3960   -0.0000 ca        1 20D     -0.068000
     19 H1         -0.4320   -0.4270   -1.0460 ha        1 20D      0.168000
     20 H2          4.1560   -0.2570    0.5750 ha        1 20D      0.161000
     21 H3          5.1340    0.0810    2.8620 ha        1 20D      0.142000
     22 H4          3.6340    0.4300    4.8220 ha        1 20D      0.140000
     23 H5          1.1450    0.4450    4.5180 ha        1 20D      0.154000
     24 H6         -2.2150   -0.7140    3.1700 ha        1 20D      0.152000
     25 H7         -4.7140   -0.6730    3.2660 ha        1 20D      0.155500
     26 H8         -4.8370    0.7500   -0.8310 ha        1 20D      0.155500
     27 H9         -2.3450    0.7090   -0.9200 ha        1 20D      0.152000
@<TRIPOS>BOND
     1    1    2 1   
     2    1   11 2   
     3    1   19 1   
     4    2    3 2   
     5    2    4 1   
     6    4    5 ar  
     7    4    9 ar  
     8    5    6 ar  
     9    5   20 1   
    10    6    7 ar  
    11    6   21 1   
    12    7    8 ar  
    13    7   22 1   
    14    8    9 ar  
    15    8   23 1   
    16    9   10 1   
    17   10   11 1   
    18   11   12 1   
    19   12   13 ar  
    20   12   18 ar  
    21   13   14 ar  
    22   13   24 1   
    23   14   15 ar  
    24   14   25 1   
    25   15   16 1   
    26   15   17 ar  
    27   17   18 ar  
    28   17   26 1   
    29   18   27 1   
@<TRIPOS>SUBSTRUCTURE
     1 20D         1 TEMP              0 ****  ****    0 ROOT
