@<TRIPOS>MOLECULE
20D
   27    29     1     0     0
SMALL
bcc


@<TRIPOS>ATOM
      1 CAJ        -0.4500    1.5550    0.2720 cc        1 20D     -0.317200
      2 CAG        -1.9020    1.7270    0.3000 c         1 20D      0.589900
      3 OAK        -2.4440    2.8270    0.4780 o         1 20D     -0.543100
      4 CAF        -2.6560    0.4800    0.1000 ca        1 20D     -0.214600
      5 CAA        -4.0590    0.4620    0.1040 ca        1 20D     -0.046000
      6 CAB        -4.7460   -0.7300   -0.0880 ca        1 20D     -0.165000
      7 CAC        -4.0450   -1.9250   -0.2870 ca        1 20D     -0.078000
      8 CAD        -2.6560   -1.9390   -0.2960 ca        1 20D     -0.159000
      9 CAE        -1.9690   -0.7270   -0.1010 ca        1 20D      0.142100
     10 OAH        -0.5860   -0.8230   -0.1240 os        1 20D     -0.226200
     11 CAI         0.1310    0.3510    0.0660 cd        1 20D      0.196900
     12 CAL         1.5730    0.1060    0.0230 ca        1 20D     -0.092800
     13 CAM         2.0950   -1.1410    0.3970 ca        1 20D     -0.068000
     14 CAN         3.4650   -1.3700    0.3740 ca        1 20D     -0.173500
     15 CAO         4.3330   -0.3390   -0.0340 ca        1 20D      0.147900
     16 FAR         5.6690   -0.5530   -0.0580 f         1 20D     -0.133900
     17 CAP         3.8160    0.9130   -0.4180 ca        1 20D     -0.173500
     18 CAQ         2.4430    1.1260   -0.3890 ca        1 20D     -0.068000
     19 H1          0.1560    2.4580    0.4370 ha        1 20D      0.168000
     20 H2         -4.5960    1.4130    0.2620 ha        1 20D      0.161000
     21 H3         -5.8460   -0.7370   -0.0840 ha        1 20D      0.142000
     22 H4         -4.5980   -2.8640   -0.4390 ha        1 20D      0.140000
     23 H5         -2.0900   -2.8680   -0.4530 ha        1 20D      0.154000
     24 H6          1.4090   -1.9450    0.7110 ha        1 20D      0.152000
     25 H7          3.8780   -2.3450    0.6700 ha        1 20D      0.155500
     26 H8          4.5020    1.7100   -0.7400 ha        1 20D      0.155500
     27 H9          2.0400    2.1030   -0.6990 ha        1 20D      0.152000
@<TRIPOS>BOND
     1    1    2 1   
     2    1   11 2   
     3    1   19 1   
     4    2    3 2   
     5    2    4 1   
     6    4    5 ar  
     7    4    9 ar  
     8    5    6 ar  
     9    5   20 1   
    10    6    7 ar  
    11    6   21 1   
    12    7    8 ar  
    13    7   22 1   
    14    8    9 ar  
    15    8   23 1   
    16    9   10 1   
    17   10   11 1   
    18   11   12 1   
    19   12   13 ar  
    20   12   18 ar  
    21   13   14 ar  
    22   13   24 1   
    23   14   15 ar  
    24   14   25 1   
    25   15   16 1   
    26   15   17 ar  
    27   17   18 ar  
    28   17   26 1   
    29   18   27 1   
@<TRIPOS>SUBSTRUCTURE
     1 20D         1 TEMP              0 ****  ****    0 ROOT
