@<TRIPOS>MOLECULE
20F
   38    41     1     0     0
SMALL
bcc


@<TRIPOS>ATOM
      1 O01         0.0010   -0.1440   -0.0300 o         1 20F     -0.649500
      2 C02         1.2490   -0.0970    0.0050 c         1 20F      0.654700
      3 C03         2.0180   -0.0280    1.2610 cc        1 20F      0.014900
      4 O04         1.3300   -0.0020    2.4460 oh        1 20F     -0.483100
      5 C05         3.3810    0.0140    1.2580 cd        1 20F     -0.105000
      6 C06         4.0890   -0.0100    0.0080 cd        1 20F     -0.073200
      7 C07         5.5490    0.0020    0.0650 ca        1 20F     -0.058800
      8 C08         6.2080    1.0140    0.7780 ca        1 20F     -0.092500
      9 C09         7.5950    1.0300    0.8730 ca        1 20F     -0.167000
     10 C10         8.3430    0.0120    0.2520 ca        1 20F      0.129900
     11 C11         7.6910   -1.0140   -0.4570 ca        1 20F     -0.167000
     12 C12         6.3030   -1.0110   -0.5430 ca        1 20F     -0.092500
     13 F13         9.6940    0.0190    0.3380 f         1 20F     -0.137900
     14 C14         3.3800   -0.0560   -1.1790 cc        1 20F      0.079400
     15 C15         4.0240   -0.0400   -2.5060 ca        1 20F     -0.056800
     16 C16         4.8520    1.0290   -2.8720 ca        1 20F     -0.109000
     17 C17         5.4470    1.0540   -4.1300 ca        1 20F     -0.097500
     18 C18         5.2200    0.0090   -5.0360 ca        1 20F     -0.125500
     19 C19         4.3830   -1.0570   -4.6750 ca        1 20F     -0.097500
     20 C20         3.7860   -1.0770   -3.4160 ca        1 20F     -0.109000
     21 C21         5.8320    0.0160   -6.3550 cc        1 20F      0.443000
     22 N22         6.9850    0.7380   -6.7330 na        1 20F     -0.178400
     23 N23         7.2330    0.4780   -8.0230 nc        1 20F     -0.187800
     24 N24         6.3280   -0.3320   -8.4390 nd        1 20F     -0.044000
     25 N25         5.4520   -0.6550   -7.4920 nd        1 20F     -0.365000
     26 N26         1.9890   -0.1090   -1.1740 n         1 20F     -0.418100
     27 H1          0.3800   -0.0560    2.2380 ho        1 20F      0.448000
     28 H2          3.9520    0.0600    2.1970 ha        1 20F      0.166000
     29 H3          5.6200    1.8040    1.2710 ha        1 20F      0.144500
     30 H4          8.1130    1.8240    1.4290 ha        1 20F      0.152500
     31 H5          8.2820   -1.8110   -0.9300 ha        1 20F      0.152500
     32 H6          5.7900   -1.8150   -1.0940 ha        1 20F      0.144500
     33 H7          5.0340    1.8490   -2.1590 ha        1 20F      0.152000
     34 H8          6.0840    1.9090   -4.4020 ha        1 20F      0.152000
     35 H9          4.1920   -1.8790   -5.3850 ha        1 20F      0.152000
     36 H10         3.1340   -1.9190   -3.1380 ha        1 20F      0.152000
     37 H11         7.5580    1.3350   -6.1830 hn        1 20F      0.335700
     38 H12         1.5030   -0.1380   -2.0450 hn        1 20F      0.343500
@<TRIPOS>BOND
     1    1    2 2   
     2    2    3 1   
     3    2   26 1   
     4    3    4 1   
     5    3    5 2   
     6    4   27 1   
     7    5    6 1   
     8    5   28 1   
     9    6    7 1   
    10    6   14 2   
    11    7    8 ar  
    12    7   12 ar  
    13    8    9 ar  
    14    8   29 1   
    15    9   10 ar  
    16    9   30 1   
    17   10   11 ar  
    18   10   13 1   
    19   11   12 ar  
    20   11   31 1   
    21   12   32 1   
    22   14   15 1   
    23   14   26 1   
    24   15   16 ar  
    25   15   20 ar  
    26   16   17 ar  
    27   16   33 1   
    28   17   18 ar  
    29   17   34 1   
    30   18   19 ar  
    31   18   21 1   
    32   19   20 ar  
    33   19   35 1   
    34   20   36 1   
    35   21   22 1   
    36   21   25 2   
    37   22   23 1   
    38   22   37 1   
    39   23   24 2   
    40   24   25 1   
    41   26   38 1   
@<TRIPOS>SUBSTRUCTURE
     1 20F         1 TEMP              0 ****  ****    0 ROOT
