@<TRIPOS>MOLECULE
20F
   38    41     1     0     0
SMALL
bcc


@<TRIPOS>ATOM
      1 O01         0.0010   -0.1140   -0.0290 o         1 20F     -0.649500
      2 C02         1.2490   -0.0760    0.0060 c         1 20F      0.654700
      3 C03         2.0190   -0.0180    1.2620 cc        1 20F      0.014900
      4 O04         1.3320    0.0080    2.4470 oh        1 20F     -0.483100
      5 C05         3.3820    0.0130    1.2580 cd        1 20F     -0.105000
      6 C06         4.0900   -0.0110    0.0080 cd        1 20F     -0.073200
      7 C07         5.5500   -0.0110    0.0650 ca        1 20F     -0.058800
      8 C08         6.2170    0.9930    0.7830 ca        1 20F     -0.092500
      9 C09         7.6040    0.9980    0.8770 ca        1 20F     -0.167000
     10 C10         8.3440   -0.0220    0.2510 ca        1 20F      0.129900
     11 C11         7.6840   -1.0400   -0.4620 ca        1 20F     -0.167000
     12 C12         6.2960   -1.0260   -0.5490 ca        1 20F     -0.092500
     13 F13         9.6950   -0.0260    0.3370 f         1 20F     -0.137900
     14 C14         3.3790   -0.0470   -1.1780 cc        1 20F      0.079400
     15 C15         4.0240   -0.0310   -2.5060 ca        1 20F     -0.056800
     16 C16         4.8590    1.0330   -2.8680 ca        1 20F     -0.109000
     17 C17         5.4540    1.0590   -4.1270 ca        1 20F     -0.097500
     18 C18         5.2180    0.0190   -5.0370 ca        1 20F     -0.125500
     19 C19         4.3740   -1.0430   -4.6790 ca        1 20F     -0.097500
     20 C20         3.7780   -1.0630   -3.4200 ca        1 20F     -0.109000
     21 C21         5.8300    0.0260   -6.3550 cc        1 20F      0.443000
     22 N22         6.9880    0.7420   -6.7320 na        1 20F     -0.178400
     23 N23         7.2340    0.4850   -8.0230 nc        1 20F     -0.187800
     24 N24         6.3230   -0.3180   -8.4400 nd        1 20F     -0.044000
     25 N25         5.4460   -0.6380   -7.4940 nd        1 20F     -0.365000
     26 N26         1.9880   -0.0900   -1.1740 n         1 20F     -0.418100
     27 H1          0.3810   -0.0370    2.2390 ho        1 20F      0.448000
     28 H2          3.9540    0.0510    2.1980 ha        1 20F      0.166000
     29 H3          5.6340    1.7850    1.2790 ha        1 20F      0.144500
     30 H4          8.1270    1.7850    1.4380 ha        1 20F      0.152500
     31 H5          8.2690   -1.8390   -0.9400 ha        1 20F      0.152500
     32 H6          5.7770   -1.8230   -1.1040 ha        1 20F      0.144500
     33 H7          5.0470    1.8490   -2.1530 ha        1 20F      0.152000
     34 H8          6.0960    1.9100   -4.3960 ha        1 20F      0.152000
     35 H9          4.1780   -1.8600   -5.3920 ha        1 20F      0.152000
     36 H10         3.1200   -1.9020   -3.1440 ha        1 20F      0.152000
     37 H11         7.5650    1.3330   -6.1800 hn        1 20F      0.335700
     38 H12         1.5020   -0.1120   -2.0450 hn        1 20F      0.343500
@<TRIPOS>BOND
     1    1    2 2   
     2    2    3 1   
     3    2   26 1   
     4    3    4 1   
     5    3    5 2   
     6    4   27 1   
     7    5    6 1   
     8    5   28 1   
     9    6    7 1   
    10    6   14 2   
    11    7    8 ar  
    12    7   12 ar  
    13    8    9 ar  
    14    8   29 1   
    15    9   10 ar  
    16    9   30 1   
    17   10   11 ar  
    18   10   13 1   
    19   11   12 ar  
    20   11   31 1   
    21   12   32 1   
    22   14   15 1   
    23   14   26 1   
    24   15   16 ar  
    25   15   20 ar  
    26   16   17 ar  
    27   16   33 1   
    28   17   18 ar  
    29   17   34 1   
    30   18   19 ar  
    31   18   21 1   
    32   19   20 ar  
    33   19   35 1   
    34   20   36 1   
    35   21   22 1   
    36   21   25 2   
    37   22   23 1   
    38   22   37 1   
    39   23   24 2   
    40   24   25 1   
    41   26   38 1   
@<TRIPOS>SUBSTRUCTURE
     1 20F         1 TEMP              0 ****  ****    0 ROOT
