@<TRIPOS>MOLECULE
20F
   38    29     1     0     0
SMALL
bcc


@<TRIPOS>ATOM
      1 O01        -4.9970   -0.3400    1.9410 o         1 20F     -0.376000
      2 C02        -3.7820   -0.3720    1.9530 c1        1 20F      0.293000
      3 C03        -3.0410   -0.4230    3.2700 c2        1 20F     -0.011000
      4 O04        -3.7580   -0.4520    4.4800 oh        1 20F     -0.238000
      5 C05        -1.5750   -0.3250    3.2880 c1        1 20F     -0.105000
      6 C06        -0.8350   -0.1980    2.0250 c1        1 20F     -0.080000
      7 C07         0.6590    0.0420    2.0440 c1        1 20F     -0.037333
      8 C08         1.1520    1.3170    2.2780 c1        1 20F     -0.110667
      9 C09         2.5180    1.5220    2.3870 c1        1 20F     -0.166000
     10 C10         3.3920    0.4540    2.2630 c1        1 20F      0.099000
     11 C11         2.8990   -0.8200    2.0300 c2        1 20F     -0.165000
     12 C12         1.5330   -1.0260    1.9200 c1        1 20F     -0.089000
     13 F13         4.7130    0.6560    2.3450 f         1 20F     -0.101000
     14 C14        -1.5820   -0.2120    0.7080 c1        1 20F      0.062000
     15 C15        -0.8210   -0.1020   -0.5940 c1        1 20F     -0.037333
     16 C16        -0.5950    1.1420   -1.1610 c1        1 20F     -0.089000
     17 C17         0.0150    1.2390   -2.4010 c1        1 20F     -0.089000
     18 C18         0.3990    0.0910   -3.0760 c1        1 20F     -0.037333
     19 C19         0.1730   -1.1540   -2.5100 c1        1 20F     -0.110667
     20 C20        -0.4370   -1.2500   -1.2700 c1        1 20F     -0.110667
     21 C21         1.1180    0.1990   -4.4030 c1        1 20F     -0.016000
     22 N22         0.5480    0.1230   -5.6170 n2        1 20F     -0.156000
     23 N23         1.5110    0.3040   -6.5390 n2        1 20F     -0.031500
     24 N24         2.6730    0.4920   -5.8940 n2        1 20F     -0.031500
     25 N25         2.4310    0.4260   -4.5730 n2        1 20F     -0.156000
     26 N26        -3.0380   -0.3420    0.6950 n2        1 20F     -0.263000
     27 H1         -3.6170   -1.2290    4.8890 ho        1 20F      0.246000
     28 H2         -1.0930   -0.3570    4.1360 ha        1 20F      0.166000
     29 H3          0.5370    2.0700    2.3650 ha        1 20F      0.142000
     30 H4          2.8650    2.4200    2.5520 ha        1 20F      0.153000
     31 H5          3.5150   -1.5730    1.9430 ha        1 20F      0.153000
     32 H6          1.1860   -1.9240    1.7560 ha        1 20F      0.142000
     33 H7         -0.8660    1.9510   -0.6850 ha        1 20F      0.163000
     34 H8          0.1740    2.1160   -2.8000 ha        1 20F      0.163000
     35 H9          0.4440   -1.9620   -2.9850 ha        1 20F      0.142000
     36 H10        -0.5960   -2.1270   -0.8710 ha        1 20F      0.142000
     37 H11        -0.3350   -0.0250   -5.7870 DU        1 20F      0.285000
     38 H12        -3.4870   -0.3500   -0.0990 hn        1 20F      0.254000
@<TRIPOS>BOND
     1    1    2 1   
     2    2    3 1   
     3    3    4 1   
     4    3    5 1   
     5    4   27 1   
     6    5   28 1   
     7    6   14 1   
     8    7    8 1   
     9    8   29 1   
    10    9   10 1   
    11    9   30 1   
    12   10   11 1   
    13   11   12 1   
    14   11   31 1   
    15   12   32 1   
    16   14   26 1   
    17   15   20 1   
    18   16   17 1   
    19   16   33 1   
    20   17   34 1   
    21   18   19 1   
    22   19   35 1   
    23   20   36 1   
    24   21   22 1   
    25   21   25 1   
    26   22   23 1   
    27   23   24 1   
    28   24   25 1   
    29   26   38 1   
@<TRIPOS>SUBSTRUCTURE
     1 20F         1 TEMP              0 ****  ****    0 ROOT
