@<TRIPOS>MOLECULE
20F
   38    41     1     0     0
SMALL
bcc


@<TRIPOS>ATOM
      1 O01         4.1860   -3.3920    0.1670 o         1 20F     -0.649500
      2 C02         3.6280   -2.2750    0.1220 c         1 20F      0.654700
      3 C03         4.3700   -1.0020    0.1010 cc        1 20F      0.014900
      4 O04         5.7400   -1.0450    0.1430 oh        1 20F     -0.483100
      5 C05         3.7230    0.1970    0.0440 cd        1 20F     -0.105000
      6 C06         2.2880    0.2280    0.0030 cd        1 20F     -0.073200
      7 C07         1.6480    1.5380   -0.0920 ca        1 20F     -0.058800
      8 C08         1.9570    2.5320    0.8490 ca        1 20F     -0.092500
      9 C09         1.3850    3.7960    0.7610 ca        1 20F     -0.167000
     10 C10         0.4930    4.0820   -0.2900 ca        1 20F      0.129900
     11 C11         0.1860    3.0950   -1.2450 ca        1 20F     -0.167000
     12 C12         0.7650    1.8350   -1.1390 ca        1 20F     -0.092500
     13 F13        -0.0690    5.3100   -0.3820 f         1 20F     -0.137900
     14 C14         1.5780   -0.9590    0.0420 cc        1 20F      0.079400
     15 C15         0.1030   -1.0170    0.0480 ca        1 20F     -0.056800
     16 C16        -0.6210   -0.3810    1.0640 ca        1 20F     -0.109000
     17 C17        -2.0110   -0.4490    1.0810 ca        1 20F     -0.097500
     18 C18        -2.6920   -1.1570    0.0810 ca        1 20F     -0.125500
     19 C19        -1.9680   -1.8030   -0.9320 ca        1 20F     -0.097500
     20 C20        -0.5770   -1.7350   -0.9440 ca        1 20F     -0.109000
     21 C21        -4.1440   -1.2400    0.0800 cc        1 20F      0.443000
     22 N22        -5.0290   -0.3510    0.7280 na        1 20F     -0.178400
     23 N23        -6.2810   -0.7610    0.4870 nc        1 20F     -0.187800
     24 N24        -6.2110   -1.8140   -0.2450 nd        1 20F     -0.044000
     25 N25        -4.9600   -2.1610   -0.5300 nd        1 20F     -0.365000
     26 N26         2.2390   -2.1820    0.0890 n         1 20F     -0.418100
     27 H1          6.0050   -1.9820    0.1640 ho        1 20F      0.448000
     28 H2          4.2810    1.1450    0.0220 ha        1 20F      0.166000
     29 H3          2.6620    2.3080    1.6650 ha        1 20F      0.144500
     30 H4          1.6250    4.5750    1.5000 ha        1 20F      0.153000
     31 H5         -0.5040    3.3300   -2.0680 ha        1 20F      0.153000
     32 H6          0.5280    1.0630   -1.8870 ha        1 20F      0.144500
     33 H7         -0.0870    0.1780    1.8490 ha        1 20F      0.152000
     34 H8         -2.5600    0.0470    1.8950 ha        1 20F      0.152000
     35 H9         -2.4960   -2.3680   -1.7180 ha        1 20F      0.152000
     36 H10        -0.0150   -2.2410   -1.7440 ha        1 20F      0.152000
     37 H11        -4.8210    0.4570    1.2670 hn        1 20F      0.335700
     38 H12         1.7010   -3.0220    0.1200 hn        1 20F      0.343500
@<TRIPOS>BOND
     1    1    2 2   
     2    2    3 1   
     3    2   26 1   
     4    3    4 1   
     5    3    5 2   
     6    4   27 1   
     7    5    6 1   
     8    5   28 1   
     9    6    7 1   
    10    6   14 2   
    11    7    8 ar  
    12    7   12 ar  
    13    8    9 ar  
    14    8   29 1   
    15    9   10 ar  
    16    9   30 1   
    17   10   11 ar  
    18   10   13 1   
    19   11   12 ar  
    20   11   31 1   
    21   12   32 1   
    22   14   15 1   
    23   14   26 1   
    24   15   16 ar  
    25   15   20 ar  
    26   16   17 ar  
    27   16   33 1   
    28   17   18 ar  
    29   17   34 1   
    30   18   19 ar  
    31   18   21 1   
    32   19   20 ar  
    33   19   35 1   
    34   20   36 1   
    35   21   22 1   
    36   21   25 2   
    37   22   23 1   
    38   22   37 1   
    39   23   24 2   
    40   24   25 1   
    41   26   38 1   
@<TRIPOS>SUBSTRUCTURE
     1 20F         1 TEMP              0 ****  ****    0 ROOT
