@<TRIPOS>MOLECULE
20F
   38    41     1     0     0
SMALL
bcc


@<TRIPOS>ATOM
      1 O01         0.0020   -0.1430   -0.0260 o         1 20F     -0.649500
      2 C02         1.2510   -0.0940    0.0080 c         1 20F      0.654700
      3 C03         2.0210   -0.0190    1.2630 cc        1 20F      0.014900
      4 O04         1.3330    0.0100    2.4490 oh        1 20F     -0.483100
      5 C05         3.3830    0.0240    1.2590 cd        1 20F     -0.105000
      6 C06         4.0910   -0.0040    0.0090 cd        1 20F     -0.073200
      7 C07         5.5510    0.0100    0.0650 ca        1 20F     -0.058800
      8 C08         6.2090    1.0250    0.7740 ca        1 20F     -0.092500
      9 C09         7.5960    1.0430    0.8680 ca        1 20F     -0.167000
     10 C10         8.3450    0.0240    0.2500 ca        1 20F      0.129900
     11 C11         7.6930   -1.0050   -0.4550 ca        1 20F     -0.167000
     12 C12         6.3050   -1.0040   -0.5400 ca        1 20F     -0.092500
     13 F13         9.6960    0.0330    0.3350 f         1 20F     -0.137900
     14 C14         3.3800   -0.0550   -1.1770 cc        1 20F      0.079400
     15 C15         4.0240   -0.0430   -2.5050 ca        1 20F     -0.056800
     16 C16         4.8500    1.0250   -2.8750 ca        1 20F     -0.109000
     17 C17         5.4450    1.0460   -4.1340 ca        1 20F     -0.097500
     18 C18         5.2180   -0.0020   -5.0370 ca        1 20F     -0.125500
     19 C19         4.3820   -1.0680   -4.6710 ca        1 20F     -0.097500
     20 C20         3.7870   -1.0840   -3.4120 ca        1 20F     -0.109000
     21 C21         5.8290    0.0010   -6.3550 cc        1 20F      0.443000
     22 N22         6.9810    0.7230   -6.7370 na        1 20F     -0.178400
     23 N23         7.2290    0.4590   -8.0270 nc        1 20F     -0.187800
     24 N24         6.3240   -0.3550   -8.4380 nd        1 20F     -0.044000
     25 N25         5.4490   -0.6740   -7.4900 nd        1 20F     -0.365000
     26 N26         1.9900   -0.1100   -1.1720 ns        1 20F     -0.418100
     27 H1          0.3830   -0.0460    2.2410 ho        1 20F      0.448000
     28 H2          3.9550    0.0740    2.1980 ha        1 20F      0.166000
     29 H3          5.6200    1.8160    1.2640 ha        1 20F      0.144500
     30 H4          8.1130    1.8400    1.4210 ha        1 20F      0.152500
     31 H5          8.2850   -1.8030   -0.9260 ha        1 20F      0.152500
     32 H6          5.7930   -1.8100   -1.0890 ha        1 20F      0.144500
     33 H7          5.0330    1.8470   -2.1660 ha        1 20F      0.152000
     34 H8          6.0800    1.9010   -4.4100 ha        1 20F      0.152000
     35 H9          4.1920   -1.8920   -5.3780 ha        1 20F      0.152000
     36 H10         3.1350   -1.9260   -3.1300 ha        1 20F      0.152000
     37 H11         7.5540    1.3220   -6.1900 hn        1 20F      0.335700
     38 H12         1.5030   -0.1420   -2.0420 hn        1 20F      0.343500
@<TRIPOS>BOND
     1    1    2 2   
     2    2    3 1   
     3    2   26 1   
     4    3    4 1   
     5    3    5 2   
     6    4   27 1   
     7    5    6 1   
     8    5   28 1   
     9    6    7 1   
    10    6   14 2   
    11    7    8 ar  
    12    7   12 ar  
    13    8    9 ar  
    14    8   29 1   
    15    9   10 ar  
    16    9   30 1   
    17   10   11 ar  
    18   10   13 1   
    19   11   12 ar  
    20   11   31 1   
    21   12   32 1   
    22   14   15 1   
    23   14   26 1   
    24   15   16 ar  
    25   15   20 ar  
    26   16   17 ar  
    27   16   33 1   
    28   17   18 ar  
    29   17   34 1   
    30   18   19 ar  
    31   18   21 1   
    32   19   20 ar  
    33   19   35 1   
    34   20   36 1   
    35   21   22 1   
    36   21   25 2   
    37   22   23 1   
    38   22   37 1   
    39   23   24 2   
    40   24   25 1   
    41   26   38 1   
@<TRIPOS>SUBSTRUCTURE
     1 20F         1 TEMP              0 ****  ****    0 ROOT
