@<TRIPOS>MOLECULE
20G
   48    49     1     0     0
SMALL
bcc


@<TRIPOS>ATOM
      1 CL1         2.7450    3.7100    0.0330 cl        1 20G     -0.047400
      2 CL2         7.7040    2.3850   -1.4140 cl        1 20G     -0.118400
      3 C02         3.7890    2.6750   -0.8070 ca        1 20G      0.017400
      4 C03         5.1650    2.9180   -0.7850 ca        1 20G     -0.101000
      5 C04         6.0300    2.0630   -1.4740 ca        1 20G      0.020400
      6 C06         5.5080    0.9740   -2.1920 ca        1 20G      0.095100
      7 O07         6.3700    0.1990   -2.9570 os        1 20G     -0.350900
      8 C08         6.2290   -1.2140   -2.7640 c3        1 20G      0.059400
      9 C09         7.6130   -1.7920   -2.4740 c         1 20G      0.641100
     10 N10         8.6170   -1.7260   -3.4510 n         1 20G     -0.447800
     11 C11         9.9730   -2.0630   -3.0750 c3        1 20G      0.085000
     12 C12        10.8440   -0.8320   -2.7790 c3        1 20G     -0.139400
     13 C13        10.7900    0.1360   -3.9650 c3        1 20G      0.131500
     14 N14        11.5970    1.3820   -3.6630 n4        1 20G     -0.688800
     15 C15        11.8520    2.2020   -4.9130 c         1 20G      0.549100
     16 C16        10.9450    3.3750   -5.1420 c3        1 20G     -0.153400
     17 C17        10.6190    3.5010   -6.6220 c3        1 20G     -0.071400
     18 C18         9.8400    4.7660   -6.8830 c3        1 20G     -0.009300
     19 S19         9.2100    4.6170   -8.5270 sh        1 20G     -0.341900
     20 O20        12.7940    1.8290   -5.5930 o         1 20G     -0.403100
     21 C21         9.3460    0.4830   -4.3320 c3        1 20G     -0.139400
     22 C22         8.5490   -0.8110   -4.5620 c3        1 20G      0.085000
     23 O23         7.8190   -2.3900   -1.4060 o         1 20G     -0.553100
     24 C24         4.1260    0.7370   -2.2070 ca        1 20G     -0.144000
     25 C25         3.2680    1.5840   -1.5150 ca        1 20G     -0.091000
     26 H11         9.9600   -2.7200   -2.1560 h1        1 20G      0.089200
     27 H21         8.8500    1.0750   -3.5140 hc        1 20G      0.077200
     28 H11A       10.4340   -2.6450   -3.9220 h1        1 20G      0.089200
     29 H21A        9.3160    1.0890   -5.2750 hc        1 20G      0.077200
     30 H12        10.4760   -0.3330   -1.8440 hc        1 20G      0.077200
     31 H22         8.9690   -1.3390   -5.4670 h1        1 20G      0.089200
     32 H12A       11.8940   -1.1830   -2.6040 hc        1 20G      0.077200
     33 H22A        7.4830   -0.5290   -4.7880 h1        1 20G      0.089200
     34 H03         5.5690    3.7760   -0.2210 ha        1 20G      0.171000
     35 H13        11.2950   -0.3490   -4.8570 hx        1 20G      0.113700
     36 HN14       12.4960    1.0860   -3.2620 hn        1 20G      0.456300
     37 H24         3.7270   -0.1200   -2.7710 ha        1 20G      0.157000
     38 H25         2.1810    1.3970   -1.5280 ha        1 20G      0.169000
     39 H16         9.9930    3.2930   -4.5500 hc        1 20G      0.104200
     40 H16A       11.4960    4.2950   -4.7930 hc        1 20G      0.104200
     41 H17        11.5700    3.5050   -7.2220 hc        1 20G      0.084200
     42 H17A       10.0170    2.6100   -6.9500 hc        1 20G      0.084200
     43 H08         5.8070   -1.6390   -3.7140 h1        1 20G      0.092200
     44 H18        10.4980    5.6630   -6.7810 h1        1 20G      0.070700
     45 H08A        5.5580   -1.4610   -1.8990 h1        1 20G      0.092200
     46 H18A        9.0000    4.8770   -6.1540 h1        1 20G      0.070700
     47 HS19        8.7650    5.8530   -8.7000 hs        1 20G      0.225800
     48 H142       11.0950    1.9450   -2.9710 hn        1 20G      0.456300
@<TRIPOS>BOND
     1    1    3 1   
     2    2    5 1   
     3    3    4 ar  
     4    3   25 ar  
     5    4    5 ar  
     6    4   34 1   
     7    5    6 ar  
     8    6    7 1   
     9    6   24 ar  
    10    7    8 1   
    11    8    9 1   
    12    8   43 1   
    13    8   45 1   
    14    9   10 1   
    15    9   23 2   
    16   10   11 1   
    17   10   22 1   
    18   11   12 1   
    19   11   26 1   
    20   11   28 1   
    21   12   13 1   
    22   12   30 1   
    23   12   32 1   
    24   13   14 1   
    25   13   21 1   
    26   13   35 1   
    27   14   15 1   
    28   14   36 1   
    29   14   48 1   
    30   15   16 1   
    31   15   20 2   
    32   16   17 1   
    33   16   39 1   
    34   16   40 1   
    35   17   18 1   
    36   17   41 1   
    37   17   42 1   
    38   18   19 1   
    39   18   44 1   
    40   18   46 1   
    41   19   47 1   
    42   21   22 1   
    43   21   27 1   
    44   21   29 1   
    45   22   31 1   
    46   22   33 1   
    47   24   25 ar  
    48   24   37 1   
    49   25   38 1   
@<TRIPOS>SUBSTRUCTURE
     1 20G         1 TEMP              0 ****  ****    0 ROOT
