@<TRIPOS>MOLECULE
20G
   48    49     1     0     0
SMALL
bcc


@<TRIPOS>ATOM
      1 Cl1         2.7860    3.8460   -0.0070 cl        1 20G     -0.047400
      2 Cl2         7.7290    2.4580   -1.4460 cl        1 20G     -0.118400
      3 C02         3.8200    2.7810   -0.8220 ca        1 20G      0.017400
      4 C03         5.1970    3.0200   -0.8170 ca        1 20G     -0.101000
      5 C04         6.0540    2.1400   -1.4850 ca        1 20G      0.020400
      6 C06         5.5230    1.0320   -2.1650 ca        1 20G      0.096100
      7 O07         6.3770    0.2290   -2.9110 os        1 20G     -0.350900
      8 C08         6.2280   -1.1770   -2.6780 c3        1 20G      0.059400
      9 C09         7.6120   -1.7550   -2.3860 c         1 20G      0.641100
     10 N10         8.6070   -1.7220   -3.3740 n         1 20G     -0.447800
     11 C11         9.9640   -2.0560   -3.0010 c3        1 20G      0.085000
     12 C12        10.8440   -0.8220   -2.7470 c3        1 20G     -0.139400
     13 C13        10.7840    0.1150   -3.9570 c3        1 20G      0.131500
     14 N14        11.6000    1.3640   -3.6960 ny        1 20G     -0.688800
     15 C15        11.8440    2.1510   -4.9680 c         1 20G      0.549100
     16 C16        10.9410    3.3230   -5.2160 c3        1 20G     -0.153400
     17 C17        10.6020    3.4160   -6.6950 c3        1 20G     -0.071400
     18 C18         9.8270    4.6790   -6.9780 c3        1 20G     -0.009300
     19 S19         9.1820    4.4970   -8.6140 sh        1 20G     -0.341900
     20 O20        12.7770    1.7560   -5.6490 o         1 20G     -0.403100
     21 C21         9.3390    0.4600   -4.3200 c3        1 20G     -0.139400
     22 C22         8.5330   -0.8360   -4.5080 c3        1 20G      0.085000
     23 O23         7.8250   -2.3250   -1.3040 o         1 20G     -0.552100
     24 C24         4.1400    0.7990   -2.1630 ca        1 20G     -0.144000
     25 C25         3.2890    1.6710   -1.4920 ca        1 20G     -0.091000
     26 H11        10.4150   -2.6630   -3.8370 h1        1 20G      0.089200
     27 H21         9.3030    1.0400   -5.2790 hc        1 20G      0.077450
     28 H11A        9.9560   -2.6880   -2.0650 h1        1 20G      0.089200
     29 H21A        8.8530    1.0750   -3.5140 hc        1 20G      0.077450
     30 H12        10.4880   -0.2970   -1.8220 hc        1 20G      0.077450
     31 H22         7.4660   -0.5550   -4.7320 h1        1 20G      0.089200
     32 H12A       11.8940   -1.1740   -2.5710 hc        1 20G      0.077450
     33 H22A        8.9430   -1.3910   -5.4020 h1        1 20G      0.089200
     34 H03         5.6080    3.8930   -0.2830 ha        1 20G      0.171000
     35 H13        11.2780   -0.3960   -4.8400 hx        1 20G      0.113700
     36 HN14       11.1080    1.9470   -3.0120 hn        1 20G      0.456300
     37 H24         3.7330   -0.0730   -2.6980 ha        1 20G      0.157000
     38 H25         2.2020    1.4890   -1.4910 ha        1 20G      0.169000
     39 H16        11.4990    4.2480   -4.8930 hc        1 20G      0.104200
     40 H16A        9.9950    3.2590   -4.6130 hc        1 20G      0.104200
     41 H17        11.5470    3.4010   -7.3040 hc        1 20G      0.084200
     42 H17A        9.9920    2.5210   -6.9970 hc        1 20G      0.084200
     43 H08         5.7930   -1.6250   -3.6100 h1        1 20G      0.092200
     44 H18        10.4910    5.5750   -6.9020 h1        1 20G      0.070700
     45 H08A        5.5650   -1.3940   -1.7980 h1        1 20G      0.092200
     46 H18A        8.9940    4.8110   -6.2450 h1        1 20G      0.070700
     47 HS19        8.7420    5.7310   -8.8100 hs        1 20G      0.225800
     48 H142       12.5020    1.0740   -3.2970 hn        1 20G      0.456300
@<TRIPOS>BOND
     1    1    3 1   
     2    2    5 1   
     3    3    4 ar  
     4    3   25 ar  
     5    4    5 ar  
     6    4   34 1   
     7    5    6 ar  
     8    6    7 1   
     9    6   24 ar  
    10    7    8 1   
    11    8    9 1   
    12    8   43 1   
    13    8   45 1   
    14    9   10 1   
    15    9   23 2   
    16   10   11 1   
    17   10   22 1   
    18   11   12 1   
    19   11   26 1   
    20   11   28 1   
    21   12   13 1   
    22   12   30 1   
    23   12   32 1   
    24   13   14 1   
    25   13   21 1   
    26   13   35 1   
    27   14   15 1   
    28   14   36 1   
    29   14   48 1   
    30   15   16 1   
    31   15   20 2   
    32   16   17 1   
    33   16   39 1   
    34   16   40 1   
    35   17   18 1   
    36   17   41 1   
    37   17   42 1   
    38   18   19 1   
    39   18   44 1   
    40   18   46 1   
    41   19   47 1   
    42   21   22 1   
    43   21   27 1   
    44   21   29 1   
    45   22   31 1   
    46   22   33 1   
    47   24   25 ar  
    48   24   37 1   
    49   25   38 1   
@<TRIPOS>SUBSTRUCTURE
     1 20G         1 TEMP              0 ****  ****    0 ROOT
