@<TRIPOS>MOLECULE
20G
   48    49     1     0     0
SMALL
bcc


@<TRIPOS>ATOM
      1 CL1         2.8690    3.9320   -0.2850 cl        1 20G     -0.049400
      2 CL2         7.7550    2.3130   -1.6830 cl        1 20G     -0.117400
      3 C02         3.8600    2.8130   -1.0810 ca        1 20G      0.021400
      4 C03         5.2460    2.9940   -1.0750 ca        1 20G     -0.104000
      5 C04         6.0670    2.0700   -1.7280 ca        1 20G      0.026400
      6 C06         5.4920    0.9770   -2.3950 ca        1 20G      0.089100
      7 O07         6.2990    0.1270   -3.1430 os        1 20G     -0.347900
      8 C08         6.2350   -1.2480   -2.7490 c3        1 20G      0.059400
      9 C09         7.6330   -1.6970   -2.3290 c         1 20G      0.639100
     10 N10         8.6680   -1.7290   -3.2750 n         1 20G     -0.451800
     11 C11        10.0240   -1.9350   -2.8150 c3        1 20G      0.087000
     12 C12        10.8410   -0.6360   -2.7330 c3        1 20G     -0.138400
     13 C13        10.7880    0.0870   -4.0830 c3        1 20G      0.127500
     14 N14        11.5500    1.3950   -4.0160 n4        1 20G     -0.686800
     15 C15        12.0090    1.8820   -5.3750 c         1 20G      0.548100
     16 C16        11.6280    3.2890   -5.7340 c3        1 20G     -0.161400
     17 C17        10.1420    3.4090   -6.0190 c3        1 20G     -0.076400
     18 C18         9.8000    4.8170   -6.4410 c3        1 20G     -0.007300
     19 S19         8.0340    4.8950   -6.4780 sh        1 20G     -0.351900
     20 O20        12.6620    1.0930   -6.0380 o         1 20G     -0.401100
     21 C21         9.3420    0.3150   -4.5260 c3        1 20G     -0.138400
     22 C22         8.5910   -1.0270   -4.5300 c3        1 20G      0.087000
     23 O23         7.8320   -2.1060   -1.1740 o         1 20G     -0.555100
     24 C24         4.1010    0.8000   -2.3920 ca        1 20G     -0.135000
     25 C25         3.2860    1.7160   -1.7360 ca        1 20G     -0.096000
     26 H11        10.5320   -2.6410   -3.5330 h1        1 20G      0.088200
     27 H21         8.8120    1.0260   -3.8350 hc        1 20G      0.077200
     28 H11A       10.0110   -2.4140   -1.7930 h1        1 20G      0.088200
     29 H21A        9.3100    0.7410   -5.5630 hc        1 20G      0.077200
     30 H12        10.4250    0.0150   -1.9190 hc        1 20G      0.077200
     31 H22         7.5200   -0.8240   -4.8140 h1        1 20G      0.088200
     32 H12A       11.8960   -0.9050   -2.4690 hc        1 20G      0.077200
     33 H22A        9.0430   -1.6920   -5.3230 h1        1 20G      0.088200
     34 H03         5.6910    3.8570   -0.5530 ha        1 20G      0.171000
     35 H13        11.3210   -0.5490   -4.8560 hx        1 20G      0.119700
     36 HN14       10.9540    2.1050   -3.5800 hn        1 20G      0.457300
     37 H24         3.6630   -0.0640   -2.9150 ha        1 20G      0.157000
     38 H25         2.1920    1.5780   -1.7350 ha        1 20G      0.168000
     39 H16        11.9300    3.9930   -4.9120 hc        1 20G      0.113700
     40 H16A       12.2170    3.5670   -6.6540 hc        1 20G      0.113700
     41 H17         9.5450    3.1380   -5.1060 hc        1 20G      0.070700
     42 H17A        9.8530    2.6930   -6.8370 hc        1 20G      0.070700
     43 H08         5.5380   -1.4130   -1.8850 h1        1 20G      0.092700
     44 H18        10.2090    5.5620   -5.7150 h1        1 20G      0.075700
     45 H08A        5.8800   -1.8230   -3.6450 h1        1 20G      0.092700
     46 H18A       10.2370    5.0450   -7.4440 h1        1 20G      0.075700
     47 HS19        7.8800    6.0690   -7.0740 hs        1 20G      0.232800
     48 H142       12.3770    1.2500   -3.4230 hn        1 20G      0.457300
@<TRIPOS>BOND
     1    1    3 1   
     2    2    5 1   
     3    3    4 ar  
     4    3   25 ar  
     5    4    5 ar  
     6    4   34 1   
     7    5    6 ar  
     8    6    7 1   
     9    6   24 ar  
    10    7    8 1   
    11    8    9 1   
    12    8   43 1   
    13    8   45 1   
    14    9   10 1   
    15    9   23 2   
    16   10   11 1   
    17   10   22 1   
    18   11   12 1   
    19   11   26 1   
    20   11   28 1   
    21   12   13 1   
    22   12   30 1   
    23   12   32 1   
    24   13   14 1   
    25   13   21 1   
    26   13   35 1   
    27   14   15 1   
    28   14   36 1   
    29   14   48 1   
    30   15   16 1   
    31   15   20 2   
    32   16   17 1   
    33   16   39 1   
    34   16   40 1   
    35   17   18 1   
    36   17   41 1   
    37   17   42 1   
    38   18   19 1   
    39   18   44 1   
    40   18   46 1   
    41   19   47 1   
    42   21   22 1   
    43   21   27 1   
    44   21   29 1   
    45   22   31 1   
    46   22   33 1   
    47   24   25 ar  
    48   24   37 1   
    49   25   38 1   
@<TRIPOS>SUBSTRUCTURE
     1 20G         1 TEMP              0 ****  ****    0 ROOT
