@<TRIPOS>MOLECULE
20G
   47    47     1     0     0
SMALL
bcc


@<TRIPOS>ATOM
      1 CL1        -8.1930   -2.8110    4.9240 cl        1 20G     -0.006000
      2 CL2        -2.7430   -2.7570    4.8720 cl        1 20G     -0.002000
      3 C02        -6.6600   -1.9920    4.5410 c2        1 20G     -0.058000
      4 C03        -5.4680   -2.6080    4.8180 c2        1 20G     -0.121000
      5 C04        -4.2690   -1.9600    4.5380 c2        1 20G     -0.074000
      6 C06        -4.2800   -0.7020    3.9820 c2        1 20G      0.040000
      7 O07        -3.0530   -0.0030    3.7760 os        1 20G     -0.189000
      8 C08        -2.4820   -0.1940    2.4830 c3        1 20G     -0.036000
      9 C09        -0.9220   -0.0400    2.5790 c2        1 20G      0.271000
     10 N10        -0.0850   -0.3800    1.4430 n         1 20G     -0.318000
     11 C11         1.3900   -0.3390    1.4900 c3        1 20G     -0.033500
     12 C12         1.9810    0.4600    0.3480 c3        1 20G     -0.199000
     13 C13         1.4540    0.0240   -0.9790 c3        1 20G      0.024000
     14 N14         1.9230    0.9380   -1.9930 n         1 20G     -0.383000
     15 C15         2.8910    0.4900   -2.9780 c2        1 20G      0.306000
     16 C16         3.3620    1.4460   -4.0770 c3        1 20G     -0.184000
     17 C17         4.7440    0.9720   -4.6110 c3        1 20G     -0.149000
     18 C18         5.2760    1.9810   -5.6290 c3        1 20G     -0.254000
     19 S19         6.9410    1.5300   -6.1070 sh        1 20G     -0.021000
     20 O20         3.3140   -0.6770   -2.9470 o         1 20G     -0.368000
     21 C21        -0.0490   -0.0070   -1.0070 c3        1 20G     -0.199000
     22 C22        -0.6270   -0.8050    0.1540 c3        1 20G     -0.033500
     23 O23        -0.4120    0.2990    3.6250 o         1 20G     -0.357000
     24 C24        -5.4890   -0.0800    3.7020 c1        1 20G     -0.097000
     25 C25        -6.6730   -0.7200    3.9790 c2        1 20G     -0.120000
     26 H11         1.7420   -1.2810    1.4440 h1        1 20G      0.102750
     27 H21        -0.3970    0.9450   -0.9590 hc        1 20G      0.095250
     28 H11A        1.6700    0.0620    2.3320 h1        1 20G      0.102750
     29 H21A       -0.3340   -0.3990   -1.8230 hc        1 20G      0.095250
     30 H12         1.7570    1.4490    0.4850 hc        1 20G      0.095250
     31 H22        -0.4160   -1.7630    0.0210 h1        1 20G      0.102750
     32 H12A        2.9590    0.3490    0.3550 hc        1 20G      0.095250
     33 H22A       -1.5700   -0.6970    0.1650 h1        1 20G      0.102750
     34 H03        -5.4600   -3.4600    5.2980 ha        1 20G      0.162000
     35 H13         1.7940   -0.8790   -1.1780 h1        1 20G      0.132000
     36 HN14        1.5060    1.7470   -2.1030 hn        1 20G      0.223000
     37 H24        -5.4990    0.8310    3.3000 DU        1 20G      0.185000
     38 H25        -7.5440   -0.2700    3.7760 ha        1 20G      0.156000
     39 H16         3.4450    2.3730   -3.7030 hc        1 20G      0.113000
     40 H16A        2.7310    1.4470   -4.7860 hc        1 20G      0.113000
     41 H17         4.6430    0.0810   -5.0480 hc        1 20G      0.102000
     42 H17A        5.3630    0.9000   -3.8750 hc        1 20G      0.102000
     43 H08        -2.8510    0.4990    1.8480 h1        1 20G      0.121000
     44 H18         4.6950    1.9820   -6.4270 h1        1 20G      0.102500
     45 H08A       -2.7080   -1.1120    2.1480 h1        1 20G      0.121000
     46 H18A        5.2840    2.8690   -5.2320 h1        1 20G      0.102500
     47 HS19        7.3180    2.2630   -6.9630 hs        1 20G      0.033000
@<TRIPOS>BOND
     1    1    3 1   
     2    2    5 1   
     3    3    4 1   
     4    3   25 1   
     5    4    5 1   
     6    4   34 1   
     7    5    6 1   
     8    6    7 1   
     9    6   24 1   
    10    7    8 1   
    11    8    9 1   
    12    8   43 1   
    13    8   45 1   
    14    9   10 1   
    15    9   23 1   
    16   10   11 1   
    17   10   22 1   
    18   11   12 1   
    19   11   26 1   
    20   11   28 1   
    21   12   13 1   
    22   12   30 1   
    23   12   32 1   
    24   13   14 1   
    25   13   21 1   
    26   13   35 1   
    27   14   15 1   
    28   14   36 1   
    29   15   16 1   
    30   15   20 1   
    31   16   17 1   
    32   16   39 1   
    33   16   40 1   
    34   17   18 1   
    35   17   41 1   
    36   17   42 1   
    37   18   19 1   
    38   18   44 1   
    39   18   46 1   
    40   19   47 1   
    41   21   22 1   
    42   21   27 1   
    43   21   29 1   
    44   22   31 1   
    45   22   33 1   
    46   24   25 1   
    47   25   38 1   
@<TRIPOS>SUBSTRUCTURE
     1 20G         1 TEMP              0 ****  ****    0 ROOT
