@<TRIPOS>MOLECULE
20G
   47    48     1     0     0
SMALL
bcc


@<TRIPOS>ATOM
      1 CL1         7.3320   -3.1960   -0.4630 cl        1 20G     -0.084400
      2 CL2         5.4280    1.2320    1.8140 cl        1 20G     -0.049400
      3 C02         6.0280   -2.1450   -0.1780 ca        1 20G     -0.006600
      4 C03         6.2190   -1.0100    0.6150 ca        1 20G     -0.096000
      5 C04         5.1550   -0.1360    0.8520 ca        1 20G      0.003400
      6 C06         3.8890   -0.4160    0.2910 ca        1 20G      0.127100
      7 O07         2.8690    0.4630    0.6030 os        1 20G     -0.281900
      8 C08         1.7130    0.3760   -0.2350 c3        1 20G      0.055400
      9 C09         0.8900    1.6250    0.0690 c         1 20G      0.646100
     10 N10        -0.2390    1.8670   -0.7220 n         1 20G     -0.456800
     11 C11        -1.1170    2.9660   -0.3640 c3        1 20G      0.078500
     12 C12        -2.4090    2.5340    0.3300 c3        1 20G     -0.122400
     13 C13        -3.1430    1.4780   -0.5150 c3        1 20G      0.101700
     14 N14        -4.3820    1.0590    0.0960 n         1 20G     -0.573900
     15 C15        -5.5710    0.9840   -0.5990 c         1 20G      0.661100
     16 C16        -6.7980    0.5120    0.1600 c3        1 20G     -0.155400
     17 C17        -6.6460   -0.9110    0.6560 c3        1 20G     -0.069400
     18 C18        -7.9460   -1.4130    1.2320 c3        1 20G      0.006700
     19 S19        -7.6220   -3.0120    1.9220 sh        1 20G     -0.375900
     20 O20        -5.6470    1.3160   -1.7990 o         1 20G     -0.607100
     21 C21        -2.1850    0.3020   -0.7820 c3        1 20G     -0.122400
     22 C22        -0.9070    0.8130   -1.4520 c3        1 20G      0.078500
     23 O23         1.2520    2.4400    0.9330 o         1 20G     -0.553100
     24 C24         3.7100   -1.5610   -0.4980 ca        1 20G     -0.190000
     25 C25         4.7770   -2.4220   -0.7340 ca        1 20G     -0.092000
     26 H11        -0.5640    3.6840    0.3060 h1        1 20G      0.064200
     27 H21        -1.9370   -0.2220    0.1770 hc        1 20G      0.056450
     28 H11A       -1.3770    3.5030   -1.3210 h1        1 20G      0.064200
     29 H21A       -2.6700   -0.4400   -1.4670 hc        1 20G      0.056450
     30 H12        -2.1790    2.1260    1.3480 hc        1 20G      0.056450
     31 H22        -1.1800    1.2370   -2.4630 h1        1 20G      0.064200
     32 H12A       -3.0570    3.4390    0.4600 hc        1 20G      0.056450
     33 H22A       -0.2160   -0.0550   -1.6260 h1        1 20G      0.064200
     34 H03         7.2080   -0.7980    1.0510 ha        1 20G      0.164000
     35 H13        -3.4010    1.9450   -1.5170 h1        1 20G      0.091700
     36 HN14       -4.3430    0.7410    1.0340 hn        1 20G      0.309500
     37 H24         2.7280   -1.7940   -0.9330 ha        1 20G      0.141000
     38 H25         4.6300   -3.3190   -1.3550 ha        1 20G      0.151000
     39 H16        -6.9950    1.2050    1.0200 hc        1 20G      0.074200
     40 H16A       -7.6710    0.5810   -0.5420 hc        1 20G      0.074200
     41 H17        -6.3280   -1.5740   -0.1930 hc        1 20G      0.062200
     42 H17A       -5.8450   -0.9640    1.4420 hc        1 20G      0.062200
     43 H08         2.0140    0.3530   -1.3160 h1        1 20G      0.064700
     44 H18        -8.3200   -0.7180    2.0220 h1        1 20G      0.063200
     45 H08A        1.1340   -0.5450    0.0390 h1        1 20G      0.064700
     46 H18A       -8.7270   -1.4790    0.4360 h1        1 20G      0.063200
     47 HS19       -8.8460   -3.3250    2.3090 hs        1 20G      0.205800
@<TRIPOS>BOND
     1    1    3 1   
     2    2    5 1   
     3    3    4 ar  
     4    3   25 ar  
     5    4    5 ar  
     6    4   34 1   
     7    5    6 ar  
     8    6    7 1   
     9    6   24 ar  
    10    7    8 1   
    11    8    9 1   
    12    8   43 1   
    13    8   45 1   
    14    9   10 1   
    15    9   23 2   
    16   10   11 1   
    17   10   22 1   
    18   11   12 1   
    19   11   26 1   
    20   11   28 1   
    21   12   13 1   
    22   12   30 1   
    23   12   32 1   
    24   13   14 1   
    25   13   21 1   
    26   13   35 1   
    27   14   15 1   
    28   14   36 1   
    29   15   16 1   
    30   15   20 2   
    31   16   17 1   
    32   16   39 1   
    33   16   40 1   
    34   17   18 1   
    35   17   41 1   
    36   17   42 1   
    37   18   19 1   
    38   18   44 1   
    39   18   46 1   
    40   19   47 1   
    41   21   22 1   
    42   21   27 1   
    43   21   29 1   
    44   22   31 1   
    45   22   33 1   
    46   24   25 ar  
    47   24   37 1   
    48   25   38 1   
@<TRIPOS>SUBSTRUCTURE
     1 20G         1 TEMP              0 ****  ****    0 ROOT
