@<TRIPOS>MOLECULE
20H
   45    46     1     0     0
SMALL
bcc


@<TRIPOS>ATOM
      1 CL1         4.3930   -2.8190   -2.4810 cl        1 20H     -0.042400
      2 CL2         8.2820   -2.6810    1.1610 cl        1 20H     -0.159400
      3 C02         5.0840   -2.0860   -1.1220 ca        1 20H      0.010400
      4 C03         4.4750   -0.9620   -0.5480 ca        1 20H     -0.079000
      5 C04         5.0430   -0.3610    0.5710 ca        1 20H     -0.158000
      6 C05         6.2260   -0.8760    1.1210 ca        1 20H      0.112100
      7 O06         6.7870   -0.3580    2.2770 os        1 20H     -0.353900
      8 C07         6.6710    1.0660    2.4180 c3        1 20H      0.056400
      9 C08         7.9200    1.5300    3.1670 c         1 20H      0.639100
     10 N09         8.1300    1.1330    4.4950 n         1 20H     -0.435800
     11 C10         7.4350    0.0010    5.0630 c3        1 20H      0.077000
     12 C11         8.1950   -1.3220    4.8960 c3        1 20H     -0.121900
     13 C12         9.6300   -1.1840    5.3900 c3        1 20H     -0.130700
     14 C13        10.4180   -2.4330    5.0710 c         1 20H      0.551100
     15 N14        10.6020   -2.7610    3.6000 n4        1 20H     -0.687800
     16 C15        12.0370   -2.6400    3.1880 c3        1 20H      0.105800
     17 C16        12.2790   -3.0420    1.7430 c3        1 20H     -0.065300
     18 S17        13.9180   -2.5950    1.3090 sh        1 20H     -0.252900
     19 O18        10.9200   -3.2230    5.8520 o         1 20H     -0.405100
     20 C19        10.3390    0.0570    4.8630 c3        1 20H     -0.121900
     21 C20         9.4600    1.3020    5.0480 c3        1 20H      0.077000
     22 O21         8.7050    2.3150    2.6100 o         1 20H     -0.554100
     23 C22         6.8350   -2.0010    0.5380 ca        1 20H      0.021400
     24 C24         6.2610   -2.6100   -0.5800 ca        1 20H     -0.091000
     25 H10         6.4170   -0.1140    4.5970 h1        1 20H      0.088950
     26 H20         9.9640    2.1820    4.5550 h1        1 20H      0.088950
     27 H10A        7.2940    0.2090    6.1640 h1        1 20H      0.088950
     28 H20A        9.3520    1.5230    6.1480 h1        1 20H      0.088950
     29 H11         8.1490   -1.6150    3.8140 hc        1 20H      0.066700
     30 H11A        7.6650   -2.1120    5.4900 hc        1 20H      0.066700
     31 H12         9.6060   -1.1190    6.5220 hc        1 20H      0.128700
     32 H03         3.5460   -0.5540   -0.9780 ha        1 20H      0.171000
     33 H04         4.5600    0.5160    1.0270 ha        1 20H      0.159000
     34 HN14       10.2860   -3.7220    3.4270 hn        1 20H      0.461300
     35 H24         6.7360   -3.4950   -1.0350 ha        1 20H      0.173000
     36 H15        12.6430   -3.2920    3.8840 hx        1 20H      0.118200
     37 H15A       12.3450   -1.5630    3.3420 hx        1 20H      0.118200
     38 H16        12.0770   -4.1300    1.5880 h1        1 20H      0.102200
     39 H16A       11.6130   -2.4660    1.0460 h1        1 20H      0.102200
     40 H07         6.6490    1.5780    1.4190 h1        1 20H      0.089200
     41 H07A        5.7370    1.2960    2.9940 h1        1 20H      0.089200
     42 H19        10.5870   -0.0480    3.7750 hc        1 20H      0.066700
     43 H19A       11.2970    0.2140    5.4230 hc        1 20H      0.066700
     44 HS17       14.5550   -3.7080    1.6380 hs        1 20H      0.212800
     45 H142       10.0280   -2.1240    3.0310 hn        1 20H      0.461300
@<TRIPOS>BOND
     1    1    3 1   
     2    2   23 1   
     3    3    4 ar  
     4    3   24 ar  
     5    4    5 ar  
     6    4   32 1   
     7    5    6 ar  
     8    5   33 1   
     9    6    7 1   
    10    6   23 ar  
    11    7    8 1   
    12    8    9 1   
    13    8   40 1   
    14    8   41 1   
    15    9   10 1   
    16    9   22 2   
    17   10   11 1   
    18   10   21 1   
    19   11   12 1   
    20   11   25 1   
    21   11   27 1   
    22   12   13 1   
    23   12   29 1   
    24   12   30 1   
    25   13   14 1   
    26   13   20 1   
    27   13   31 1   
    28   14   15 1   
    29   14   19 2   
    30   15   16 1   
    31   15   34 1   
    32   15   45 1   
    33   16   17 1   
    34   16   36 1   
    35   16   37 1   
    36   17   18 1   
    37   17   38 1   
    38   17   39 1   
    39   18   44 1   
    40   20   21 1   
    41   20   42 1   
    42   20   43 1   
    43   21   26 1   
    44   21   28 1   
    45   23   24 ar  
    46   24   35 1   
@<TRIPOS>SUBSTRUCTURE
     1 20H         1 TEMP              0 ****  ****    0 ROOT
