@<TRIPOS>MOLECULE
20H
   45    46     1     0     0
SMALL
bcc


@<TRIPOS>ATOM
      1 CL1         4.3880   -3.0650   -2.3870 cl        1 20H     -0.041400
      2 CL2         8.3210   -2.7220    1.1930 cl        1 20H     -0.159400
      3 C02         5.0710   -2.2840   -1.0510 ca        1 20H      0.010400
      4 C03         4.4300   -1.1740   -0.4870 ca        1 20H     -0.079000
      5 C04         4.9910   -0.5330    0.6130 ca        1 20H     -0.158000
      6 C05         6.2000   -0.9950    1.1540 ca        1 20H      0.112100
      7 O06         6.7570   -0.4360    2.2930 os        1 20H     -0.353900
      8 C07         6.5930    0.9850    2.4110 c3        1 20H      0.056400
      9 C08         7.8340    1.5060    3.1340 c         1 20H      0.639100
     10 N09         8.0770    1.1400    4.4650 n         1 20H     -0.435800
     11 C10         7.4300   -0.0050    5.0630 c3        1 20H      0.077000
     12 C11         8.2340   -1.3040    4.9090 c3        1 20H     -0.121900
     13 C12         9.6690   -1.1070    5.3800 c3        1 20H     -0.130700
     14 C13        10.4970   -2.3320    5.0720 c         1 20H      0.551100
     15 N14        10.6720   -2.6810    3.6040 n4        1 20H     -0.687800
     16 C15        12.0960   -2.5190    3.1690 c3        1 20H      0.105800
     17 C16        12.3310   -2.9390    1.7290 c3        1 20H     -0.065300
     18 S17        13.9470   -2.4430    1.2620 sh        1 20H     -0.252900
     19 O18        11.0370   -3.0900    5.8600 o         1 20H     -0.405100
     20 C19        10.3270    0.1490    4.8200 c3        1 20H     -0.121900
     21 C20         9.4070    1.3660    4.9960 c3        1 20H      0.077000
     22 O21         8.5830    2.3080    2.5520 o         1 20H     -0.554100
     23 C22         6.8420   -2.1060    0.5810 ca        1 20H      0.021400
     24 C24         6.2750   -2.7560   -0.5180 ca        1 20H     -0.091000
     25 H10         6.4100   -0.1640    4.6140 h1        1 20H      0.088950
     26 H20         9.8740    2.2540    4.4800 h1        1 20H      0.088950
     27 H10A        7.2970    0.2180    6.1620 h1        1 20H      0.088950
     28 H20A        9.3070    1.6030    6.0930 h1        1 20H      0.088950
     29 H11         7.7400   -2.1010    5.5240 hc        1 20H      0.066700
     30 H11A        8.1840   -1.6170    3.8320 hc        1 20H      0.066700
     31 H12         9.6590   -1.0210    6.5100 hc        1 20H      0.128700
     32 H03         3.4800   -0.8070   -0.9100 ha        1 20H      0.171000
     33 H04         4.4830    0.3340    1.0620 ha        1 20H      0.159000
     34 HN14       10.3870   -3.6560    3.4530 hn        1 20H      0.461300
     35 H24         6.7760   -3.6300   -0.9650 ha        1 20H      0.173000
     36 H15        12.3680   -1.4290    3.2990 hx        1 20H      0.118200
     37 H15A       12.7340   -3.1360    3.8680 hx        1 20H      0.118200
     38 H16        12.1660   -4.0360    1.5970 h1        1 20H      0.102200
     39 H16A       11.6360   -2.4010    1.0310 h1        1 20H      0.102200
     40 H07         6.5380    1.4770    1.4030 h1        1 20H      0.089200
     41 H07A        5.6590    1.1910    2.9970 h1        1 20H      0.089200
     42 H19        10.5640    0.0330    3.7310 hc        1 20H      0.066700
     43 H19A       11.2870    0.3490    5.3640 hc        1 20H      0.066700
     44 HS17       14.6280   -3.5260    1.6020 hs        1 20H      0.212800
     45 H142       10.0680   -2.0750    3.0330 hn        1 20H      0.461300
@<TRIPOS>BOND
     1    1    3 1   
     2    2   23 1   
     3    3    4 ar  
     4    3   24 ar  
     5    4    5 ar  
     6    4   32 1   
     7    5    6 ar  
     8    5   33 1   
     9    6    7 1   
    10    6   23 ar  
    11    7    8 1   
    12    8    9 1   
    13    8   40 1   
    14    8   41 1   
    15    9   10 1   
    16    9   22 2   
    17   10   11 1   
    18   10   21 1   
    19   11   12 1   
    20   11   25 1   
    21   11   27 1   
    22   12   13 1   
    23   12   29 1   
    24   12   30 1   
    25   13   14 1   
    26   13   20 1   
    27   13   31 1   
    28   14   15 1   
    29   14   19 2   
    30   15   16 1   
    31   15   34 1   
    32   15   45 1   
    33   16   17 1   
    34   16   36 1   
    35   16   37 1   
    36   17   18 1   
    37   17   38 1   
    38   17   39 1   
    39   18   44 1   
    40   20   21 1   
    41   20   42 1   
    42   20   43 1   
    43   21   26 1   
    44   21   28 1   
    45   23   24 ar  
    46   24   35 1   
@<TRIPOS>SUBSTRUCTURE
     1 20H         1 TEMP              0 ****  ****    0 ROOT
