@<TRIPOS>MOLECULE
20H
   44    45     1     0     0
SMALL
bcc


@<TRIPOS>ATOM
      1 CL1        -7.6600   -1.7350   -0.7840 cl        1 20H     -0.084400
      2 CL2        -4.5510    2.5850   -1.0910 cl        1 20H     -0.049400
      3 C02        -6.1250   -1.0250   -0.6170 ca        1 20H     -0.005600
      4 C03        -5.0400   -1.8030   -0.2070 ca        1 20H     -0.092000
      5 C04        -3.7840   -1.2180   -0.0710 ca        1 20H     -0.189000
      6 C05        -3.6080    0.1450   -0.3400 ca        1 20H      0.126100
      7 O06        -2.3850    0.7850   -0.2700 os        1 20H     -0.282900
      8 C07        -1.3880    0.1040    0.4990 c3        1 20H      0.055400
      9 C08        -0.2720    1.1220    0.7180 c         1 20H      0.648100
     10 N09         0.7650    0.7740    1.5910 n         1 20H     -0.456800
     11 C10         1.0620   -0.6020    1.9250 c3        1 20H      0.078000
     12 C11         2.2710   -1.1780    1.1850 c3        1 20H     -0.100900
     13 C12         3.4850   -0.2770    1.3570 c3        1 20H     -0.133700
     14 C13         4.6470   -0.8200    0.5260 c         1 20H      0.654100
     15 N14         5.8880   -0.2430    0.7340 n         1 20H     -0.564900
     16 C15         7.0400   -0.6000   -0.0440 c3        1 20H      0.097000
     17 C16         7.3090    0.3080   -1.2420 c3        1 20H     -0.028300
     18 S17         8.9440   -0.0770   -1.7980 sh        1 20H     -0.366900
     19 O18         4.5000   -1.7720   -0.2640 o         1 20H     -0.599100
     20 C19         3.1550    1.1500    0.9500 c3        1 20H     -0.100900
     21 C20         1.9130    1.6550    1.6900 c3        1 20H      0.078000
     22 O21        -0.3180    2.2500    0.2020 o         1 20H     -0.553100
     23 C22        -4.7070    0.9320   -0.7530 ca        1 20H      0.003400
     24 C24        -5.9630    0.3360   -0.8920 ca        1 20H     -0.096000
     25 H10         1.2720   -0.6300    3.0350 h1        1 20H      0.061950
     26 H20         1.6390    2.6740    1.2940 h1        1 20H      0.061950
     27 H10A        0.1730   -1.2620    1.7340 h1        1 20H      0.061950
     28 H20A        2.1580    1.7530    2.7870 h1        1 20H      0.061950
     29 H11         2.4970   -2.1970    1.5930 hc        1 20H      0.063450
     30 H11A        2.0460   -1.2980    0.0930 hc        1 20H      0.063450
     31 H12         3.7870   -0.2880    2.4430 hc        1 20H      0.069700
     32 H03        -5.1710   -2.8750    0.0050 ha        1 20H      0.152000
     33 H04        -2.9350   -1.8430    0.2410 ha        1 20H      0.142000
     34 HN14        5.9350    0.6050    1.2460 hn        1 20H      0.305500
     35 H24        -6.8230    0.9430   -1.2170 ha        1 20H      0.164000
     36 H15         7.9380   -0.5700    0.6410 h1        1 20H      0.078700
     37 H15A        6.9100   -1.6600   -0.4130 h1        1 20H      0.078700
     38 H16         6.5550    0.1240   -2.0440 h1        1 20H      0.066200
     39 H16A        7.2530    1.3850   -0.9560 h1        1 20H      0.066200
     40 H07        -1.8160   -0.2360    1.4790 h1        1 20H      0.066200
     41 H07A       -1.0010   -0.7670   -0.0940 h1        1 20H      0.066200
     42 H19         4.0060    1.8360    1.1970 hc        1 20H      0.063450
     43 H19A        2.9850    1.1990   -0.1570 hc        1 20H      0.063450
     44 HS17        8.8690    0.4210   -3.0200 hs        1 20H      0.206800
@<TRIPOS>BOND
     1    1    3 1   
     2    2   23 1   
     3    3    4 ar  
     4    3   24 ar  
     5    4    5 ar  
     6    4   32 1   
     7    5    6 ar  
     8    5   33 1   
     9    6    7 1   
    10    6   23 ar  
    11    7    8 1   
    12    8    9 1   
    13    8   40 1   
    14    8   41 1   
    15    9   10 1   
    16    9   22 2   
    17   10   11 1   
    18   10   21 1   
    19   11   12 1   
    20   11   25 1   
    21   11   27 1   
    22   12   13 1   
    23   12   29 1   
    24   12   30 1   
    25   13   14 1   
    26   13   20 1   
    27   13   31 1   
    28   14   15 1   
    29   14   19 2   
    30   15   16 1   
    31   15   34 1   
    32   16   17 1   
    33   16   36 1   
    34   16   37 1   
    35   17   18 1   
    36   17   38 1   
    37   17   39 1   
    38   18   44 1   
    39   20   21 1   
    40   20   42 1   
    41   20   43 1   
    42   21   26 1   
    43   21   28 1   
    44   23   24 ar  
    45   24   35 1   
@<TRIPOS>SUBSTRUCTURE
     1 20H         1 TEMP              0 ****  ****    0 ROOT
