@<TRIPOS>MOLECULE
20H
   44    44     1     0     0
SMALL
bcc


@<TRIPOS>ATOM
      1 CL1        -5.3850    1.4450   -7.6300 cl        1 20H     -0.005000
      2 CL2        -0.6860    0.8470   -4.8050 cl        1 20H      0.010000
      3 C02        -4.4940    1.5770   -6.1060 c2        1 20H     -0.081000
      4 C03        -5.0540    2.2590   -5.0420 c2        1 20H     -0.091000
      5 C04        -4.2900    2.5220   -3.8940 c1        1 20H     -0.174000
      6 C05        -2.9630    2.0940   -3.8240 c2        1 20H      0.070000
      7 O06        -2.1910    2.3410   -2.6460 os        1 20H     -0.199000
      8 C07        -1.9880    1.1650   -1.8160 c3        1 20H     -0.042000
      9 C08        -1.6020    1.6030   -0.4070 c2        1 20H      0.275000
     10 N09        -0.3480    1.1560    0.1790 n         1 20H     -0.311000
     11 C10         0.1130    1.6180    1.4550 c3        1 20H     -0.029000
     12 C11         0.4830    0.4840    2.3900 c3        1 20H     -0.172500
     13 C12         1.4590   -0.5040    1.7600 c3        1 20H     -0.121000
     14 C13         1.7490   -1.6960    2.7060 c2        1 20H      0.298000
     15 N14         3.0920   -1.8860    3.2430 n         1 20H     -0.380000
     16 C15         3.3760   -3.0230    4.0750 c3        1 20H     -0.030000
     17 C16         4.7120   -2.8030    4.7990 c3        1 20H     -0.294000
     18 S17         4.9140   -4.0140    6.0400 sh        1 20H     -0.006000
     19 O18         0.8190   -2.4360    3.0760 o         1 20H     -0.361000
     20 C19         0.9030   -0.9440    0.4120 c3        1 20H     -0.172500
     21 C20         0.5270    0.2160   -0.4740 c3        1 20H     -0.029000
     22 O21        -2.2900    2.3880    0.1830 o         1 20H     -0.374000
     23 C22        -2.3960    1.4060   -4.8970 c2        1 20H     -0.076000
     24 C24        -3.1600    1.1460   -6.0400 c2        1 20H     -0.100000
     25 H10        -0.5980    2.1530    1.8720 h1        1 20H      0.103750
     26 H20         1.3040    0.6580   -0.7380 h1        1 20H      0.103750
     27 H10A        0.8890    2.1790    1.3210 h1        1 20H      0.103750
     28 H20A        0.0610   -0.1410   -1.2920 h1        1 20H      0.103750
     29 H11        -0.3410   -0.0040    2.6450 hc        1 20H      0.104250
     30 H11A        0.9080    0.8800    3.2330 hc        1 20H      0.104250
     31 H12         2.3340   -0.1230    1.6610 hc        1 20H      0.101000
     32 H03        -6.0130    2.5700   -5.0920 ha        1 20H      0.157000
     33 H04        -4.7000    3.0170   -3.1240 DU        1 20H      0.172000
     34 HN14        3.8310   -1.3160    2.9260 hn        1 20H      0.220000
     35 H24        -2.7820    0.7100   -6.7590 ha        1 20H      0.164000
     36 H15         3.4360   -3.8290    3.5170 h1        1 20H      0.111000
     37 H15A        2.6330   -3.1380    4.7610 h1        1 20H      0.111000
     38 H16         4.7200   -1.8900    5.2200 h1        1 20H      0.117500
     39 H16A        5.4140   -2.8690    4.1820 h1        1 20H      0.117500
     40 H07        -2.8480    0.6200   -1.7780 h1        1 20H      0.128500
     41 H07A       -1.2770    0.6210   -2.1930 h1        1 20H      0.128500
     42 H19         0.0830   -1.5110    0.5720 hc        1 20H      0.104250
     43 H19A        1.5430   -1.4590   -0.0250 hc        1 20H      0.104250
     44 HS17        6.1050   -4.0880    6.3520 hs        1 20H      0.034000
@<TRIPOS>BOND
     1    1    3 1   
     2    2   23 1   
     3    3    4 1   
     4    3   24 1   
     5    4    5 1   
     6    4   32 1   
     7    5    6 1   
     8    6    7 1   
     9    6   23 1   
    10    7    8 1   
    11    8    9 1   
    12    8   40 1   
    13    8   41 1   
    14    9   10 1   
    15    9   22 1   
    16   10   11 1   
    17   10   21 1   
    18   11   12 1   
    19   11   25 1   
    20   11   27 1   
    21   12   13 1   
    22   12   29 1   
    23   12   30 1   
    24   13   14 1   
    25   13   20 1   
    26   13   31 1   
    27   14   15 1   
    28   14   19 1   
    29   15   16 1   
    30   15   34 1   
    31   16   17 1   
    32   16   36 1   
    33   16   37 1   
    34   17   18 1   
    35   17   38 1   
    36   17   39 1   
    37   18   44 1   
    38   20   21 1   
    39   20   42 1   
    40   20   43 1   
    41   21   26 1   
    42   21   28 1   
    43   23   24 1   
    44   24   35 1   
@<TRIPOS>SUBSTRUCTURE
     1 20H         1 TEMP              0 ****  ****    0 ROOT
