@<TRIPOS>MOLECULE
20H
   45    46     1     0     0
SMALL
bcc


@<TRIPOS>ATOM
      1 Cl1         4.2970   -3.1100   -2.2950 cl        1 20H     -0.041400
      2 Cl2         8.2460   -2.7740    1.2680 cl        1 20H     -0.159400
      3 C02         5.0160   -2.2990   -0.9960 ca        1 20H      0.010400
      4 C03         4.4260   -1.1350   -0.4850 ca        1 20H     -0.079000
      5 C04         5.0160   -0.4700    0.5840 ca        1 20H     -0.158000
      6 C05         6.2040   -0.9590    1.1470 ca        1 20H      0.112100
      7 O06         6.7870   -0.3730    2.2590 os        1 20H     -0.353900
      8 C07         6.6880    1.0590    2.3080 c3        1 20H      0.056400
      9 C08         7.9530    1.5560    3.0060 c         1 20H      0.639100
     10 N09         8.1800    1.2440    4.3540 n         1 20H     -0.435800
     11 C10         7.4820    0.1610    5.0060 c3        1 20H      0.077000
     12 C11         8.2240   -1.1800    4.9150 c3        1 20H     -0.121900
     13 C12         9.6680   -1.0270    5.3770 c3        1 20H     -0.130700
     14 C13        10.4380   -2.3030    5.1300 c         1 20H      0.551100
     15 N14        10.5940   -2.7310    3.6810 ny        1 20H     -0.687800
     16 C15        12.0230   -2.6560    3.2400 c3        1 20H      0.105800
     17 C16        12.2360   -3.1560    1.8220 c3        1 20H     -0.065300
     18 S17        13.8720   -2.7580    1.3310 sh        1 20H     -0.252900
     19 O18        10.9440   -3.0450    5.9550 o         1 20H     -0.405100
     20 C19        10.3830    0.1680    4.7580 c3        1 20H     -0.121900
     21 C20         9.5210    1.4330    4.8740 c3        1 20H      0.077000
     22 O21         8.7370    2.2940    2.3870 o         1 20H     -0.554100
     23 C22         6.7950   -2.1230    0.6270 ca        1 20H      0.022400
     24 C24         6.1980   -2.7970   -0.4410 ca        1 20H     -0.091000
     25 H10         6.4550    0.0280    4.5630 h1        1 20H      0.088950
     26 H20         9.4330    1.7280    5.9580 h1        1 20H      0.088950
     27 H10A        7.3610    0.4420    6.0920 h1        1 20H      0.088950
     28 H20A       10.0270    2.2730    4.3160 h1        1 20H      0.088950
     29 H11         8.1590   -1.5420    3.8550 hc        1 20H      0.066700
     30 H11A        7.6950   -1.9230    5.5670 hc        1 20H      0.066700
     31 H12         9.6630   -0.8860    6.5020 hc        1 20H      0.128700
     32 H03         3.4920   -0.7470   -0.9260 ha        1 20H      0.171000
     33 H04         4.5480    0.4400    0.9910 ha        1 20H      0.159000
     34 HN14       10.2630   -3.6970    3.5780 hn        1 20H      0.461300
     35 H24         6.6590   -3.7140   -0.8460 ha        1 20H      0.173000
     36 H15        12.3460   -1.5750    3.3170 hx        1 20H      0.118200
     37 H15A       12.6330   -3.2670    3.9680 hx        1 20H      0.118200
     38 H16        11.5640   -2.6210    1.0980 h1        1 20H      0.102200
     39 H16A       12.0200   -4.2490    1.7430 h1        1 20H      0.102200
     40 H07         5.7650    1.3350    2.8820 h1        1 20H      0.089200
     41 H07A        6.6550    1.5040    1.2780 h1        1 20H      0.089200
     42 H19        11.3520    0.3500    5.2920 hc        1 20H      0.066700
     43 H19A       10.6130   -0.0110    3.6760 hc        1 20H      0.066700
     44 HS17       14.5030   -3.8540    1.7240 hs        1 20H      0.212800
     45 H142       10.0180   -2.1260    3.0810 hn        1 20H      0.461300
@<TRIPOS>BOND
     1    1    3 1   
     2    2   23 1   
     3    3    4 ar  
     4    3   24 ar  
     5    4    5 ar  
     6    4   32 1   
     7    5    6 ar  
     8    5   33 1   
     9    6    7 1   
    10    6   23 ar  
    11    7    8 1   
    12    8    9 1   
    13    8   40 1   
    14    8   41 1   
    15    9   10 1   
    16    9   22 2   
    17   10   11 1   
    18   10   21 1   
    19   11   12 1   
    20   11   25 1   
    21   11   27 1   
    22   12   13 1   
    23   12   29 1   
    24   12   30 1   
    25   13   14 1   
    26   13   20 1   
    27   13   31 1   
    28   14   15 1   
    29   14   19 2   
    30   15   16 1   
    31   15   34 1   
    32   15   45 1   
    33   16   17 1   
    34   16   36 1   
    35   16   37 1   
    36   17   18 1   
    37   17   38 1   
    38   17   39 1   
    39   18   44 1   
    40   20   21 1   
    41   20   42 1   
    42   20   43 1   
    43   21   26 1   
    44   21   28 1   
    45   23   24 ar  
    46   24   35 1   
@<TRIPOS>SUBSTRUCTURE
     1 20H         1 TEMP              0 ****  ****    0 ROOT
