@<TRIPOS>MOLECULE
20J
   21    22     1     0     0
SMALL
bcc


@<TRIPOS>ATOM
      1 C1         -0.0430   -0.0930   -0.0240 c3        1 20J     -0.147400
      2 C2          1.4600    0.0550    0.0740 c2        1 20J      0.691200
      3 N3          2.0430   -0.1320    1.2390 ne        1 20J     -0.650100
      4 C4          3.4320   -0.0050    1.3760 ca        1 20J      0.265400
      5 C5          3.9890   -0.2220    2.6620 ca        1 20J     -0.123000
      6 C6          5.3530   -0.1120    2.8640 ca        1 20J     -0.058000
      7 C7          6.1990    0.2160    1.7920 ca        1 20J     -0.015600
      8 C8          5.6690    0.4300    0.5270 ca        1 20J     -0.006000
      9 C9          4.2880    0.3250    0.2970 ca        1 20J     -0.423500
     10 S10         3.7620    0.6050   -1.2700 sy        1 20J      1.523200
     11 O11         4.0110    1.9280   -1.6510 o         1 20J     -0.641800
     12 O12         4.2680   -0.3600   -2.1470 o         1 20J     -0.641800
     13 N13         2.1290    0.3870   -1.1100 nh        1 20J     -0.851100
     14 CL1         7.8720    0.3480    2.0500 cl        1 20J     -0.075400
     15 H1         -0.2910   -0.9010   -0.7560 hc        1 20J      0.072700
     16 H2         -0.4910    0.8710   -0.3720 hc        1 20J      0.072700
     17 H3         -0.4880   -0.3570    0.9670 hc        1 20J      0.072700
     18 H4          3.3280   -0.4790    3.5060 ha        1 20J      0.162000
     19 H5          5.7770   -0.2820    3.8680 ha        1 20J      0.155000
     20 H6          6.3370    0.6880   -0.3160 ha        1 20J      0.161000
     21 H7          1.5350    0.4920   -1.9010 hn        1 20J      0.459800
@<TRIPOS>BOND
     1    1    2 1   
     2    1   15 1   
     3    1   16 1   
     4    1   17 1   
     5    2    3 2   
     6    2   13 1   
     7    3    4 1   
     8    4    5 ar  
     9    4    9 ar  
    10    5    6 ar  
    11    5   18 1   
    12    6    7 ar  
    13    6   19 1   
    14    7    8 ar  
    15    7   14 1   
    16    8    9 ar  
    17    8   20 1   
    18    9   10 1   
    19   10   11 2   
    20   10   12 2   
    21   10   13 1   
    22   13   21 1   
@<TRIPOS>SUBSTRUCTURE
     1 20J         1 TEMP              0 ****  ****    0 ROOT
