@<TRIPOS>MOLECULE
20J
   21    22     1     0     0
SMALL
bcc


@<TRIPOS>ATOM
      1 C1          3.8990    1.7220   -0.1600 c3        1 20J     -0.147400
      2 C2          2.5380    1.0610   -0.1170 c2        1 20J      0.691200
      3 N3          1.4640    1.8200   -0.0620 ne        1 20J     -0.650100
      4 C4          0.1830    1.2510   -0.0210 ca        1 20J      0.265400
      5 C5         -0.9260    2.1320    0.0380 ca        1 20J     -0.123000
      6 C6         -2.2170    1.6340    0.0800 ca        1 20J     -0.058000
      7 C7         -2.4370    0.2470    0.0670 ca        1 20J     -0.015600
      8 C8         -1.3600   -0.6280    0.0100 ca        1 20J     -0.006000
      9 C9         -0.0420   -0.1470   -0.0340 ca        1 20J     -0.423500
     10 S10         1.1770   -1.2960   -0.1010 sy        1 20J      1.523200
     11 O11         1.1980   -2.0700    1.0640 o         1 20J     -0.641800
     12 O12         1.1060   -2.0320   -1.2890 o         1 20J     -0.641800
     13 N13         2.5260   -0.3380   -0.1390 nh        1 20J     -0.851100
     14 CL1        -4.0230   -0.3540    0.1190 cl        1 20J     -0.075400
     15 H1          3.8080    2.8360   -0.1380 hc        1 20J      0.072700
     16 H2          4.5010    1.3940    0.7240 hc        1 20J      0.072700
     17 H3          4.4290    1.4240   -1.0980 hc        1 20J      0.072700
     18 H4         -0.7570    3.2210    0.0490 ha        1 20J      0.162000
     19 H5         -3.0730    2.3270    0.1260 ha        1 20J      0.155000
     20 H6         -1.5350   -1.7190   -0.0010 ha        1 20J      0.161000
     21 H7          3.4290   -0.7550   -0.1810 hn        1 20J      0.459800
@<TRIPOS>BOND
     1    1    2 1   
     2    1   15 1   
     3    1   16 1   
     4    1   17 1   
     5    2    3 2   
     6    2   13 1   
     7    3    4 1   
     8    4    5 ar  
     9    4    9 ar  
    10    5    6 ar  
    11    5   18 1   
    12    6    7 ar  
    13    6   19 1   
    14    7    8 ar  
    15    7   14 1   
    16    8    9 ar  
    17    8   20 1   
    18    9   10 1   
    19   10   11 2   
    20   10   12 2   
    21   10   13 1   
    22   13   21 1   
@<TRIPOS>SUBSTRUCTURE
     1 20J         1 TEMP              0 ****  ****    0 ROOT
