@<TRIPOS>MOLECULE
20J
   21    22     1     0     0
SMALL
bcc


@<TRIPOS>ATOM
      1 C1         -0.0430   -0.0940   -0.0270 c3        1 20J     -0.147400
      2 C2          1.4600    0.0530    0.0730 c2        1 20J      0.691200
      3 N3          2.0420   -0.1280    1.2390 ne        1 20J     -0.650100
      4 C4          3.4310   -0.0010    1.3770 ca        1 20J      0.265400
      5 C5          3.9860   -0.2120    2.6650 ca        1 20J     -0.123000
      6 C6          5.3510   -0.1020    2.8680 ca        1 20J     -0.058000
      7 C7          6.1980    0.2200    1.7950 ca        1 20J     -0.015600
      8 C8          5.6690    0.4290    0.5280 ca        1 20J     -0.006000
      9 C9          4.2890    0.3240    0.2970 ca        1 20J     -0.423500
     10 S10         3.7640    0.5970   -1.2710 sy        1 20J      1.523200
     11 O11         4.0140    1.9190   -1.6580 o         1 20J     -0.641800
     12 O12         4.2710   -0.3720   -2.1440 o         1 20J     -0.641800
     13 N13         2.1310    0.3790   -1.1120 nh        1 20J     -0.851100
     14 CL1         7.8700    0.3530    2.0540 cl        1 20J     -0.075400
     15 H1         -0.2900   -0.9070   -0.7540 hc        1 20J      0.072700
     16 H2         -0.4900    0.8680   -0.3810 hc        1 20J      0.072700
     17 H3         -0.4890   -0.3530    0.9650 hc        1 20J      0.072700
     18 H4          3.3240   -0.4640    3.5090 ha        1 20J      0.162000
     19 H5          5.7740   -0.2670    3.8730 ha        1 20J      0.155000
     20 H6          6.3380    0.6820   -0.3150 ha        1 20J      0.161000
     21 H7          1.5380    0.4800   -1.9050 hn        1 20J      0.459800
@<TRIPOS>BOND
     1    1    2 1   
     2    1   15 1   
     3    1   16 1   
     4    1   17 1   
     5    2    3 2   
     6    2   13 1   
     7    3    4 1   
     8    4    5 ar  
     9    4    9 ar  
    10    5    6 ar  
    11    5   18 1   
    12    6    7 ar  
    13    6   19 1   
    14    7    8 ar  
    15    7   14 1   
    16    8    9 ar  
    17    8   20 1   
    18    9   10 1   
    19   10   11 2   
    20   10   12 2   
    21   10   13 1   
    22   13   21 1   
@<TRIPOS>SUBSTRUCTURE
     1 20J         1 TEMP              0 ****  ****    0 ROOT
