@<TRIPOS>MOLECULE
20J
   21    22     1     0     0
SMALL
bcc


@<TRIPOS>ATOM
      1 C1         -0.0420   -0.0890   -0.0350 c3        1 20J     -0.147400
      2 C2          1.4610    0.0560    0.0680 c2        1 20J      0.691200
      3 N3          2.0400   -0.1220    1.2370 ne        1 20J     -0.650100
      4 C4          3.4290    0.0020    1.3780 ca        1 20J      0.265400
      5 C5          3.9800   -0.2040    2.6680 ca        1 20J     -0.123000
      6 C6          5.3440   -0.0960    2.8740 ca        1 20J     -0.058000
      7 C7          6.1950    0.2190    1.8030 ca        1 20J     -0.015600
      8 C8          5.6700    0.4230    0.5330 ca        1 20J     -0.006000
      9 C9          4.2900    0.3200    0.2990 ca        1 20J     -0.423500
     10 S10         3.7700    0.5870   -1.2720 sy        1 20J      1.523200
     11 O11         4.0240    1.9060   -1.6650 o         1 20J     -0.641800
     12 O12         4.2770   -0.3880   -2.1390 o         1 20J     -0.641800
     13 N13         2.1360    0.3750   -1.1160 nu        1 20J     -0.851100
     14 Cl1         7.8670    0.3490    2.0650 cl        1 20J     -0.075400
     15 H1         -0.4910   -0.3420    0.9570 hc        1 20J      0.072700
     16 H2         -0.2890   -0.9030   -0.7590 hc        1 20J      0.072700
     17 H3         -0.4850    0.8730   -0.3930 hc        1 20J      0.072700
     18 H4          3.3140   -0.4510    3.5120 ha        1 20J      0.162000
     19 H5          5.7630   -0.2580    3.8810 ha        1 20J      0.155000
     20 H6          6.3410    0.6710   -0.3090 ha        1 20J      0.161000
     21 H7          1.5450    0.4730   -1.9110 hn        1 20J      0.459800
@<TRIPOS>BOND
     1    1    2 1   
     2    1   15 1   
     3    1   16 1   
     4    1   17 1   
     5    2    3 2   
     6    2   13 1   
     7    3    4 1   
     8    4    5 ar  
     9    4    9 ar  
    10    5    6 ar  
    11    5   18 1   
    12    6    7 ar  
    13    6   19 1   
    14    7    8 ar  
    15    7   14 1   
    16    8    9 ar  
    17    8   20 1   
    18    9   10 1   
    19   10   11 2   
    20   10   12 2   
    21   10   13 1   
    22   13   21 1   
@<TRIPOS>SUBSTRUCTURE
     1 20J         1 TEMP              0 ****  ****    0 ROOT
