@<TRIPOS>MOLECULE
20J
   21    17     1     0     0
SMALL
bcc


@<TRIPOS>ATOM
      1 C1         -3.4220   -0.6440   -0.4880 c3        1 20J     -0.190000
      2 C2         -1.9100   -0.6440   -0.4880 c2        1 20J      0.176000
      3 N3         -1.1650   -0.6440    0.8030 n1        1 20J     -0.223000
      4 C4          0.1880    0.0060    0.8940 c1        1 20J      0.126000
      5 C5          0.6730    0.4430    2.1370 c2        1 20J     -0.123000
      6 C6          1.9570    0.9520    2.2390 c1        1 20J     -0.058000
      7 C7          2.7650    1.0300    1.1130 c1        1 20J     -0.094000
      8 C8          2.2870    0.5980   -0.1180 c1        1 20J     -0.006000
      9 C9          0.9900    0.0830   -0.2220 c1        1 20J     -0.868000
     10 S10         0.3430   -0.3020   -1.7630 ss        1 20J      2.862000
     11 O11         0.5420    0.8410   -2.6100 o         1 20J     -0.921000
     12 O12         1.0490   -1.4220   -2.3200 o         1 20J     -0.921000
     13 N13        -1.1930   -0.6800   -1.7300 n2        1 20J     -0.830000
     14 CL1         4.4880    1.0000    1.3770 cl        1 20J      0.003000
     15 H1         -3.7480   -1.4590   -0.9140 hc        1 20J      0.112000
     16 H2         -3.7480    0.1330   -0.9810 hc        1 20J      0.112000
     17 H3         -3.7480   -0.6050    0.4310 hc        1 20J      0.112000
     18 H4          0.1050    0.3880    2.9290 ha        1 20J      0.162000
     19 H5          2.2940    1.2560    3.1040 ha        1 20J      0.155000
     20 H6          2.8550    0.6530   -0.9090 ha        1 20J      0.161000
     21 H7         -1.6040   -0.9850   -2.4840 hn        1 20J      0.255000
@<TRIPOS>BOND
     1    1    2 1   
     2    1   15 1   
     3    1   16 1   
     4    1   17 1   
     5    2    3 1   
     6    2   13 1   
     7    4    5 1   
     8    4    9 1   
     9    5    6 1   
    10    5   18 1   
    11    6   19 1   
    12    7    8 1   
    13    7   14 1   
    14    8   20 1   
    15   10   11 1   
    16   10   12 1   
    17   13   21 1   
@<TRIPOS>SUBSTRUCTURE
     1 20J         1 TEMP              0 ****  ****    0 ROOT
