@<TRIPOS>MOLECULE
20K
   42    44     1     0     0
SMALL
bcc


@<TRIPOS>ATOM
      1 S           5.3820   -0.7840   -0.7200 ss        1 20K     -0.100300
      2 CL         -4.9820    1.7290   -1.3790 cl        1 20K     -0.084400
      3 C1          7.8760    0.4160   -0.9370 c3        1 20K     -0.136400
      4 N1          5.9500    1.5730    0.1460 nc        1 20K     -0.646000
      5 C2          6.4750    0.5130   -0.4760 cd        1 20K      0.418700
      6 N2          0.2810   -1.6420    0.4240 nb        1 20K     -0.734000
      7 C3          4.6090    1.3410    0.4400 cc        1 20K      0.421600
      8 N3         -0.5620    0.5820    0.8710 nh        1 20K     -0.700300
      9 C4          3.8040    2.3730    1.1350 c3        1 20K     -0.129400
     10 N4         -6.0480   -0.6830    0.0970 nh        1 20K     -0.630000
     11 C5          4.1390    0.0850    0.0300 cd        1 20K     -0.291900
     12 N5          1.7520    0.3340    0.4000 nb        1 20K     -0.746000
     13 C6          2.8110   -0.4790    0.1800 ca        1 20K      0.579800
     14 C7          2.6610   -1.8860    0.0690 ca        1 20K     -0.421600
     15 C8          1.3640   -2.4010    0.1970 ca        1 20K      0.465200
     16 C9          0.5100   -0.2770    0.5350 ca        1 20K      0.869900
     17 C10        -1.9060    0.2060    0.6320 ca        1 20K      0.118600
     18 C11        -2.4880   -0.8970    1.2870 ca        1 20K     -0.088000
     19 C12        -3.8280   -1.2020    1.0900 ca        1 20K     -0.154000
     20 C13        -4.6570   -0.4210    0.2570 ca        1 20K      0.112600
     21 C14        -6.4040   -1.2900   -1.1680 c3        1 20K      0.166600
     22 C15        -6.6890   -1.3090    1.2300 c3        1 20K      0.166600
     23 C16        -4.0680    0.6970   -0.3800 ca        1 20K      0.027400
     24 C17        -2.7180    0.9970   -0.2070 ca        1 20K     -0.153000
     25 H1          8.5800    0.5220   -0.0730 hc        1 20K      0.062033
     26 H1A         8.0550   -0.5730   -1.4270 hc        1 20K      0.062033
     27 H1B         8.1020    1.2280   -1.6740 hc        1 20K      0.062033
     28 HN3        -0.3780    1.5520    0.7030 hn        1 20K      0.436800
     29 H4          3.0360    2.7820    0.4300 hc        1 20K      0.061700
     30 H4A         3.2770    1.9170    2.0100 hc        1 20K      0.061700
     31 H4B         4.4380    3.2180    1.5000 hc        1 20K      0.061700
     32 H7          3.5220   -2.5400   -0.1060 ha        1 20K      0.156000
     33 H8          1.1700   -3.4870    0.1130 h4        1 20K      0.028100
     34 H11        -1.8860   -1.5320    1.9550 ha        1 20K      0.157000
     35 H12        -4.2470   -2.0780    1.6110 ha        1 20K      0.141000
     36 H14        -6.1420   -2.3820   -1.2150 h1        1 20K      0.038033
     37 H14A       -7.5120   -1.1810   -1.3040 h1        1 20K      0.038033
     38 H14B       -5.8800   -0.7590   -2.0050 h1        1 20K      0.038033
     39 H15        -6.3600   -0.8040    2.1740 h1        1 20K      0.038033
     40 H15A       -7.7970   -1.1760    1.1120 h1        1 20K      0.038033
     41 H15B       -6.4720   -2.4100    1.3130 h1        1 20K      0.038033
     42 H17        -2.2940    1.8720   -0.7280 ha        1 20K      0.147000
@<TRIPOS>BOND
     1    1    5 1   
     2    1   11 1   
     3    2   23 1   
     4    3    5 1   
     5    3   25 1   
     6    3   26 1   
     7    3   27 1   
     8    4    5 2   
     9    4    7 1   
    10    6   15 ar  
    11    6   16 ar  
    12    7    9 1   
    13    7   11 2   
    14    8   16 1   
    15    8   17 1   
    16    8   28 1   
    17    9   29 1   
    18    9   30 1   
    19    9   31 1   
    20   10   20 1   
    21   10   21 1   
    22   10   22 1   
    23   11   13 1   
    24   12   13 ar  
    25   12   16 ar  
    26   13   14 ar  
    27   14   15 ar  
    28   14   32 1   
    29   15   33 1   
    30   17   18 ar  
    31   17   24 ar  
    32   18   19 ar  
    33   18   34 1   
    34   19   20 ar  
    35   19   35 1   
    36   20   23 ar  
    37   21   36 1   
    38   21   37 1   
    39   21   38 1   
    40   22   39 1   
    41   22   40 1   
    42   22   41 1   
    43   23   24 ar  
    44   24   42 1   
@<TRIPOS>SUBSTRUCTURE
     1 20K         1 TEMP              0 ****  ****    0 ROOT
