@<TRIPOS>MOLECULE
20K
   42    38     1     0     0
SMALL
bcc


@<TRIPOS>ATOM
      1 S           3.9470    1.5510   -0.1730 ss        1 20K      0.573000
      2 CL         -1.6510   -4.2210    2.0780 cl        1 20K     -0.004000
      3 C1          6.7550    1.7820    0.4740 c3        1 20K     -0.157000
      4 N1          5.7120    2.1020   -1.7220 n2        1 20K     -0.114000
      5 C2          5.4750    1.7130   -0.3630 c2        1 20K     -0.288000
      6 N2         -0.9680    1.7370   -1.2000 n1        1 20K     -0.217000
      7 C3          4.3190    2.2040   -2.4630 c1        1 20K     -0.038000
      8 N3         -1.1970   -0.5240   -1.5540 n3        1 20K     -0.223000
      9 C4          4.7720    2.3890   -3.9040 c2        1 20K     -0.157000
     10 N4         -4.4190   -2.6230    2.5900 n3        1 20K     -0.231000
     11 C5          3.2770    1.8710   -1.5220 c1        1 20K     -0.395000
     12 N5          1.1180    0.6350   -1.5120 n1        1 20K     -0.216000
     13 C6          1.7580    1.8210   -1.4390 c1        1 20K      0.133000
     14 C7          1.0450    2.9710   -1.2460 c1        1 20K     -0.270000
     15 C8         -0.3350    2.9170   -1.1270 c1        1 20K     -0.002000
     16 C9         -0.2500    0.5830   -1.3930 c1        1 20K      0.151000
     17 C10        -1.9130   -1.0530   -0.3870 c2        1 20K      0.038000
     18 C11        -3.0440   -0.3810    0.1080 c2        1 20K     -0.150000
     19 C12        -3.7530   -0.9080    1.1980 c1        1 20K     -0.148000
     20 C13        -3.3360   -2.0970    1.7900 c1        1 20K      0.029000
     21 C14        -4.2530   -2.7790    4.0190 c3        1 20K     -0.109000
     22 C15        -5.5750   -3.1270    1.9600 c3        1 20K     -0.109000
     23 C16        -2.2100   -2.7680    1.2980 c2        1 20K     -0.056000
     24 C17        -1.4970   -2.2380    0.2020 c2        1 20K     -0.094000
     25 H1          7.3330    2.5030    0.1310 hc        1 20K      0.099333
     26 H1A         6.5230    1.9660    1.4140 hc        1 20K      0.099333
     27 H1B         7.2320    0.9210    0.4150 hc        1 20K      0.099333
     28 HN3        -1.3360   -0.8940   -2.3840 hn        1 20K      0.234000
     29 H4          3.9920    2.3560   -4.4980 ha        1 20K      0.096000
     30 H4A         5.2200    3.2610   -3.9970 ha        1 20K      0.096000
     31 H4B         5.4000    1.6710   -4.1460 ha        1 20K      0.096000
     32 H7          1.5110    3.8380   -1.1920 ha        1 20K      0.161000
     33 H8         -0.8410    3.7310   -0.9910 ha        1 20K      0.166000
     34 H11        -3.3340    0.4420   -0.3020 ha        1 20K      0.135000
     35 H12        -4.5390   -0.4400    1.5420 ha        1 20K      0.139000
     36 H14        -3.6630   -2.0750    4.3580 h1        1 20K      0.077000
     37 H14A       -3.8560   -3.6600    4.2090 h1        1 20K      0.077000
     38 H14B       -5.1380   -2.7130    4.4640 h1        1 20K      0.077000
     39 H15        -5.3200   -3.6180    1.1590 h1        1 20K      0.077000
     40 H15A       -6.0450   -3.7250    2.5730 h1        1 20K      0.077000
     41 H15B       -6.1600   -2.3860    1.7140 h1        1 20K      0.077000
     42 H17        -0.7580   -2.7360   -0.1820 ha        1 20K      0.171000
@<TRIPOS>BOND
     1    1    5 1   
     2    1   11 1   
     3    2   23 1   
     4    3    5 1   
     5    3   25 1   
     6    3   26 1   
     7    3   27 1   
     8    4    5 1   
     9    4    7 1   
    10    6   15 1   
    11    7   11 1   
    12    8   16 1   
    13    8   17 1   
    14    8   28 1   
    15    9   29 1   
    16    9   30 1   
    17    9   31 1   
    18   10   20 1   
    19   10   21 1   
    20   10   22 1   
    21   12   16 1   
    22   13   14 1   
    23   14   32 1   
    24   15   33 1   
    25   17   18 1   
    26   17   24 1   
    27   18   19 1   
    28   18   34 1   
    29   19   35 1   
    30   20   23 1   
    31   21   36 1   
    32   21   37 1   
    33   21   38 1   
    34   22   39 1   
    35   22   40 1   
    36   22   41 1   
    37   23   24 1   
    38   24   42 1   
@<TRIPOS>SUBSTRUCTURE
     1 20K         1 TEMP              0 ****  ****    0 ROOT
