@<TRIPOS>MOLECULE
20K
   42    44     1     0     0
SMALL
bcc


@<TRIPOS>ATOM
      1 S           0.0440    0.4080    0.1580 ss        1 20K     -0.100300
      2 Cl         -4.3940    1.8600    9.7700 cl        1 20K     -0.084400
      3 C1          2.3890    0.9910   -1.2070 c3        1 20K     -0.136400
      4 N1          2.3960    0.3410    1.2000 nc        1 20K     -0.646000
      5 C2          1.7450    0.5900    0.0610 cd        1 20K      0.418700
      6 N2         -3.3620   -0.9330    3.9880 nb        1 20K     -0.734000
      7 C3          1.4940   -0.0070    2.2030 cc        1 20K      0.421600
      8 N3         -2.0590   -0.6470    6.0060 nu        1 20K     -0.700300
      9 C4          1.9760   -0.3330    3.5660 c3        1 20K     -0.129400
     10 N4         -6.4900   -0.3040    9.5460 nh        1 20K     -0.630000
     11 C5          0.1550   -0.0190    1.7910 cd        1 20K     -0.291900
     12 N5         -0.9870   -0.2850    3.9190 nb        1 20K     -0.746000
     13 C6         -1.0290   -0.3380    2.5670 ca        1 20K      0.579800
     14 C7         -2.2180   -0.6810    1.8710 ca        1 20K     -0.421600
     15 C8         -3.3520   -0.9630    2.6460 ca        1 20K      0.465200
     16 C9         -2.1590   -0.6040    4.5960 ca        1 20K      0.869900
     17 C10        -3.2070   -0.5370    6.8270 ca        1 20K      0.118600
     18 C11        -4.2280   -1.5080    6.7960 ca        1 20K     -0.088000
     19 C12        -5.3080   -1.4160    7.6620 ca        1 20K     -0.154000
     20 C13        -5.4210   -0.3760    8.6080 ca        1 20K      0.112600
     21 C14        -7.4860    0.7030    9.2460 c3        1 20K      0.166600
     22 C15        -7.0620   -1.5760    9.9240 c3        1 20K      0.166600
     23 C16        -4.3800    0.5820    8.6450 ca        1 20K      0.027400
     24 C17        -3.3020    0.5120    7.7640 ca        1 20K     -0.153000
     25 H1          3.1110    0.2040   -1.5450 hc        1 20K      0.062033
     26 H1A         2.9550    1.9480   -1.0730 hc        1 20K      0.062033
     27 H1B         1.6190    1.1370   -2.0040 hc        1 20K      0.062033
     28 HN3        -1.2530   -0.1790    6.3740 hn        1 20K      0.436800
     29 H4          3.0910   -0.4090    3.6050 hc        1 20K      0.061700
     30 H4A         1.6490    0.4680    4.2770 hc        1 20K      0.061700
     31 H4B         1.5390   -1.3060    3.9000 hc        1 20K      0.061700
     32 H7         -2.2470   -0.7250    0.7770 ha        1 20K      0.156000
     33 H8         -4.3150   -1.2290    2.1720 h4        1 20K      0.028100
     34 H11        -4.1810   -2.3450    6.0820 ha        1 20K      0.157000
     35 H12        -6.0930   -2.1870    7.6030 ha        1 20K      0.141000
     36 H14        -8.1740    0.3990    8.4100 h1        1 20K      0.038033
     37 H14A       -8.1000    0.8690   10.1710 h1        1 20K      0.038033
     38 H14B       -6.9830    1.6640    8.9660 h1        1 20K      0.038033
     39 H15        -7.7490   -2.0060    9.1440 h1        1 20K      0.038033
     40 H15A       -6.2400   -2.3110   10.1260 h1        1 20K      0.038033
     41 H15B       -7.6510   -1.4190   10.8660 h1        1 20K      0.038033
     42 H17        -2.5160    1.2830    7.8190 ha        1 20K      0.147000
@<TRIPOS>BOND
     1    1    5 1   
     2    1   11 1   
     3    2   23 1   
     4    3    5 1   
     5    3   25 1   
     6    3   26 1   
     7    3   27 1   
     8    4    5 2   
     9    4    7 1   
    10    6   15 ar  
    11    6   16 ar  
    12    7    9 1   
    13    7   11 2   
    14    8   16 1   
    15    8   17 1   
    16    8   28 1   
    17    9   29 1   
    18    9   30 1   
    19    9   31 1   
    20   10   20 1   
    21   10   21 1   
    22   10   22 1   
    23   11   13 1   
    24   12   13 ar  
    25   12   16 ar  
    26   13   14 ar  
    27   14   15 ar  
    28   14   32 1   
    29   15   33 1   
    30   17   18 ar  
    31   17   24 ar  
    32   18   19 ar  
    33   18   34 1   
    34   19   20 ar  
    35   19   35 1   
    36   20   23 ar  
    37   21   36 1   
    38   21   37 1   
    39   21   38 1   
    40   22   39 1   
    41   22   40 1   
    42   22   41 1   
    43   23   24 ar  
    44   24   42 1   
@<TRIPOS>SUBSTRUCTURE
     1 20K         1 TEMP              0 ****  ****    0 ROOT
