@<TRIPOS>MOLECULE
20K
   42    44     1     0     0
SMALL
bcc


@<TRIPOS>ATOM
      1 S           0.0400    0.4040    0.1560 ss        1 20K     -0.100300
      2 CL         -4.4000    1.8730    9.7610 cl        1 20K     -0.084400
      3 C1          2.3830    0.9900   -1.2120 c3        1 20K     -0.136400
      4 N1          2.3930    0.3420    1.1960 nc        1 20K     -0.646000
      5 C2          1.7400    0.5880    0.0580 cd        1 20K      0.417700
      6 N2         -3.3600   -0.9410    3.9910 nb        1 20K     -0.734000
      7 C3          1.4930   -0.0080    2.2000 cc        1 20K      0.421600
      8 N3         -2.0570   -0.6430    6.0080 nh        1 20K     -0.700300
      9 C4          1.9760   -0.3310    3.5630 c3        1 20K     -0.129400
     10 N4         -6.4890   -0.2990    9.5470 nh        1 20K     -0.630000
     11 C5          0.1530   -0.0230    1.7890 cd        1 20K     -0.291900
     12 N5         -0.9870   -0.2850    3.9180 nb        1 20K     -0.746000
     13 C6         -1.0300   -0.3430    2.5670 ca        1 20K      0.579800
     14 C7         -2.2180   -0.6930    1.8730 ca        1 20K     -0.421600
     15 C8         -3.3500   -0.9760    2.6490 ca        1 20K      0.465200
     16 C9         -2.1570   -0.6060    4.5980 ca        1 20K      0.869900
     17 C10        -3.2060   -0.5330    6.8280 ca        1 20K      0.118600
     18 C11        -4.2230   -1.5080    6.8020 ca        1 20K     -0.088000
     19 C12        -5.3030   -1.4150    7.6670 ca        1 20K     -0.154000
     20 C13        -5.4190   -0.3720    8.6090 ca        1 20K      0.112600
     21 C14        -7.4890    0.7020    9.2440 c3        1 20K      0.166600
     22 C15        -7.0560   -1.5720    9.9310 c3        1 20K      0.166600
     23 C16        -4.3820    0.5900    8.6420 ca        1 20K      0.027400
     24 C17        -3.3040    0.5190    7.7610 ca        1 20K     -0.153000
     25 H1          2.9470    1.9480   -1.0790 hc        1 20K      0.062033
     26 H1A         1.6110    1.1350   -2.0080 hc        1 20K      0.062033
     27 H1B         3.1050    0.2040   -1.5500 hc        1 20K      0.062033
     28 HN3        -1.2530   -0.1700    6.3740 hn        1 20K      0.436800
     29 H4          1.5400   -1.3040    3.8990 hc        1 20K      0.061700
     30 H4A         3.0910   -0.4070    3.6010 hc        1 20K      0.061700
     31 H4B         1.6500    0.4710    4.2730 hc        1 20K      0.061700
     32 H7         -2.2470   -0.7400    0.7790 ha        1 20K      0.156000
     33 H8         -4.3130   -1.2470    2.1770 h4        1 20K      0.028100
     34 H11        -4.1740   -2.3480    6.0910 ha        1 20K      0.157000
     35 H12        -6.0860   -2.1900    7.6120 ha        1 20K      0.141000
     36 H14        -8.1750    0.3920    8.4090 h1        1 20K      0.038033
     37 H14A       -6.9880    1.6640    8.9590 h1        1 20K      0.038033
     38 H14B       -8.1020    0.8700   10.1680 h1        1 20K      0.038033
     39 H15        -6.2320   -2.3040   10.1360 h1        1 20K      0.038033
     40 H15A       -7.7420   -2.0080    9.1530 h1        1 20K      0.038033
     41 H15B       -7.6450   -1.4130   10.8720 h1        1 20K      0.038033
     42 H17        -2.5210    1.2930    7.8120 ha        1 20K      0.147000
@<TRIPOS>BOND
     1    1    5 1   
     2    1   11 1   
     3    2   23 1   
     4    3    5 1   
     5    3   25 1   
     6    3   26 1   
     7    3   27 1   
     8    4    5 2   
     9    4    7 1   
    10    6   15 ar  
    11    6   16 ar  
    12    7    9 1   
    13    7   11 2   
    14    8   16 1   
    15    8   17 1   
    16    8   28 1   
    17    9   29 1   
    18    9   30 1   
    19    9   31 1   
    20   10   20 1   
    21   10   21 1   
    22   10   22 1   
    23   11   13 1   
    24   12   13 ar  
    25   12   16 ar  
    26   13   14 ar  
    27   14   15 ar  
    28   14   32 1   
    29   15   33 1   
    30   17   18 ar  
    31   17   24 ar  
    32   18   19 ar  
    33   18   34 1   
    34   19   20 ar  
    35   19   35 1   
    36   20   23 ar  
    37   21   36 1   
    38   21   37 1   
    39   21   38 1   
    40   22   39 1   
    41   22   40 1   
    42   22   41 1   
    43   23   24 ar  
    44   24   42 1   
@<TRIPOS>SUBSTRUCTURE
     1 20K         1 TEMP              0 ****  ****    0 ROOT
