@<TRIPOS>MOLECULE
20K
   44    46     1     0     0
SMALL
bcc


@<TRIPOS>ATOM
      1 S          -0.2420    0.5060    0.3970 ss        1 20K     -0.043300
      2 CL         -3.2970    1.6850    9.1620 cl        1 20K      0.025600
      3 C1          1.8840    1.9130   -0.6940 c3        1 20K     -0.161400
      4 N1          1.8750    1.1790    1.6920 nc        1 20K     -0.642000
      5 C2          1.2880    1.2520    0.4860 cd        1 20K      0.487700
      6 N2         -3.3300   -2.1380    3.8240 nb        1 20K     -0.704000
      7 C3          1.0700    0.4970    2.5820 cc        1 20K      0.486600
      8 N3         -2.0940   -2.1180    5.9240 n4        1 20K     -0.623100
      9 C4          1.5190    0.2810    3.9770 c3        1 20K     -0.141400
     10 N4         -6.0560    0.4310    9.2040 n4        1 20K     -0.561800
     11 C5         -0.1560    0.0500    2.0290 cd        1 20K     -0.389900
     12 N5         -1.1460   -1.0050    3.9890 nb        1 20K     -0.704000
     13 C6         -1.2090   -0.6850    2.6590 ca        1 20K      0.630800
     14 C7         -2.3430   -1.0890    1.8830 ca        1 20K     -0.324600
     15 C8         -3.3660   -1.8050    2.5090 ca        1 20K      0.466200
     16 C9         -2.2030   -1.7210    4.4730 ca        1 20K      0.707900
     17 C10        -3.1120   -1.4550    6.7460 ca        1 20K      0.026600
     18 C11        -4.4170   -1.9760    6.7980 ca        1 20K     -0.064000
     19 C12        -5.3730   -1.3570    7.6010 ca        1 20K     -0.074000
     20 C13        -5.0440   -0.2160    8.3510 ca        1 20K     -0.000400
     21 C14        -7.2010    0.9410    8.3940 c3        1 20K      0.086100
     22 C15        -6.5270   -0.4900   10.2790 c3        1 20K      0.086100
     23 C16        -3.7340    0.3120    8.2840 ca        1 20K      0.029400
     24 C17        -2.7710   -0.3080    7.4790 ca        1 20K     -0.077000
     25 H1          1.1950    1.8470   -1.5720 hc        1 20K      0.087367
     26 H1A         2.0910    2.9930   -0.4740 hc        1 20K      0.087367
     27 H1B         2.8590    1.4250   -0.9610 hc        1 20K      0.087367
     28 HN3        -1.1510   -1.8730    6.2690 hn        1 20K      0.489300
     29 H4          0.8000    0.7670    4.6830 hc        1 20K      0.067367
     30 H4A         1.5630   -0.8160    4.1920 hc        1 20K      0.067367
     31 H4B         2.5360    0.7150    4.1560 hc        1 20K      0.067367
     32 H7         -2.4000   -0.8440    0.8090 ha        1 20K      0.198000
     33 H8         -4.2680   -2.1470    1.9590 h4        1 20K      0.074100
     34 H11        -4.7090   -2.8640    6.2040 ha        1 20K      0.206000
     35 H12        -6.3920   -1.7860    7.6280 ha        1 20K      0.188000
     36 H14        -7.7370    0.0820    7.9090 hx        1 20K      0.115533
     37 H14A       -7.9090    1.4860    9.0780 hx        1 20K      0.115533
     38 H14B       -6.8180    1.6430    7.6060 hx        1 20K      0.115533
     39 H15        -7.2450    0.0700   10.9410 hx        1 20K      0.115533
     40 H15A       -5.6480   -0.8390   10.8840 hx        1 20K      0.115533
     41 H15B       -7.0490   -1.3730    9.8230 hx        1 20K      0.115533
     42 H17        -1.7520    0.1270    7.4350 ha        1 20K      0.203000
     43 H32        -2.2190   -3.1410    5.9830 hn        1 20K      0.489300
     44 H41        -5.6070    1.2480    9.6620 hn        1 20K      0.472800
@<TRIPOS>BOND
     1    1    5 1   
     2    1   11 1   
     3    2   23 1   
     4    3    5 1   
     5    3   25 1   
     6    3   26 1   
     7    3   27 1   
     8    4    5 2   
     9    4    7 1   
    10    6   15 ar  
    11    6   16 ar  
    12    7    9 1   
    13    7   11 2   
    14    8   16 1   
    15    8   17 1   
    16    8   28 1   
    17    8   43 1   
    18    9   29 1   
    19    9   30 1   
    20    9   31 1   
    21   10   20 1   
    22   10   21 1   
    23   10   22 1   
    24   10   44 1   
    25   11   13 1   
    26   12   13 ar  
    27   12   16 ar  
    28   13   14 ar  
    29   14   15 ar  
    30   14   32 1   
    31   15   33 1   
    32   17   18 ar  
    33   17   24 ar  
    34   18   19 ar  
    35   18   34 1   
    36   19   20 ar  
    37   19   35 1   
    38   20   23 ar  
    39   21   36 1   
    40   21   37 1   
    41   21   38 1   
    42   22   39 1   
    43   22   40 1   
    44   22   41 1   
    45   23   24 ar  
    46   24   42 1   
@<TRIPOS>SUBSTRUCTURE
     1 20K         1 TEMP              0 ****  ****    0 ROOT
