@<TRIPOS>MOLECULE
20L
   29    25     1     0     0
SMALL
bcc


@<TRIPOS>ATOM
      1 N13         0.3550   -0.4790   -4.6990 n4        1 20L     -0.076000
      2 C15        -0.6580   -0.0510   -3.7890 c3        1 20L     -0.055000
      3 C22        -1.1460    0.5610    4.5620 c1        1 20L     -0.115750
      4 C21        -0.8560   -0.7510    4.2260 c1        1 20L     -0.115750
      5 C20         0.0110   -1.0230    3.1790 c1        1 20L     -0.115750
      6 C19         0.5860    0.0180    2.4670 c1        1 20L      0.075000
      7 C18         0.2950    1.3310    2.8040 c1        1 20L     -0.164000
      8 C17        -0.5710    1.6020    3.8510 c1        1 20L     -0.115750
      9 C23        -0.1160   -0.0930   -2.3740 c2        1 20L     -0.250000
     10 C24        -0.1760   -1.2690   -1.6440 c1        1 20L     -0.051000
     11 C25         0.3370   -1.3140   -0.3570 c1        1 20L     -0.164000
     12 C26         0.9110   -0.1810    0.2000 c1        1 20L      0.075000
     13 C27         0.9710    0.9960   -0.5310 c1        1 20L     -0.155000
     14 C28         0.4570    1.0400   -1.8180 c2        1 20L     -0.065000
     15 O10         1.5320   -0.2560    1.4630 os        1 20L     -0.136000
     16 H19         0.9080    0.2270   -4.8960 hn        1 20L      0.250333
     17 H29         0.8450   -1.1540   -4.3160 hn        1 20L      0.250333
     18 H39        -0.0370   -0.7850   -5.4710 hn        1 20L      0.250333
     19 H21        -1.2610   -1.4850    4.7270 ha        1 20L      0.150500
     20 H25         0.2950   -2.1430    0.1570 ha        1 20L      0.162000
     21 H17        -0.7760    2.5270    4.0880 ha        1 20L      0.150500
     22 H18         0.7000    2.0640    2.3030 ha        1 20L      0.162000
     23 H22        -1.7560    0.7520    5.3000 ha        1 20L      0.150500
     24 H24        -0.5800   -2.0670   -2.0360 ha        1 20L      0.139000
     25 H28         0.4990    1.8680   -2.3320 ha        1 20L      0.139000
     26 H27         1.3750    1.7940   -0.1390 ha        1 20L      0.178000
     27 H20         0.2150   -1.9480    2.9420 ha        1 20L      0.150500
     28 H51        -1.4330   -0.6460   -3.8600 hx        1 20L      0.148500
     29 H52        -0.9280    0.8650   -4.0080 hx        1 20L      0.148500
@<TRIPOS>BOND
     1    1    2 1   
     2    1   16 1   
     3    1   17 1   
     4    1   18 1   
     5    2    9 1   
     6    2   28 1   
     7    2   29 1   
     8    3    8 1   
     9    3   23 1   
    10    4    5 1   
    11    4   19 1   
    12    5   27 1   
    13    6    7 1   
    14    6   15 1   
    15    7   22 1   
    16    8   21 1   
    17    9   10 1   
    18    9   14 1   
    19   10   24 1   
    20   11   12 1   
    21   11   20 1   
    22   12   15 1   
    23   13   14 1   
    24   13   26 1   
    25   14   25 1   
@<TRIPOS>SUBSTRUCTURE
     1 20L         1 TEMP              0 ****  ****    0 ROOT
