@<TRIPOS>MOLECULE
20L
   29    30     1     0     0
SMALL
bcc


@<TRIPOS>ATOM
      1 N13        -0.3180   -0.7360    0.5970 n4        1 20L     -0.848600
      2 C15         1.0300   -0.2260    0.1560 c3        1 20L      0.189100
      3 C22         7.0950   -0.9100    6.3840 ca        1 20L     -0.112000
      4 C21         7.3590   -0.3370    5.1390 ca        1 20L     -0.115500
      5 C20         6.3770    0.4020    4.4820 ca        1 20L     -0.125000
      6 C19         5.1290    0.5530    5.0980 ca        1 20L      0.046100
      7 C18         4.8460   -0.0150    6.3460 ca        1 20L     -0.125000
      8 C17         5.8460   -0.7480    6.9860 ca        1 20L     -0.115500
      9 C23         1.8490    0.1670    1.3270 ca        1 20L     -0.257300
     10 C24         2.7500   -0.7440    1.8940 ca        1 20L     -0.058000
     11 C25         3.5480   -0.3690    2.9670 ca        1 20L     -0.176000
     12 C26         3.4460    0.9350    3.4780 ca        1 20L      0.195100
     13 C27         2.5460    1.8640    2.9090 ca        1 20L     -0.176000
     14 C28         1.7590    1.4720    1.8390 ca        1 20L     -0.058000
     15 O10         4.1730    1.4160    4.5390 os        1 20L     -0.226200
     16 H19        -0.8030   -0.0080    1.1330 hn        1 20L      0.455133
     17 H29        -0.8860   -0.9960   -0.2120 hn        1 20L      0.455133
     18 H39        -0.1970   -1.5520    1.2040 hn        1 20L      0.455133
     19 H25         4.2630   -1.0800    3.4110 ha        1 20L      0.176000
     20 H17         5.6470   -1.1930    7.9720 ha        1 20L      0.150000
     21 H18         3.8640    0.1360    6.8150 ha        1 20L      0.151000
     22 H22         7.8790   -1.4880    6.8990 ha        1 20L      0.150000
     23 H24         2.8420   -1.7620    1.4840 ha        1 20L      0.139000
     24 H28         1.0720    2.2000    1.3790 ha        1 20L      0.139000
     25 H27         2.4910    2.8850    3.3190 ha        1 20L      0.176000
     26 H20         6.5770    0.8730    3.5090 ha        1 20L      0.151000
     27 H51         0.8440    0.6530   -0.5270 hx        1 20L      0.109200
     28 H52         1.5220   -1.0530   -0.4330 hx        1 20L      0.109200
     29 H21         8.3500   -0.4600    4.6750 ha        1 20L      0.150000
@<TRIPOS>BOND
     1    1    2 1   
     2    1   16 1   
     3    1   17 1   
     4    1   18 1   
     5    2    9 1   
     6    2   27 1   
     7    2   28 1   
     8    3    4 ar  
     9    3    8 ar  
    10    3   22 1   
    11    4    5 ar  
    12    4   29 1   
    13    5    6 ar  
    14    5   26 1   
    15    6    7 ar  
    16    6   15 1   
    17    7    8 ar  
    18    7   21 1   
    19    8   20 1   
    20    9   10 ar  
    21    9   14 ar  
    22   10   11 ar  
    23   10   23 1   
    24   11   12 ar  
    25   11   19 1   
    26   12   13 ar  
    27   12   15 1   
    28   13   14 ar  
    29   13   25 1   
    30   14   24 1   
@<TRIPOS>SUBSTRUCTURE
     1 20L         1 TEMP              0 ****  ****    0 ROOT
