@<TRIPOS>MOLECULE
20L
   29    30     1     0     0
SMALL
bcc


@<TRIPOS>ATOM
      1 N13        -0.3210   -0.7410    0.6030 nz        1 20L     -0.848600
      2 C15         1.0140   -0.1960    0.1670 c3        1 20L      0.189100
      3 C22         7.1310   -0.9180    6.3390 ca        1 20L     -0.112000
      4 C21         7.3790   -0.3030    5.1110 ca        1 20L     -0.116000
      5 C20         6.3790    0.4330    4.4780 ca        1 20L     -0.125500
      6 C19         5.1300    0.5390    5.1010 ca        1 20L      0.045100
      7 C18         4.8640   -0.0710    6.3320 ca        1 20L     -0.125500
      8 C17         5.8810   -0.8000    6.9480 ca        1 20L     -0.116000
      9 C23         1.8340    0.1840    1.3410 ca        1 20L     -0.257300
     10 C24         2.7560   -0.7240    1.8810 ca        1 20L     -0.058000
     11 C25         3.5540   -0.3600    2.9570 ca        1 20L     -0.176000
     12 C26         3.4300    0.9290    3.5010 ca        1 20L      0.195100
     13 C27         2.5090    1.8550    2.9610 ca        1 20L     -0.176000
     14 C28         1.7230    1.4740    1.8860 ca        1 20L     -0.058000
     15 O10         4.1550    1.3970    4.5690 os        1 20L     -0.226200
     16 H19        -0.8160   -0.0370    1.1590 hn        1 20L      0.455133
     17 H29        -0.8890   -0.9930   -0.2090 hn        1 20L      0.455133
     18 H39        -0.1810   -1.5700    1.1890 hn        1 20L      0.455133
     19 H25         4.2850   -1.0680    3.3790 ha        1 20L      0.176000
     20 H17         5.6940   -1.2790    7.9220 ha        1 20L      0.150000
     21 H18         3.8790    0.0450    6.8080 ha        1 20L      0.151000
     22 H22         7.9290   -1.4930    6.8350 ha        1 20L      0.150000
     23 H24         2.8650   -1.7300    1.4440 ha        1 20L      0.139000
     24 H28         1.0180    2.1990    1.4480 ha        1 20L      0.139000
     25 H27         2.4370    2.8630    3.3970 ha        1 20L      0.176000
     26 H20         6.5660    0.9360    3.5190 ha        1 20L      0.151000
     27 H51         1.5180   -0.9990   -0.4450 hx        1 20L      0.109200
     28 H52         0.8080    0.6960   -0.4940 hx        1 20L      0.109200
     29 H21         8.3710   -0.3910    4.6410 ha        1 20L      0.150000
@<TRIPOS>BOND
     1    1    2 1   
     2    1   16 1   
     3    1   17 1   
     4    1   18 1   
     5    2    9 1   
     6    2   27 1   
     7    2   28 1   
     8    3    4 ar  
     9    3    8 ar  
    10    3   22 1   
    11    4    5 ar  
    12    4   29 1   
    13    5    6 ar  
    14    5   26 1   
    15    6    7 ar  
    16    6   15 1   
    17    7    8 ar  
    18    7   21 1   
    19    8   20 1   
    20    9   10 ar  
    21    9   14 ar  
    22   10   11 ar  
    23   10   23 1   
    24   11   12 ar  
    25   11   19 1   
    26   12   13 ar  
    27   12   15 1   
    28   13   14 ar  
    29   13   25 1   
    30   14   24 1   
@<TRIPOS>SUBSTRUCTURE
     1 20L         1 TEMP              0 ****  ****    0 ROOT
