@<TRIPOS>MOLECULE
20L
   29    30     1     0     0
SMALL
bcc


@<TRIPOS>ATOM
      1 N13        -0.2900   -0.7240    0.5560 n4        1 20L     -0.848600
      2 C15         1.0400   -0.1510    0.1430 c3        1 20L      0.189100
      3 C22         7.1190   -0.9470    6.3450 ca        1 20L     -0.111000
      4 C21         7.3710   -0.2930    5.1380 ca        1 20L     -0.116000
      5 C20         6.3660    0.4460    4.5150 ca        1 20L     -0.125500
      6 C19         5.1090    0.5150    5.1260 ca        1 20L      0.045100
      7 C18         4.8390   -0.1350    6.3360 ca        1 20L     -0.125500
      8 C17         5.8600   -0.8660    6.9420 ca        1 20L     -0.116000
      9 C23         1.8460    0.2100    1.3330 ca        1 20L     -0.257300
     10 C24         2.7760   -0.6990    1.8580 ca        1 20L     -0.058000
     11 C25         3.5610   -0.3510    2.9490 ca        1 20L     -0.176000
     12 C26         3.4170    0.9230    3.5230 ca        1 20L      0.195100
     13 C27         2.4870    1.8490    2.9980 ca        1 20L     -0.176000
     14 C28         1.7140    1.4850    1.9090 ca        1 20L     -0.058000
     15 O10         4.1270    1.3740    4.6080 os        1 20L     -0.226200
     16 H19        -0.7990   -0.0390    1.1250 hn        1 20L      0.455133
     17 H29        -0.8490   -0.9630   -0.2670 hn        1 20L      0.455133
     18 H39        -0.1440   -1.5650    1.1230 hn        1 20L      0.455133
     19 H25         4.2980   -1.0600    3.3590 ha        1 20L      0.176000
     20 H17         5.6700   -1.3750    7.9000 ha        1 20L      0.150000
     21 H18         3.8480   -0.0470    6.8040 ha        1 20L      0.151000
     22 H22         7.9200   -1.5240    6.8320 ha        1 20L      0.150000
     23 H24         2.9010   -1.6920    1.3980 ha        1 20L      0.139000
     24 H28         1.0040    2.2120    1.4830 ha        1 20L      0.139000
     25 H27         2.3990    2.8460    3.4580 ha        1 20L      0.176000
     26 H20         6.5560    0.9800    3.5730 ha        1 20L      0.151000
     27 H51         1.5600   -0.9320   -0.4840 hx        1 20L      0.109200
     28 H52         0.8280    0.7540   -0.4960 hx        1 20L      0.109200
     29 H21         8.3690   -0.3520    4.6770 ha        1 20L      0.150000
@<TRIPOS>BOND
     1    1    2 1   
     2    1   16 1   
     3    1   17 1   
     4    1   18 1   
     5    2    9 1   
     6    2   27 1   
     7    2   28 1   
     8    3    4 ar  
     9    3    8 ar  
    10    3   22 1   
    11    4    5 ar  
    12    4   29 1   
    13    5    6 ar  
    14    5   26 1   
    15    6    7 ar  
    16    6   15 1   
    17    7    8 ar  
    18    7   21 1   
    19    8   20 1   
    20    9   10 ar  
    21    9   14 ar  
    22   10   11 ar  
    23   10   23 1   
    24   11   12 ar  
    25   11   19 1   
    26   12   13 ar  
    27   12   15 1   
    28   13   14 ar  
    29   13   25 1   
    30   14   24 1   
@<TRIPOS>SUBSTRUCTURE
     1 20L         1 TEMP              0 ****  ****    0 ROOT
