@<TRIPOS>MOLECULE
20L
   29    30     1     0     0
SMALL
bcc


@<TRIPOS>ATOM
      1 N13         4.9570   -0.6990    0.7090 n4        1 20L     -0.848600
      2 C15         4.3320    0.5630    0.1740 c3        1 20L      0.189100
      3 C22        -4.3540    0.6100    0.9440 ca        1 20L     -0.111000
      4 C21        -3.6570    1.6500    0.3260 ca        1 20L     -0.116000
      5 C20        -2.5090    1.3830   -0.4190 ca        1 20L     -0.125500
      6 C19        -2.0770    0.0560   -0.5290 ca        1 20L      0.045100
      7 C18        -2.7630   -0.9990    0.0840 ca        1 20L     -0.125500
      8 C17        -3.9100   -0.7070    0.8220 ca        1 20L     -0.116000
      9 C23         2.9170    0.3300   -0.1990 ca        1 20L     -0.257300
     10 C24         1.8920    0.6060    0.7150 ca        1 20L     -0.058000
     11 C25         0.5620    0.4250    0.3570 ca        1 20L     -0.176000
     12 C26         0.2530   -0.0360   -0.9330 ca        1 20L      0.195100
     13 C27         1.2790   -0.3120   -1.8650 ca        1 20L     -0.176000
     14 C28         2.5990   -0.1240   -1.4900 ca        1 20L     -0.058000
     15 O10        -1.0190   -0.2630   -1.3950 os        1 20L     -0.226200
     16 H19         4.4450   -1.0140    1.5380 hn        1 20L      0.455133
     17 H29         4.9020   -1.4370   -0.0000 hn        1 20L      0.455133
     18 H39         5.9360   -0.5380    0.9560 hn        1 20L      0.455133
     19 H25        -0.2470    0.6480    1.0710 ha        1 20L      0.176000
     20 H17        -4.4700   -1.5240    1.3030 ha        1 20L      0.150000
     21 H18        -2.4120   -2.0330   -0.0360 ha        1 20L      0.151000
     22 H22        -5.2630    0.8300    1.5260 ha        1 20L      0.150000
     23 H24         2.1330    0.9830    1.7220 ha        1 20L      0.139000
     24 H28         3.4010   -0.3160   -2.2210 ha        1 20L      0.139000
     25 H27         1.0120   -0.6620   -2.8740 ha        1 20L      0.176000
     26 H20        -1.9610    2.1900   -0.9250 ha        1 20L      0.151000
     27 H51         4.4210    1.3470    0.9810 hx        1 20L      0.109200
     28 H52         4.9430    0.8830   -0.7200 hx        1 20L      0.109200
     29 H21        -4.0180    2.6860    0.4170 ha        1 20L      0.150000
@<TRIPOS>BOND
     1    1    2 1   
     2    1   16 1   
     3    1   17 1   
     4    1   18 1   
     5    2    9 1   
     6    2   27 1   
     7    2   28 1   
     8    3    4 ar  
     9    3    8 ar  
    10    3   22 1   
    11    4    5 ar  
    12    4   29 1   
    13    5    6 ar  
    14    5   26 1   
    15    6    7 ar  
    16    6   15 1   
    17    7    8 ar  
    18    7   21 1   
    19    8   20 1   
    20    9   10 ar  
    21    9   14 ar  
    22   10   11 ar  
    23   10   23 1   
    24   11   12 ar  
    25   11   19 1   
    26   12   13 ar  
    27   12   15 1   
    28   13   14 ar  
    29   13   25 1   
    30   14   24 1   
@<TRIPOS>SUBSTRUCTURE
     1 20L         1 TEMP              0 ****  ****    0 ROOT
