@<TRIPOS>MOLECULE
20M
   62    56     1     0     0
SMALL
bcc


@<TRIPOS>ATOM
      1 C1         -1.3840    2.1920    0.5100 c1        1 20M     -0.143000
      2 C2          0.0240    2.1500    0.4660 c1        1 20M     -0.020000
      3 C3          0.6930    2.4600   -0.7160 c1        1 20M     -0.802000
      4 C4         -0.0380    2.8150   -1.8620 c2        1 20M     -0.021000
      5 C5         -1.4360    2.8570   -1.8170 c1        1 20M     -0.147000
      6 C6         -2.1080    2.5460   -0.6330 c1        1 20M     -0.053000
      7 C7         -3.6050    2.6400   -0.5770 c3        1 20M      0.008000
      8 N8         -4.1570    1.5350   -1.2140 n3        1 20M     -0.308000
      9 C9         -5.5110    1.0930   -0.8630 c1        1 20M      0.313000
     10 N10        -6.0210    1.2790    0.5420 n1        1 20M     -0.302000
     11 C11        -6.9990    0.2920    1.1300 c1        1 20M      0.207000
     12 C12        -7.1400    0.2260    2.4830 c2        1 20M     -0.202000
     13 C13        -8.1900   -0.4940    3.0370 c1        1 20M     -0.002000
     14 N14        -9.0850   -1.1380    2.2250 n1        1 20M     -0.167000
     15 C15        -8.9510   -1.0770    0.8980 c1        1 20M      0.065000
     16 C16        -7.8860   -0.3460    0.3280 c1        1 20M     -0.997000
     17 S17        -7.6490   -0.3600   -1.3540 ss        1 20M      2.864500
     18 O18        -7.5760   -1.7440   -1.8240 o         1 20M     -0.925250
     19 O19        -8.7820    0.2700   -1.9530 o         1 20M     -0.925250
     20 N20        -6.3240    0.4500   -1.8300 n1        1 20M     -0.828000
     21 S21         2.5300    2.4360   -0.7660 ss        1 20M      2.864500
     22 O22         3.0850    3.3700    0.1350 o         1 20M     -0.925250
     23 O23         3.0220    2.9250   -1.9980 o         1 20M     -0.925250
     24 N24         3.0900    0.8880   -0.4610 n2        1 20M     -0.834000
     25 C25         3.5930    0.5390    0.8770 c3        1 20M     -0.005500
     26 C26         3.5560   -0.9510    1.1380 c3        1 20M     -0.170000
     27 C27         4.2130   -1.7270    0.0600 c3        1 20M     -0.005000
     28 C28         3.7000   -1.3670   -1.2800 c3        1 20M     -0.170000
     29 C29         3.7370    0.1230   -1.5320 c3        1 20M     -0.005500
     30 N30         5.6710   -1.4650    0.1050 n3        1 20M     -0.255000
     31 C31         6.2380   -1.7790    1.5880 c3        1 20M     -0.075000
     32 C32         6.4190   -3.1180    1.6480 c3        1 20M     -0.167000
     33 C33         6.6690   -3.5530    0.2050 c3        1 20M     -0.167000
     34 C34         6.2860   -2.2820   -0.6980 c3        1 20M     -0.075000
     35 H1         -1.8740    1.9650    1.3770 ha        1 20M      0.145000
     36 H2          0.5520    1.8920    1.2960 ha        1 20M      0.157000
     37 H3          0.4360    3.0350   -2.7050 ha        1 20M      0.157000
     38 H4         -1.9380    3.1010   -2.6070 ha        1 20M      0.148000
     39 H5         -3.9190    2.6660    0.4180 h1        1 20M      0.116000
     40 H6         -3.8790    3.4100   -1.0040 h1        1 20M      0.116000
     41 H7         -3.7050    1.1320   -1.9150 hn        1 20M      0.231000
     42 H8         -6.4880    0.6940    3.0780 ha        1 20M      0.164000
     43 H9         -8.2910   -0.5390    4.0100 ha        1 20M      0.166000
     44 H10        -9.5920   -1.5380    0.3210 ha        1 20M      0.171000
     45 H11        -6.1660    0.5810   -2.7120 hn        1 20M      0.249000
     46 H12         3.0270    0.9980    1.5610 h1        1 20M      0.099500
     47 H13         4.5300    0.8560    0.9630 h1        1 20M      0.099500
     48 H14         2.6120   -1.2420    1.2160 hc        1 20M      0.088750
     49 H15         4.0220   -1.1350    1.9940 hc        1 20M      0.088750
     50 H16         4.0610   -2.6510    0.2070 h1        1 20M      0.059000
     51 H17         4.1920   -1.7740   -1.8930 hc        1 20M      0.088750
     52 H18         2.7980   -1.6670   -1.3550 hc        1 20M      0.088750
     53 H19         3.2820    0.3100   -2.3660 h1        1 20M      0.099500
     54 H20         4.6030    0.3880   -1.6030 h1        1 20M      0.099500
     55 H22         5.5710   -1.4900    2.2790 h1        1 20M      0.078000
     56 H23         7.0720   -1.3290    1.7260 h1        1 20M      0.078000
     57 H24         5.6550   -3.5310    1.9790 hc        1 20M      0.088500
     58 H25         7.1720   -3.3270    2.1930 hc        1 20M      0.088500
     59 H26         7.6500   -3.7970    0.0740 hc        1 20M      0.088500
     60 H27         6.1090   -4.3010   -0.0180 hc        1 20M      0.088500
     61 H28         7.1380   -1.8370   -1.0750 h1        1 20M      0.078000
     62 H29         5.6830   -2.5530   -1.4370 h1        1 20M      0.078000
@<TRIPOS>BOND
     1    1    6 1   
     2    1   35 1   
     3    2    3 1   
     4    2   36 1   
     5    3    4 1   
     6    4    5 1   
     7    4   37 1   
     8    5   38 1   
     9    6    7 1   
    10    7    8 1   
    11    7   39 1   
    12    7   40 1   
    13    8    9 1   
    14    8   41 1   
    15    9   10 1   
    16   11   12 1   
    17   11   16 1   
    18   12   13 1   
    19   12   42 1   
    20   13   43 1   
    21   14   15 1   
    22   15   44 1   
    23   17   18 1   
    24   17   19 1   
    25   20   45 1   
    26   21   22 1   
    27   21   23 1   
    28   24   25 1   
    29   24   29 1   
    30   25   26 1   
    31   25   46 1   
    32   25   47 1   
    33   26   27 1   
    34   26   48 1   
    35   26   49 1   
    36   27   28 1   
    37   27   30 1   
    38   27   50 1   
    39   28   29 1   
    40   28   51 1   
    41   28   52 1   
    42   29   53 1   
    43   29   54 1   
    44   30   31 1   
    45   30   34 1   
    46   31   32 1   
    47   31   55 1   
    48   31   56 1   
    49   32   33 1   
    50   32   57 1   
    51   32   58 1   
    52   33   34 1   
    53   33   59 1   
    54   33   60 1   
    55   34   61 1   
    56   34   62 1   
@<TRIPOS>SUBSTRUCTURE
     1 20M         1 TEMP              0 ****  ****    0 ROOT
