@<TRIPOS>MOLECULE
20M
   63    67     1     0     0
SMALL
bcc


@<TRIPOS>ATOM
      1 C1         -0.2280    0.4470    0.1110 ca        1 20M     -0.125000
      2 C2          1.1300    0.5280   -0.1950 ca        1 20M     -0.019000
      3 C3          2.0940    0.1080    0.7250 ca        1 20M     -0.281500
      4 C4          1.6850   -0.3830    1.9660 ca        1 20M     -0.019000
      5 C5          0.3300   -0.4710    2.2860 ca        1 20M     -0.125000
      6 C6         -0.6270   -0.0590    1.3530 ca        1 20M     -0.151300
      7 C7         -2.0780   -0.1400    1.6860 c3        1 20M      0.173100
      8 N8         -2.6710   -1.3950    1.0940 n4        1 20M     -0.739000
      9 C9         -4.1460   -1.4790    1.3910 c2        1 20M      0.740100
     10 N10        -4.9400   -1.1400    0.4000 ne        1 20M     -0.588100
     11 C11        -6.3380   -1.2140    0.5750 ca        1 20M      0.260400
     12 C12        -7.1630   -1.0580   -0.5510 ca        1 20M     -0.212300
     13 C13        -8.5580   -1.1570   -0.3670 ca        1 20M      0.486200
     14 N14        -9.1390   -1.3990    0.8210 nb        1 20M     -0.639000
     15 C15        -8.3390   -1.5390    1.8910 ca        1 20M      0.537200
     16 C16        -6.9280   -1.4440    1.8510 ca        1 20M     -0.558800
     17 S17        -6.0850   -1.5620    3.2820 sy        1 20M      1.533200
     18 O18        -6.0240   -0.3380    3.9300 o         1 20M     -0.597800
     19 O19        -6.4570   -2.6750    4.0210 o         1 20M     -0.597800
     20 N20        -4.5230   -1.8700    2.6710 nh        1 20M     -0.816100
     21 S21         3.7810    0.1180    0.2960 sy        1 20M      1.494200
     22 O22         4.3620   -0.9190    1.0490 o         1 20M     -0.634300
     23 O23         3.8070    0.0190   -1.1080 o         1 20M     -0.634300
     24 N24         4.2740    1.5610    0.7970 n3        1 20M     -0.825500
     25 C25         4.2840    2.7260   -0.0590 c3        1 20M      0.219800
     26 C26         5.6380    3.4290   -0.1340 c3        1 20M     -0.093400
     27 C27         6.1440    3.7700    1.2780 c3        1 20M      0.194500
     28 C28         6.2080    2.4630    2.0860 c3        1 20M     -0.093400
     29 C29         4.8400    1.7820    2.1080 c3        1 20M      0.219800
     30 N30         7.4400    4.4450    1.2390 n3        1 20M     -0.727600
     31 C31         7.4550    5.6710    0.4380 c3        1 20M      0.161800
     32 C32         8.3530    6.7050    1.1350 c3        1 20M     -0.088400
     33 C33         8.7030    6.1120    2.4940 c3        1 20M     -0.088400
     34 C34         8.0010    4.7470    2.5570 c3        1 20M      0.161800
     35 H1         -0.9750    0.7940   -0.6190 ha        1 20M      0.145000
     36 H2          1.4490    0.9060   -1.1840 ha        1 20M      0.177000
     37 H3          2.4430   -0.7280    2.6940 ha        1 20M      0.177000
     38 H4          0.0250   -0.8520    3.2730 ha        1 20M      0.145000
     39 H5         -2.6440    0.7370    1.2540 hx        1 20M      0.120700
     40 H6         -2.2430   -0.1670    2.8020 hx        1 20M      0.120700
     41 H7         -2.1920   -2.2200    1.4720 hn        1 20M      0.472800
     42 H8         -6.7480   -0.8700   -1.5530 ha        1 20M      0.182000
     43 H9         -9.2480   -1.0380   -1.2280 h4        1 20M      0.061100
     44 H10        -8.8620   -1.7460    2.8500 h4        1 20M      0.061100
     45 H11        -3.8720   -2.3890    3.2170 hn        1 20M      0.467800
     46 H12         3.5170    3.4600    0.3260 h1        1 20M      0.054200
     47 H13         3.9830    2.4140   -1.1020 h1        1 20M      0.054200
     48 H14         6.3860    2.7810   -0.6590 hc        1 20M      0.067700
     49 H15         5.5050    4.3620   -0.7410 hc        1 20M      0.067700
     50 H16         5.3620    4.4330    1.7680 h1        1 20M      0.016700
     51 H17         6.5040    2.6690    3.1470 hc        1 20M      0.067700
     52 H18         6.9770    1.7790    1.6420 hc        1 20M      0.067700
     53 H19         4.9430    0.7880    2.6340 h1        1 20M      0.054200
     54 H20         4.1270    2.4260    2.7030 h1        1 20M      0.054200
     55 H22         6.4260    6.1020    0.2920 h1        1 20M      0.039200
     56 H23         7.8640    5.4030   -0.5740 h1        1 20M      0.039200
     57 H24         7.8150    7.6780    1.2430 hc        1 20M      0.052700
     58 H25         9.2750    6.8890    0.5300 hc        1 20M      0.052700
     59 H26         9.8080    5.9860    2.6020 hc        1 20M      0.052700
     60 H27         8.3510    6.7700    3.3260 hc        1 20M      0.052700
     61 H28         8.7330    3.9310    2.8040 h1        1 20M      0.039200
     62 H29         7.2160    4.7630    3.3650 h1        1 20M      0.039200
     63 H82        -2.5240   -1.3810    0.0720 hn        1 20M      0.472800
@<TRIPOS>BOND
     1    1    2 ar  
     2    1    6 ar  
     3    1   35 1   
     4    2    3 ar  
     5    2   36 1   
     6    3    4 ar  
     7    3   21 1   
     8    4    5 ar  
     9    4   37 1   
    10    5    6 ar  
    11    5   38 1   
    12    6    7 1   
    13    7    8 1   
    14    7   39 1   
    15    7   40 1   
    16    8    9 1   
    17    8   41 1   
    18    8   63 1   
    19    9   10 2   
    20    9   20 1   
    21   10   11 1   
    22   11   12 ar  
    23   11   16 ar  
    24   12   13 ar  
    25   12   42 1   
    26   13   14 ar  
    27   13   43 1   
    28   14   15 ar  
    29   15   16 ar  
    30   15   44 1   
    31   16   17 1   
    32   17   18 2   
    33   17   19 2   
    34   17   20 1   
    35   20   45 1   
    36   21   22 2   
    37   21   23 2   
    38   21   24 1   
    39   24   25 1   
    40   24   29 1   
    41   25   26 1   
    42   25   46 1   
    43   25   47 1   
    44   26   27 1   
    45   26   48 1   
    46   26   49 1   
    47   27   28 1   
    48   27   30 1   
    49   27   50 1   
    50   28   29 1   
    51   28   51 1   
    52   28   52 1   
    53   29   53 1   
    54   29   54 1   
    55   30   31 1   
    56   30   34 1   
    57   31   32 1   
    58   31   55 1   
    59   31   56 1   
    60   32   33 1   
    61   32   57 1   
    62   32   58 1   
    63   33   34 1   
    64   33   59 1   
    65   33   60 1   
    66   34   61 1   
    67   34   62 1   
@<TRIPOS>SUBSTRUCTURE
     1 20M         1 TEMP              0 ****  ****    0 ROOT
