@<TRIPOS>MOLECULE
20M
   62    66     1     0     0
SMALL
bcc


@<TRIPOS>ATOM
      1 C1          0.1270    0.3020   -1.7400 ca        1 20M     -0.145500
      2 C2         -1.1490    0.8610   -1.7500 ca        1 20M     -0.017000
      3 C3         -1.7320    1.3470   -0.5750 ca        1 20M     -0.356500
      4 C4         -1.0040    1.2660    0.6180 ca        1 20M     -0.017000
      5 C5          0.2710    0.7080    0.6410 ca        1 20M     -0.145500
      6 C6          0.8410    0.2190   -0.5410 ca        1 20M     -0.056300
      7 C7          2.2000   -0.4180   -0.5190 c3        1 20M      0.261100
      8 N8          3.2290    0.5040   -0.0960 nh        1 20M     -0.835200
      9 C9          4.5440    0.0840    0.0930 c2        1 20M      0.914100
     10 N10         4.8760   -1.1830   -0.2360 ne        1 20M     -0.736100
     11 C11         6.1910   -1.6040   -0.1480 ca        1 20M      0.349400
     12 C12         6.5060   -2.9180   -0.6040 ca        1 20M     -0.270300
     13 C13         7.8240   -3.3530   -0.5350 ca        1 20M      0.463200
     14 N14         8.8510   -2.5990   -0.0600 nb        1 20M     -0.695000
     15 C15         8.5530   -1.3760    0.3710 ca        1 20M      0.531200
     16 C16         7.2490   -0.8090    0.3710 ca        1 20M     -0.621800
     17 S17         7.0570    0.7050    0.9900 sy        1 20M      1.550200
     18 O18         7.1620    0.7110    2.3840 o         1 20M     -0.643300
     19 O19         7.8650    1.6460    0.3430 o         1 20M     -0.643300
     20 N20         5.4680    1.0280    0.5860 nh        1 20M     -0.849100
     21 S21        -3.2720    2.0670   -0.6020 sy        1 20M      1.506200
     22 O22        -3.3270    2.9940    0.4610 o         1 20M     -0.648800
     23 O23        -3.4870    2.5680   -1.9050 o         1 20M     -0.648800
     24 N24        -4.2680    0.8200   -0.3100 n3        1 20M     -0.818500
     25 C25        -4.8430    0.0210   -1.3630 c3        1 20M      0.222800
     26 C26        -6.3590   -0.1480   -1.2580 c3        1 20M     -0.090400
     27 C27        -6.7400   -0.6880    0.1300 c3        1 20M      0.191500
     28 C28        -6.1920    0.2910    1.1820 c3        1 20M     -0.090400
     29 C29        -4.6810    0.4500    1.0210 c3        1 20M      0.222800
     30 N30        -8.1850   -0.8780    0.2630 n3        1 20M     -0.726600
     31 C31        -8.7680   -1.7640   -0.7470 c3        1 20M      0.161800
     32 C32        -9.8630   -2.6150   -0.0860 c3        1 20M     -0.088400
     33 C33        -9.7610   -2.3460    1.4100 c3        1 20M     -0.088400
     34 C34        -8.6090   -1.3440    1.5840 c3        1 20M      0.161800
     35 H1          0.5720   -0.0690   -2.6760 ha        1 20M      0.145000
     36 H2         -1.7040    0.9430   -2.7020 ha        1 20M      0.157500
     37 H3         -1.4440    1.6690    1.5480 ha        1 20M      0.157500
     38 H4          0.8240    0.6420    1.5900 ha        1 20M      0.145000
     39 H5          2.1660   -1.3110    0.1760 h1        1 20M      0.075200
     40 H6          2.4680   -0.8000   -1.5480 h1        1 20M      0.075200
     41 H7          2.9350    1.3640    0.3080 hn        1 20M      0.445800
     42 H8          5.7170   -3.5710   -1.0040 ha        1 20M      0.163000
     43 H9          8.1070   -4.3660   -0.8800 h4        1 20M      0.028100
     44 H10         9.4060   -0.7770    0.7510 h4        1 20M      0.034100
     45 H11         5.1390    1.9630    0.6760 hn        1 20M      0.454800
     46 H12        -4.6050    0.5030   -2.3560 h1        1 20M      0.051700
     47 H13        -4.3680   -1.0030   -1.3440 h1        1 20M      0.051700
     48 H14        -6.8730    0.8310   -1.4390 hc        1 20M      0.061200
     49 H15        -6.6810   -0.8600   -2.0620 hc        1 20M      0.061200
     50 H16        -6.1960   -1.6760    0.2710 h1        1 20M      0.016700
     51 H17        -6.7010    1.2840    1.0780 hc        1 20M      0.061200
     52 H18        -6.3890   -0.0900    2.2170 hc        1 20M      0.061200
     53 H19        -4.1870   -0.5290    1.2960 h1        1 20M      0.051700
     54 H20        -4.3250    1.2400    1.7450 h1        1 20M      0.051700
     55 H22        -9.1990   -1.1120   -1.5540 h1        1 20M      0.038700
     56 H23        -8.0020   -2.4380   -1.2220 h1        1 20M      0.038700
     57 H24       -10.8690   -2.3250   -0.4760 hc        1 20M      0.048200
     58 H25        -9.7070   -3.6970   -0.3150 hc        1 20M      0.048200
     59 H26       -10.7130   -1.9140    1.8040 hc        1 20M      0.048200
     60 H27        -9.5510   -3.2840    1.9780 hc        1 20M      0.048200
     61 H28        -7.7710   -1.8300    2.1590 h1        1 20M      0.038700
     62 H29        -8.9450   -0.4430    2.1640 h1        1 20M      0.038700
@<TRIPOS>BOND
     1    1    2 ar  
     2    1    6 ar  
     3    1   35 1   
     4    2    3 ar  
     5    2   36 1   
     6    3    4 ar  
     7    3   21 1   
     8    4    5 ar  
     9    4   37 1   
    10    5    6 ar  
    11    5   38 1   
    12    6    7 1   
    13    7    8 1   
    14    7   39 1   
    15    7   40 1   
    16    8    9 1   
    17    8   41 1   
    18    9   10 2   
    19    9   20 1   
    20   10   11 1   
    21   11   12 ar  
    22   11   16 ar  
    23   12   13 ar  
    24   12   42 1   
    25   13   14 ar  
    26   13   43 1   
    27   14   15 ar  
    28   15   16 ar  
    29   15   44 1   
    30   16   17 1   
    31   17   18 2   
    32   17   19 2   
    33   17   20 1   
    34   20   45 1   
    35   21   22 2   
    36   21   23 2   
    37   21   24 1   
    38   24   25 1   
    39   24   29 1   
    40   25   26 1   
    41   25   46 1   
    42   25   47 1   
    43   26   27 1   
    44   26   48 1   
    45   26   49 1   
    46   27   28 1   
    47   27   30 1   
    48   27   50 1   
    49   28   29 1   
    50   28   51 1   
    51   28   52 1   
    52   29   53 1   
    53   29   54 1   
    54   30   31 1   
    55   30   34 1   
    56   31   32 1   
    57   31   55 1   
    58   31   56 1   
    59   32   33 1   
    60   32   57 1   
    61   32   58 1   
    62   33   34 1   
    63   33   59 1   
    64   33   60 1   
    65   34   61 1   
    66   34   62 1   
@<TRIPOS>SUBSTRUCTURE
     1 20M         1 TEMP              0 ****  ****    0 ROOT
