@<TRIPOS>MOLECULE
20M
   63    67     1     0     0
SMALL
bcc


@<TRIPOS>ATOM
      1 C1         -0.2180    0.4370    0.1110 ca        1 20M     -0.125000
      2 C2          1.1410    0.5180   -0.1880 ca        1 20M     -0.019000
      3 C3          2.1000    0.1040    0.7390 ca        1 20M     -0.281500
      4 C4          1.6840   -0.3830    1.9800 ca        1 20M     -0.019000
      5 C5          0.3280   -0.4710    2.2930 ca        1 20M     -0.125000
      6 C6         -0.6250   -0.0640    1.3530 ca        1 20M     -0.151300
      7 C7         -2.0770   -0.1460    1.6780 c3        1 20M      0.173100
      8 N8         -2.6660   -1.4020    1.0860 n4        1 20M     -0.739000
      9 C9         -4.1430   -1.4870    1.3750 c2        1 20M      0.740100
     10 N10        -4.9320   -1.1480    0.3790 ne        1 20M     -0.588100
     11 C11        -6.3300   -1.2230    0.5480 ca        1 20M      0.260400
     12 C12        -7.1490   -1.0680   -0.5830 ca        1 20M     -0.212300
     13 C13        -8.5460   -1.1670   -0.4060 ca        1 20M      0.486200
     14 N14        -9.1320   -1.4090    0.7800 nb        1 20M     -0.639000
     15 C15        -8.3380   -1.5470    1.8530 ca        1 20M      0.537200
     16 C16        -6.9270   -1.4520    1.8210 ca        1 20M     -0.558800
     17 S17        -6.0910   -1.5690    3.2560 sy        1 20M      1.533200
     18 O18        -6.0340   -0.3440    3.9030 o         1 20M     -0.597800
     19 O19        -6.4660   -2.6810    3.9940 o         1 20M     -0.597800
     20 N20        -4.5260   -1.8770    2.6540 nh        1 20M     -0.816100
     21 S21         3.7900    0.1140    0.3200 sy        1 20M      1.494200
     22 O22         4.3680   -0.9180    1.0830 o         1 20M     -0.634300
     23 O23         3.8240    0.0060   -1.0830 o         1 20M     -0.634300
     24 N24         4.2760    1.5610    0.8150 n3        1 20M     -0.825500
     25 C25         4.2880    2.7200   -0.0490 c3        1 20M      0.219800
     26 C26         5.6410    3.4260   -0.1210 c3        1 20M     -0.093400
     27 C27         6.1400    3.7770    1.2910 c3        1 20M      0.194500
     28 C28         6.2020    2.4750    2.1080 c3        1 20M     -0.093400
     29 C29         4.8360    1.7920    2.1270 c3        1 20M      0.219800
     30 N30         7.4350    4.4540    1.2540 n3        1 20M     -0.727600
     31 C31         7.4520    5.6750    0.4460 c3        1 20M      0.161800
     32 C32         8.3440    6.7150    1.1410 c3        1 20M     -0.088400
     33 C33         8.6870    6.1320    2.5050 c3        1 20M     -0.088400
     34 C34         7.9880    4.7660    2.5740 c3        1 20M      0.161800
     35 H1         -0.9620    0.7800   -0.6250 ha        1 20M      0.145000
     36 H2          1.4650    0.8930   -1.1770 ha        1 20M      0.177000
     37 H3          2.4390   -0.7240    2.7130 ha        1 20M      0.177000
     38 H4          0.0180   -0.8480    3.2800 ha        1 20M      0.145000
     39 H5         -2.6420    0.7300    1.2410 hx        1 20M      0.120700
     40 H6         -2.2480   -0.1700    2.7930 hx        1 20M      0.120700
     41 H7         -2.1880   -2.2270    1.4680 hn        1 20M      0.472800
     42 H8         -6.7300   -0.8810   -1.5830 ha        1 20M      0.182000
     43 H9         -9.2310   -1.0490   -1.2710 h4        1 20M      0.061100
     44 H10        -8.8660   -1.7540    2.8100 h4        1 20M      0.061100
     45 H11        -3.8770   -2.3950    3.2030 hn        1 20M      0.467800
     46 H12         3.5180    3.4550    0.3280 h1        1 20M      0.054200
     47 H13         3.9940    2.4010   -1.0910 h1        1 20M      0.054200
     48 H14         6.3930    2.7760   -0.6390 hc        1 20M      0.067700
     49 H15         5.5100    4.3550   -0.7350 hc        1 20M      0.067700
     50 H16         5.3540    4.4410    1.7730 h1        1 20M      0.016700
     51 H17         6.9750    1.7900    1.6720 hc        1 20M      0.067700
     52 H18         6.4930    2.6880    3.1690 hc        1 20M      0.067700
     53 H19         4.1190    2.4370    2.7140 h1        1 20M      0.054200
     54 H20         4.9380    0.8010    2.6590 h1        1 20M      0.054200
     55 H22         6.4220    6.1040    0.2910 h1        1 20M      0.039200
     56 H23         7.8650    5.4020   -0.5630 h1        1 20M      0.039200
     57 H24         7.8030    7.6880    1.2390 hc        1 20M      0.052700
     58 H25         9.2680    6.8970    0.5400 hc        1 20M      0.052700
     59 H26         9.7920    6.0090    2.6200 hc        1 20M      0.052700
     60 H27         8.3300    6.7950    3.3310 hc        1 20M      0.052700
     61 H28         8.7200    3.9530    2.8290 h1        1 20M      0.039200
     62 H29         7.1990    4.7860    3.3770 h1        1 20M      0.039200
     63 H82        -2.5140   -1.3900    0.0640 hn        1 20M      0.472800
@<TRIPOS>BOND
     1    1    2 ar  
     2    1    6 ar  
     3    1   35 1   
     4    2    3 ar  
     5    2   36 1   
     6    3    4 ar  
     7    3   21 1   
     8    4    5 ar  
     9    4   37 1   
    10    5    6 ar  
    11    5   38 1   
    12    6    7 1   
    13    7    8 1   
    14    7   39 1   
    15    7   40 1   
    16    8    9 1   
    17    8   41 1   
    18    8   63 1   
    19    9   10 2   
    20    9   20 1   
    21   10   11 1   
    22   11   12 ar  
    23   11   16 ar  
    24   12   13 ar  
    25   12   42 1   
    26   13   14 ar  
    27   13   43 1   
    28   14   15 ar  
    29   15   16 ar  
    30   15   44 1   
    31   16   17 1   
    32   17   18 2   
    33   17   19 2   
    34   17   20 1   
    35   20   45 1   
    36   21   22 2   
    37   21   23 2   
    38   21   24 1   
    39   24   25 1   
    40   24   29 1   
    41   25   26 1   
    42   25   46 1   
    43   25   47 1   
    44   26   27 1   
    45   26   48 1   
    46   26   49 1   
    47   27   28 1   
    48   27   30 1   
    49   27   50 1   
    50   28   29 1   
    51   28   51 1   
    52   28   52 1   
    53   29   53 1   
    54   29   54 1   
    55   30   31 1   
    56   30   34 1   
    57   31   32 1   
    58   31   55 1   
    59   31   56 1   
    60   32   33 1   
    61   32   57 1   
    62   32   58 1   
    63   33   34 1   
    64   33   59 1   
    65   33   60 1   
    66   34   61 1   
    67   34   62 1   
@<TRIPOS>SUBSTRUCTURE
     1 20M         1 TEMP              0 ****  ****    0 ROOT
