@<TRIPOS>MOLECULE
20M
   63    67     1     0     0
SMALL
bcc


@<TRIPOS>ATOM
      1 C1         -0.2240    0.4420    0.1110 ca        1 20M     -0.125000
      2 C2          1.1350    0.5230   -0.1930 ca        1 20M     -0.019000
      3 C3          2.0970    0.1080    0.7300 ca        1 20M     -0.281500
      4 C4          1.6860   -0.3810    1.9720 ca        1 20M     -0.019000
      5 C5          0.3310   -0.4700    2.2890 ca        1 20M     -0.125000
      6 C6         -0.6250   -0.0620    1.3530 ca        1 20M     -0.151300
      7 C7         -2.0760   -0.1440    1.6830 c3        1 20M      0.173100
      8 N8         -2.6660   -1.4010    1.0940 ny        1 20M     -0.739000
      9 C9         -4.1420   -1.4870    1.3890 c2        1 20M      0.740100
     10 N10        -4.9360   -1.1500    0.3960 ne        1 20M     -0.588100
     11 C11        -6.3330   -1.2260    0.5700 ca        1 20M      0.260400
     12 C12        -7.1570   -1.0730   -0.5570 ca        1 20M     -0.212300
     13 C13        -8.5520   -1.1730   -0.3760 ca        1 20M      0.486200
     14 N14        -9.1340   -1.4150    0.8120 nb        1 20M     -0.639000
     15 C15        -8.3350   -1.5520    1.8830 ca        1 20M      0.537200
     16 C16        -6.9250   -1.4550    1.8450 ca        1 20M     -0.558800
     17 S17        -6.0830   -1.5700    3.2770 sy        1 20M      1.533200
     18 O18        -6.0250   -0.3440    3.9240 o         1 20M     -0.597800
     19 O19        -6.4540   -2.6820    4.0180 o         1 20M     -0.597800
     20 N20        -4.5200   -1.8770    2.6690 nu        1 20M     -0.816100
     21 S21         3.7850    0.1180    0.3040 sy        1 20M      1.494200
     22 O22         4.3660   -0.9160    1.0610 o         1 20M     -0.634300
     23 O23         3.8140    0.0150   -1.1000 o         1 20M     -0.634300
     24 N24         4.2740    1.5640    0.8020 n3        1 20M     -0.825500
     25 C25         4.2840    2.7260   -0.0580 c3        1 20M      0.219800
     26 C26         5.6370    3.4310   -0.1320 c3        1 20M     -0.093400
     27 C27         6.1410    3.7770    1.2800 c3        1 20M      0.194500
     28 C28         6.2050    2.4730    2.0920 c3        1 20M     -0.093400
     29 C29         4.8380    1.7900    2.1140 c3        1 20M      0.219800
     30 N30         7.4350    4.4540    1.2410 n3        1 20M     -0.727600
     31 C31         7.4500    5.6780    0.4360 c3        1 20M      0.161800
     32 C32         8.3450    6.7150    1.1320 c3        1 20M     -0.088400
     33 C33         8.6930    6.1270    2.4940 c3        1 20M     -0.088400
     34 C34         7.9930    4.7610    2.5600 c3        1 20M      0.161800
     35 H1         -0.9700    0.7850   -0.6220 ha        1 20M      0.145000
     36 H2          1.4550    0.8990   -1.1830 ha        1 20M      0.177000
     37 H3          2.4440   -0.7230    2.7010 ha        1 20M      0.177000
     38 H4          0.0250   -0.8490    3.2760 ha        1 20M      0.145000
     39 H5         -2.6430    0.7310    1.2490 hx        1 20M      0.120700
     40 H6         -2.2430   -0.1690    2.7990 hx        1 20M      0.120700
     41 H7         -2.1870   -2.2250    1.4740 hn        1 20M      0.472800
     42 H8         -6.7410   -0.8860   -1.5600 ha        1 20M      0.182000
     43 H9         -9.2410   -1.0570   -1.2380 h4        1 20M      0.061100
     44 H10        -8.8590   -1.7590    2.8420 h4        1 20M      0.061100
     45 H11        -3.8690   -2.3940    3.2160 hn        1 20M      0.467800
     46 H12         3.9860    2.4100   -1.1000 h1        1 20M      0.054200
     47 H13         3.5150    3.4600    0.3240 h1        1 20M      0.054200
     48 H14         6.3870    2.7830   -0.6540 hc        1 20M      0.067700
     49 H15         5.5040    4.3620   -0.7420 hc        1 20M      0.067700
     50 H16         5.3560    4.4400    1.7660 h1        1 20M      0.016700
     51 H17         6.4990    2.6820    3.1530 hc        1 20M      0.067700
     52 H18         6.9760    1.7880    1.6510 hc        1 20M      0.067700
     53 H19         4.1230    2.4340    2.7040 h1        1 20M      0.054200
     54 H20         4.9420    0.7970    2.6420 h1        1 20M      0.054200
     55 H22         6.4200    6.1070    0.2870 h1        1 20M      0.039200
     56 H23         7.8610    5.4070   -0.5740 h1        1 20M      0.039200
     57 H24         9.2670    6.8990    0.5290 hc        1 20M      0.052700
     58 H25         7.8050    7.6880    1.2360 hc        1 20M      0.052700
     59 H26         8.3390    6.7870    3.3230 hc        1 20M      0.052700
     60 H27         9.7980    6.0030    2.6040 hc        1 20M      0.052700
     61 H28         8.7260    3.9470    2.8100 h1        1 20M      0.039200
     62 H29         7.2070    4.7780    3.3660 h1        1 20M      0.039200
     63 H82        -2.5190   -1.3890    0.0720 hn        1 20M      0.472800
@<TRIPOS>BOND
     1    1    2 ar  
     2    1    6 ar  
     3    1   35 1   
     4    2    3 ar  
     5    2   36 1   
     6    3    4 ar  
     7    3   21 1   
     8    4    5 ar  
     9    4   37 1   
    10    5    6 ar  
    11    5   38 1   
    12    6    7 1   
    13    7    8 1   
    14    7   39 1   
    15    7   40 1   
    16    8    9 1   
    17    8   41 1   
    18    8   63 1   
    19    9   10 2   
    20    9   20 1   
    21   10   11 1   
    22   11   12 ar  
    23   11   16 ar  
    24   12   13 ar  
    25   12   42 1   
    26   13   14 ar  
    27   13   43 1   
    28   14   15 ar  
    29   15   16 ar  
    30   15   44 1   
    31   16   17 1   
    32   17   18 2   
    33   17   19 2   
    34   17   20 1   
    35   20   45 1   
    36   21   22 2   
    37   21   23 2   
    38   21   24 1   
    39   24   25 1   
    40   24   29 1   
    41   25   26 1   
    42   25   46 1   
    43   25   47 1   
    44   26   27 1   
    45   26   48 1   
    46   26   49 1   
    47   27   28 1   
    48   27   30 1   
    49   27   50 1   
    50   28   29 1   
    51   28   51 1   
    52   28   52 1   
    53   29   53 1   
    54   29   54 1   
    55   30   31 1   
    56   30   34 1   
    57   31   32 1   
    58   31   55 1   
    59   31   56 1   
    60   32   33 1   
    61   32   57 1   
    62   32   58 1   
    63   33   34 1   
    64   33   59 1   
    65   33   60 1   
    66   34   61 1   
    67   34   62 1   
@<TRIPOS>SUBSTRUCTURE
     1 20M         1 TEMP              0 ****  ****    0 ROOT
