@<TRIPOS>MOLECULE
20N
   30    31     1     0     0
SMALL
bcc


@<TRIPOS>ATOM
      1 C1          5.9670    0.3940   -0.1770 c3        1 20N     -0.179100
      2 C2          4.6080   -0.2400    0.0200 c         1 20N      0.665100
      3 O3          4.5010   -1.4510    0.2880 o         1 20N     -0.593100
      4 N4          3.5190    0.6080   -0.1180 n         1 20N     -0.471100
      5 C5          2.1570    0.2890    0.0100 ca        1 20N      0.042600
      6 C6          1.6880   -1.0080    0.3050 ca        1 20N     -0.145000
      7 C7          0.3280   -1.2590    0.4160 ca        1 20N     -0.144000
      8 C8         -0.6280   -0.2310    0.2410 ca        1 20N      0.042600
      9 C9         -0.1590    1.0660   -0.0520 ca        1 20N     -0.144000
     10 C10         1.2010    1.3170   -0.1650 ca        1 20N     -0.145000
     11 N11        -1.9890   -0.5480    0.3800 n         1 20N     -0.466100
     12 C12        -3.0790    0.2690    0.1140 c         1 20N      0.696100
     13 O13        -2.9680    1.4440   -0.2800 o         1 20N     -0.594100
     14 C14        -4.4240   -0.3620    0.3380 cx        1 20N     -0.229700
     15 C15        -5.6470    0.4240   -0.0590 cx        1 20N     -0.104900
     16 C16        -5.2350   -0.7660   -0.8680 cx        1 20N     -0.104900
     17 H1          6.0580    0.8180   -1.2060 hc        1 20N      0.068367
     18 H2          6.1350    1.2060    0.5710 hc        1 20N      0.068367
     19 H3          6.7490   -0.3930   -0.0390 hc        1 20N      0.068367
     20 H4          3.7130    1.5610   -0.3330 hn        1 20N      0.314500
     21 H5          2.3950   -1.8420    0.4510 ha        1 20N      0.152500
     22 H6          0.0060   -2.2870    0.6470 ha        1 20N      0.152500
     23 H7         -0.8660    1.9000   -0.1980 ha        1 20N      0.152500
     24 H8          1.5230    2.3440   -0.3970 ha        1 20N      0.152500
     25 H9         -2.1820   -1.4870    0.6490 hn        1 20N      0.316500
     26 H10        -4.4780   -0.9910    1.2490 hc        1 20N      0.094700
     27 H11        -6.5420    0.3620    0.5840 hc        1 20N      0.083700
     28 H12        -5.5000    1.4370   -0.4810 hc        1 20N      0.083700
     29 H13        -4.8090   -0.6070   -1.8750 hc        1 20N      0.083700
     30 H14        -5.8300   -1.6950   -0.8120 hc        1 20N      0.083700
@<TRIPOS>BOND
     1    1    2 1   
     2    1   17 1   
     3    1   18 1   
     4    1   19 1   
     5    2    3 2   
     6    2    4 1   
     7    4    5 1   
     8    4   20 1   
     9    5    6 ar  
    10    5   10 ar  
    11    6    7 ar  
    12    6   21 1   
    13    7    8 ar  
    14    7   22 1   
    15    8    9 ar  
    16    8   11 1   
    17    9   10 ar  
    18    9   23 1   
    19   10   24 1   
    20   11   12 1   
    21   11   25 1   
    22   12   13 2   
    23   12   14 1   
    24   14   15 1   
    25   14   16 1   
    26   14   26 1   
    27   15   16 1   
    28   15   27 1   
    29   15   28 1   
    30   16   29 1   
    31   16   30 1   
@<TRIPOS>SUBSTRUCTURE
     1 20N         1 TEMP              0 ****  ****    0 ROOT
