@<TRIPOS>MOLECULE
20N
   32    33     1     0     0
SMALL
bcc


@<TRIPOS>ATOM
      1 C1          0.4900    0.9930    0.0540 c3        1 20N     -0.190100
      2 C2          1.5980    0.0310    0.2860 c         1 20N      0.574100
      3 O3          2.1260   -0.3320    1.3170 o         1 20N     -0.382100
      4 N4          2.1490   -0.6420   -0.9970 n4        1 20N     -0.578200
      5 C5          3.5790   -0.3990   -1.2010 ca        1 20N     -0.000400
      6 C6          4.5150   -0.9470   -0.3040 ca        1 20N     -0.078500
      7 C7          5.8770   -0.7300   -0.5040 ca        1 20N     -0.072000
      8 C8          6.3120    0.0310   -1.6030 ca        1 20N      0.009600
      9 C9          5.3750    0.5830   -2.4960 ca        1 20N     -0.072000
     10 C10         4.0130    0.3680   -2.2960 ca        1 20N     -0.078500
     11 N11         7.7420    0.2490   -1.8180 n4        1 20N     -0.573200
     12 C12         8.2030    1.7160   -1.5970 c         1 20N      0.606100
     13 O13         7.3650    2.5620   -1.8490 o         1 20N     -0.409100
     14 C14         9.5910    1.8450   -1.1450 cx        1 20N     -0.304700
     15 C15        10.3770    3.0620   -1.6300 cx        1 20N     -0.050400
     16 C16         9.9240    3.0110   -0.2160 cx        1 20N     -0.050400
     17 H1          0.1900    1.4300    1.0480 hc        1 20N      0.129033
     18 H2         -0.4040    0.4750   -0.3850 hc        1 20N      0.129033
     19 H3          0.8060    1.8270   -0.6230 hc        1 20N      0.129033
     20 H4          2.0050   -1.6600   -0.9150 hn        1 20N      0.472800
     21 H5          4.1910   -1.5400    0.5730 ha        1 20N      0.193500
     22 H6          6.5890   -1.1710    0.2180 ha        1 20N      0.192000
     23 H7          5.6960    1.2060   -3.3530 ha        1 20N      0.192000
     24 H8          3.3000    0.8130   -3.0160 ha        1 20N      0.193500
     25 H9          8.2800   -0.3620   -1.1900 hn        1 20N      0.472300
     26 H10        10.1520    0.8990   -1.0020 hc        1 20N      0.125700
     27 H11        11.4460    2.9020   -1.8780 hc        1 20N      0.118700
     28 H12         9.8860    3.7660   -2.3300 hc        1 20N      0.118700
     29 H13        10.6550    2.8140    0.5950 hc        1 20N      0.118700
     30 H14         9.1040    3.6780    0.1120 hc        1 20N      0.118700
     31 H42         1.6220   -0.3020   -1.8110 hn        1 20N      0.472800
     32 H112        7.9720   -0.0040   -2.7900 hn        1 20N      0.472300
@<TRIPOS>BOND
     1    1    2 1   
     2    1   17 1   
     3    1   18 1   
     4    1   19 1   
     5    2    3 2   
     6    2    4 1   
     7    4    5 1   
     8    4   20 1   
     9    4   31 1   
    10    5    6 ar  
    11    5   10 ar  
    12    6    7 ar  
    13    6   21 1   
    14    7    8 ar  
    15    7   22 1   
    16    8    9 ar  
    17    8   11 1   
    18    9   10 ar  
    19    9   23 1   
    20   10   24 1   
    21   11   12 1   
    22   11   25 1   
    23   11   32 1   
    24   12   13 2   
    25   12   14 1   
    26   14   15 1   
    27   14   16 1   
    28   14   26 1   
    29   15   16 1   
    30   15   27 1   
    31   15   28 1   
    32   16   29 1   
    33   16   30 1   
@<TRIPOS>SUBSTRUCTURE
     1 20N         1 TEMP              0 ****  ****    0 ROOT
