@<TRIPOS>MOLECULE
20N
   30    31     1     0     0
SMALL
bcc


@<TRIPOS>ATOM
      1 C1         -0.1980   -0.4900   -0.2700 c3        1 20N     -0.179100
      2 C2          1.2900   -0.5160    0.0000 c         1 20N      0.665100
      3 O3          1.7500   -1.1310    0.9800 o         1 20N     -0.593100
      4 N4          2.0820    0.1790   -0.9030 n         1 20N     -0.471100
      5 C5          3.4790    0.3200   -0.8920 ca        1 20N      0.042600
      6 C6          4.3110   -0.2550    0.0910 ca        1 20N     -0.145000
      7 C7          5.6850   -0.0760    0.0460 ca        1 20N     -0.144000
      8 C8          6.2970    0.6810   -0.9810 ca        1 20N      0.042600
      9 C9          5.4660    1.2540   -1.9650 ca        1 20N     -0.144000
     10 C10         4.0910    1.0780   -1.9190 ca        1 20N     -0.145000
     11 N11         7.6960    0.8130   -0.9760 n         1 20N     -0.466100
     12 C12         8.4710    1.6210   -1.7960 c         1 20N      0.696100
     13 O13         7.9910    2.3440   -2.6890 o         1 20N     -0.594100
     14 C14         9.9500    1.5670   -1.5370 cx        1 20N     -0.229700
     15 C15        10.8330    2.5330   -2.2850 cx        1 20N     -0.105400
     16 C16        10.5950    2.7270   -0.8200 cx        1 20N     -0.105400
     17 H1         -0.5830    0.5580   -0.2480 hc        1 20N      0.068367
     18 H2         -0.4250   -0.9440   -1.2640 hc        1 20N      0.068367
     19 H3         -0.7130   -1.0830    0.5250 hc        1 20N      0.068367
     20 H4          1.6140    0.6380   -1.6530 hn        1 20N      0.314500
     21 H5          3.8800   -0.8550    0.9110 ha        1 20N      0.152500
     22 H6          6.2970   -0.5430    0.8350 ha        1 20N      0.152500
     23 H7          5.8970    1.8540   -2.7840 ha        1 20N      0.152500
     24 H8          3.4800    1.5450   -2.7070 ha        1 20N      0.152500
     25 H9          8.1690    0.3060   -0.2620 hn        1 20N      0.316500
     26 H10        10.3320    0.5450   -1.3460 hc        1 20N      0.094700
     27 H11        11.8190    2.1790   -2.6340 hc        1 20N      0.083700
     28 H12        10.3540    3.2250   -3.0030 hc        1 20N      0.083700
     29 H13        11.4080    2.5120   -0.1030 hc        1 20N      0.083700
     30 H14         9.9610    3.5690   -0.4880 hc        1 20N      0.083700
@<TRIPOS>BOND
     1    1    2 1   
     2    1   17 1   
     3    1   18 1   
     4    1   19 1   
     5    2    3 2   
     6    2    4 1   
     7    4    5 1   
     8    4   20 1   
     9    5    6 ar  
    10    5   10 ar  
    11    6    7 ar  
    12    6   21 1   
    13    7    8 ar  
    14    7   22 1   
    15    8    9 ar  
    16    8   11 1   
    17    9   10 ar  
    18    9   23 1   
    19   10   24 1   
    20   11   12 1   
    21   11   25 1   
    22   12   13 2   
    23   12   14 1   
    24   14   15 1   
    25   14   16 1   
    26   14   26 1   
    27   15   16 1   
    28   15   27 1   
    29   15   28 1   
    30   16   29 1   
    31   16   30 1   
@<TRIPOS>SUBSTRUCTURE
     1 20N         1 TEMP              0 ****  ****    0 ROOT
