@<TRIPOS>MOLECULE
20N
   30    31     1     0     0
SMALL
bcc


@<TRIPOS>ATOM
      1 C1         -0.1880   -0.5290   -0.2620 c3        1 20N     -0.179100
      2 C2          1.3010   -0.5450    0.0060 c         1 20N      0.665100
      3 O3          1.7660   -1.1580    0.9840 o         1 20N     -0.593100
      4 N4          2.0860    0.1560   -0.8970 ns        1 20N     -0.471100
      5 C5          3.4830    0.3060   -0.8880 ca        1 20N      0.042600
      6 C6          4.3190   -0.2630    0.0940 ca        1 20N     -0.145000
      7 C7          5.6930   -0.0760    0.0470 ca        1 20N     -0.144000
      8 C8          6.2980    0.6860   -0.9800 ca        1 20N      0.042600
      9 C9          5.4620    1.2540   -1.9630 ca        1 20N     -0.144000
     10 C10         4.0880    1.0680   -1.9150 ca        1 20N     -0.145000
     11 N11         7.6960    0.8270   -0.9770 ns        1 20N     -0.466100
     12 C12         8.4650    1.6390   -1.7980 c         1 20N      0.696100
     13 O13         7.9790    2.3580   -2.6920 o         1 20N     -0.594100
     14 C14         9.9440    1.5940   -1.5410 cx        1 20N     -0.229700
     15 C15        10.8210    2.5610   -2.2950 cx        1 20N     -0.105400
     16 C16        10.5840    2.7610   -0.8310 cx        1 20N     -0.105400
     17 H1         -0.4140   -0.9830   -1.2570 hc        1 20N      0.068367
     18 H2         -0.5810    0.5160   -0.2380 hc        1 20N      0.068367
     19 H3         -0.6980   -1.1260    0.5330 hc        1 20N      0.068367
     20 H4          1.6140    0.6130   -1.6460 hn        1 20N      0.314500
     21 H5          3.8930   -0.8660    0.9140 ha        1 20N      0.152500
     22 H6          6.3080   -0.5390    0.8350 ha        1 20N      0.152500
     23 H7          5.8880    1.8570   -2.7830 ha        1 20N      0.152500
     24 H8          3.4730    1.5310   -2.7030 ha        1 20N      0.152500
     25 H9          8.1730    0.3230   -0.2630 hn        1 20N      0.316500
     26 H10        10.3330    0.5760   -1.3460 hc        1 20N      0.094700
     27 H11        11.8090    2.2110   -2.6440 hc        1 20N      0.083700
     28 H12        10.3380    3.2480   -3.0160 hc        1 20N      0.083700
     29 H13        11.3990    2.5540   -0.1140 hc        1 20N      0.083700
     30 H14         9.9450    3.6010   -0.5020 hc        1 20N      0.083700
@<TRIPOS>BOND
     1    1    2 1   
     2    1   17 1   
     3    1   18 1   
     4    1   19 1   
     5    2    3 2   
     6    2    4 1   
     7    4    5 1   
     8    4   20 1   
     9    5    6 ar  
    10    5   10 ar  
    11    6    7 ar  
    12    6   21 1   
    13    7    8 ar  
    14    7   22 1   
    15    8    9 ar  
    16    8   11 1   
    17    9   10 ar  
    18    9   23 1   
    19   10   24 1   
    20   11   12 1   
    21   11   25 1   
    22   12   13 2   
    23   12   14 1   
    24   14   15 1   
    25   14   16 1   
    26   14   26 1   
    27   15   16 1   
    28   15   27 1   
    29   15   28 1   
    30   16   29 1   
    31   16   30 1   
@<TRIPOS>SUBSTRUCTURE
     1 20N         1 TEMP              0 ****  ****    0 ROOT
