@<TRIPOS>MOLECULE
20N
   30    26     1     0     0
SMALL
bcc


@<TRIPOS>ATOM
      1 C1         -5.8660   -0.2030   -0.5320 c3        1 20N     -0.247000
      2 C2         -4.3460   -0.1040   -0.6290 c1        1 20N      0.309000
      3 O3         -3.8060   -0.0720   -1.7210 o         1 20N     -0.354000
      4 N4         -3.5590    0.0030    0.5620 n2        1 20N     -0.325000
      5 C5         -2.1360    0.1470    0.4700 c1        1 20N      0.050000
      6 C6         -1.3150   -0.9680    0.6010 c1        1 20N     -0.160000
      7 C7          0.0690   -0.8180    0.5980 c1        1 20N     -0.129000
      8 C8          0.6310    0.4470    0.4630 c1        1 20N      0.050000
      9 C9         -0.1900    1.5630    0.3310 c2        1 20N     -0.160000
     10 C10        -1.5730    1.4130    0.3340 c1        1 20N     -0.128000
     11 N11         2.0590    0.6100    0.5290 n2        1 20N     -0.321000
     12 C12         2.9190   -0.5130    0.2910 c1        1 20N      0.338000
     13 O13         2.4390   -1.6030    0.0330 o         1 20N     -0.347000
     14 C14         4.3590   -0.3780    0.4720 cu        1 20N     -0.207000
     15 C15         4.8570   -0.9050   -0.8570 cx        1 20N     -0.193500
     16 C16         4.7020    0.5260   -0.6940 cx        1 20N     -0.193500
     17 H1         -6.2410   -0.3630   -1.4260 hc        1 20N      0.107667
     18 H2         -6.2270    0.6360   -0.1710 hc        1 20N      0.107667
     19 H3         -6.1080   -0.9460    0.0620 hc        1 20N      0.107667
     20 H4         -3.9660   -0.0130    1.3840 hn        1 20N      0.228000
     21 H5         -1.7120   -1.8610    0.6970 ha        1 20N      0.131000
     22 H6          0.6470   -1.6040    0.6910 ha        1 20N      0.174000
     23 H7          0.2060    2.4550    0.2360 ha        1 20N      0.131000
     24 H8         -2.1530    2.2000    0.2410 ha        1 20N      0.175000
     25 H9          2.4190    1.4450    0.6370 hn        1 20N      0.232000
     26 H10         4.4470   -0.4790    1.4450 ha        1 20N      0.148000
     27 H11         5.7830   -1.2340   -0.8630 hc        1 20N      0.119500
     28 H12         4.1830   -1.3430   -1.4200 hc        1 20N      0.119500
     29 H13         3.9380    0.9260   -1.1600 hc        1 20N      0.119500
     30 H14         5.5380    1.0370   -0.6040 hc        1 20N      0.119500
@<TRIPOS>BOND
     1    1    2 1   
     2    1   17 1   
     3    1   18 1   
     4    1   19 1   
     5    2    3 1   
     6    4    5 1   
     7    4   20 1   
     8    5    6 1   
     9    6   21 1   
    10    7    8 1   
    11    7   22 1   
    12    8    9 1   
    13    9   10 1   
    14    9   23 1   
    15   10   24 1   
    16   11   12 1   
    17   11   25 1   
    18   12   13 1   
    19   14   15 1   
    20   14   16 1   
    21   14   26 1   
    22   15   16 1   
    23   15   27 1   
    24   15   28 1   
    25   16   29 1   
    26   16   30 1   
@<TRIPOS>SUBSTRUCTURE
     1 20N         1 TEMP              0 ****  ****    0 ROOT
