@<TRIPOS>MOLECULE
20O
   45    48     1     0     0
SMALL
bcc


@<TRIPOS>ATOM
      1 C1          1.3150   -0.3910   -0.1880 ca        1 20O     -0.069000
      2 C2          2.6170   -0.3190    0.3090 ca        1 20O     -0.156500
      3 C3          2.8300   -0.1770    1.6770 ca        1 20O     -0.018500
      4 C4          1.7540   -0.1030    2.5700 ca        1 20O     -0.366500
      5 C5          0.4530   -0.1880    2.0560 ca        1 20O     -0.018500
      6 C6          0.2320   -0.3290    0.6890 ca        1 20O     -0.156500
      7 S7          2.0160    0.0430    4.2260 sy        1 20O      1.446600
      8 O8          0.9240   -0.5100    4.9150 o         1 20O     -0.660300
      9 O9          3.2960   -0.4510    4.5340 o         1 20O     -0.660300
     10 C10         2.0060    1.7060    4.4040 ca        1 20O     -0.413500
     11 C11         0.8170    2.4010    4.6540 ca        1 20O      0.013000
     12 C12         0.7920    3.7780    4.8270 ca        1 20O     -0.204000
     13 C13         1.9920    4.5210    4.7550 ca        1 20O      0.138600
     14 C14         3.2040    3.8200    4.5140 ca        1 20O     -0.204000
     15 C15         3.1950    2.4460    4.3460 ca        1 20O      0.013000
     16 N16         2.0530    5.9090    4.9130 ns        1 20O     -0.468100
     17 C17         0.9960    6.7880    5.1410 c         1 20O      0.700100
     18 O18        -0.1860    6.4120    5.2270 o         1 20O     -0.581100
     19 C19         1.3670    8.2350    5.2820 cx        1 20O     -0.225700
     20 C20         0.3110    9.2610    4.9630 cx        1 20O     -0.087400
     21 C21         0.6840    9.0130    6.3980 cx        1 20O     -0.041400
     22 C22         1.4460    9.9930    7.1740 ca        1 20O     -0.177600
     23 C23         1.2460   10.1070    8.5590 ca        1 20O     -0.081000
     24 C24         1.9810   11.0470    9.2780 ca        1 20O     -0.242300
     25 C25         2.9040   11.8530    8.5860 ca        1 20O      0.396200
     26 N26         3.1140   11.7630    7.2590 nb        1 20O     -0.660000
     27 C27         2.3970   10.8520    6.5780 ca        1 20O      0.394200
     28 H1          1.1440   -0.5020   -1.2700 ha        1 20O      0.136000
     29 H2          3.4740   -0.3770   -0.3780 ha        1 20O      0.140500
     30 H3          3.8610   -0.1380    2.0740 ha        1 20O      0.151000
     31 H4         -0.4030   -0.1560    2.7530 ha        1 20O      0.151000
     32 H5         -0.7960   -0.3950    0.3020 ha        1 20O      0.140500
     33 H6         -0.1290    1.8340    4.7310 ha        1 20O      0.153000
     34 H7         -0.1720    4.2780    5.0220 ha        1 20O      0.158500
     35 H8          4.1620    4.3600    4.4630 ha        1 20O      0.158500
     36 H9          4.1480    1.9130    4.1750 ha        1 20O      0.153000
     37 H10         2.9670    6.3050    4.8700 hn        1 20O      0.322500
     38 H11         2.4200    8.4850    5.0480 hc        1 20O      0.095700
     39 H12         0.6230   10.1990    4.4700 hc        1 20O      0.092700
     40 H13        -0.6780    8.9050    4.6150 hc        1 20O      0.092700
     41 H14        -0.0530    8.4470    7.0110 hc        1 20O      0.107700
     42 H15         0.5160    9.4600    9.0690 ha        1 20O      0.143000
     43 H16         1.8470   11.1610   10.3620 ha        1 20O      0.147000
     44 H17         3.5070   12.6110    9.1180 h4        1 20O      0.026100
     45 H18         2.5910   10.8080    5.4910 h4        1 20O      0.018100
@<TRIPOS>BOND
     1    1    2 ar  
     2    1    6 ar  
     3    1   28 1   
     4    2    3 ar  
     5    2   29 1   
     6    3    4 ar  
     7    3   30 1   
     8    4    5 ar  
     9    4    7 1   
    10    5    6 ar  
    11    5   31 1   
    12    6   32 1   
    13    7    8 2   
    14    7    9 2   
    15    7   10 1   
    16   10   11 ar  
    17   10   15 ar  
    18   11   12 ar  
    19   11   33 1   
    20   12   13 ar  
    21   12   34 1   
    22   13   14 ar  
    23   13   16 1   
    24   14   15 ar  
    25   14   35 1   
    26   15   36 1   
    27   16   17 1   
    28   16   37 1   
    29   17   18 2   
    30   17   19 1   
    31   19   20 1   
    32   19   21 1   
    33   19   38 1   
    34   20   21 1   
    35   20   39 1   
    36   20   40 1   
    37   21   22 1   
    38   21   41 1   
    39   22   23 ar  
    40   22   27 ar  
    41   23   24 ar  
    42   23   42 1   
    43   24   25 ar  
    44   24   43 1   
    45   25   26 ar  
    46   25   44 1   
    47   26   27 ar  
    48   27   45 1   
@<TRIPOS>SUBSTRUCTURE
     1 20O         1 TEMP              0 ****  ****    0 ROOT
