@<TRIPOS>MOLECULE
20O
   46    49     1     0     0
SMALL
bcc


@<TRIPOS>ATOM
      1 C1          0.6670    2.0100   -0.0610 ca        1 20O     -0.045000
      2 C2          1.9290    2.5920    0.0660 ca        1 20O     -0.151500
      3 C3          2.7460    2.2480    1.1380 ca        1 20O     -0.013000
      4 C4          2.3200    1.3240    2.1060 ca        1 20O     -0.424500
      5 C5          1.0510    0.7430    1.9550 ca        1 20O     -0.013000
      6 C6          0.2290    1.0830    0.8860 ca        1 20O     -0.151500
      7 S7          3.3230    0.8650    3.3400 sy        1 20O      1.437600
      8 O8          2.9660   -0.3890    3.8410 o         1 20O     -0.632300
      9 O9          4.6590    1.1350    3.0320 o         1 20O     -0.632300
     10 C10         2.8630    2.0200    4.5530 ca        1 20O     -0.267500
     11 C11         1.8490    1.7220    5.4640 ca        1 20O     -0.006500
     12 C12         1.5090    2.6130    6.4820 ca        1 20O     -0.129000
     13 C13         2.2100    3.8250    6.5840 ca        1 20O     -0.010400
     14 C14         3.2360    4.1420    5.6770 ca        1 20O     -0.129000
     15 C15         3.5510    3.2300    4.6720 ca        1 20O     -0.006500
     16 N16         1.8850    4.7570    7.6690 n4        1 20O     -0.556200
     17 C17         0.6440    5.5950    7.3520 c         1 20O      0.598100
     18 O18        -0.3270    5.3280    8.0430 o         1 20O     -0.422100
     19 C19         0.8100    6.6030    6.3000 cx        1 20O     -0.281700
     20 C20        -0.4370    7.1680    5.6500 cx        1 20O     -0.059400
     21 C21         0.3350    8.0330    6.5960 cx        1 20O      0.014600
     22 C22         1.1570    9.1520    6.1340 ca        1 20O     -0.228600
     23 C23         1.3190   10.2890    6.9440 ca        1 20O     -0.067000
     24 C24         2.0970   11.3470    6.4790 ca        1 20O     -0.233300
     25 C25         2.6990   11.2360    5.2100 ca        1 20O      0.424200
     26 N26         2.5560   10.1560    4.4180 nb        1 20O     -0.649000
     27 C27         1.7970    9.1450    4.8750 ca        1 20O      0.404200
     28 H1          0.0210    2.2750   -0.9140 ha        1 20O      0.152000
     29 H2          2.2840    3.3120   -0.6880 ha        1 20O      0.155000
     30 H3          3.7570    2.6870    1.2220 ha        1 20O      0.154500
     31 H4          0.7150   -0.0130    2.6880 ha        1 20O      0.154500
     32 H5         -0.7600    0.6100    0.7800 ha        1 20O      0.155000
     33 H6          1.3190    0.7510    5.3950 ha        1 20O      0.187000
     34 H7          0.7060    2.3480    7.1910 ha        1 20O      0.162500
     35 H8          3.8040    5.0840    5.7510 ha        1 20O      0.162500
     36 H9          4.3790    3.4580    3.9710 ha        1 20O      0.187000
     37 H10         1.7120    4.2170    8.5290 hn        1 20O      0.465800
     38 H11         1.7120    6.4760    5.6650 hc        1 20O      0.125700
     39 H12        -1.4240    6.7830    5.9730 hc        1 20O      0.112700
     40 H13        -0.3990    7.3680    4.5610 hc        1 20O      0.112700
     41 H14        -0.1190    8.2080    7.5980 hc        1 20O      0.109700
     42 H15         0.8310   10.3480    7.9280 ha        1 20O      0.147000
     43 H16         2.2390   12.2550    7.0830 ha        1 20O      0.164000
     44 H17         3.3250   12.0530    4.8020 h4        1 20O      0.045100
     45 H18         1.6890    8.2870    4.1870 h4        1 20O      0.015100
     46 H162        2.6800    5.3880    7.8230 hn        1 20O      0.465800
@<TRIPOS>BOND
     1    1    2 ar  
     2    1    6 ar  
     3    1   28 1   
     4    2    3 ar  
     5    2   29 1   
     6    3    4 ar  
     7    3   30 1   
     8    4    5 ar  
     9    4    7 1   
    10    5    6 ar  
    11    5   31 1   
    12    6   32 1   
    13    7    8 2   
    14    7    9 2   
    15    7   10 1   
    16   10   11 ar  
    17   10   15 ar  
    18   11   12 ar  
    19   11   33 1   
    20   12   13 ar  
    21   12   34 1   
    22   13   14 ar  
    23   13   16 1   
    24   14   15 ar  
    25   14   35 1   
    26   15   36 1   
    27   16   17 1   
    28   16   37 1   
    29   16   46 1   
    30   17   18 2   
    31   17   19 1   
    32   19   20 1   
    33   19   21 1   
    34   19   38 1   
    35   20   21 1   
    36   20   39 1   
    37   20   40 1   
    38   21   22 1   
    39   21   41 1   
    40   22   23 ar  
    41   22   27 ar  
    42   23   24 ar  
    43   23   42 1   
    44   24   25 ar  
    45   24   43 1   
    46   25   26 ar  
    47   25   44 1   
    48   26   27 ar  
    49   27   45 1   
@<TRIPOS>SUBSTRUCTURE
     1 20O         1 TEMP              0 ****  ****    0 ROOT
