@<TRIPOS>MOLECULE
20O
   45    48     1     0     0
SMALL
bcc


@<TRIPOS>ATOM
      1 C1         -6.4240    2.0660   -1.3670 ca        1 20O     -0.069000
      2 C2         -6.1670    0.8310   -1.9650 ca        1 20O     -0.156500
      3 C3         -5.4700   -0.1480   -1.2610 ca        1 20O     -0.018500
      4 C4         -5.0160    0.0880    0.0420 ca        1 20O     -0.366500
      5 C5         -5.2900    1.3290    0.6310 ca        1 20O     -0.018500
      6 C6         -5.9870    2.3130   -0.0660 ca        1 20O     -0.156500
      7 S7         -4.1960   -1.1070    0.8980 sy        1 20O      1.446600
      8 O8         -4.3960   -0.9070    2.2740 o         1 20O     -0.660300
      9 O9         -4.5330   -2.3650    0.3690 o         1 20O     -0.660300
     10 C10        -2.6100   -0.7470    0.5060 ca        1 20O     -0.413500
     11 C11        -1.8580    0.1490    1.2750 ca        1 20O      0.013000
     12 C12        -0.5340    0.4440    0.9780 ca        1 20O     -0.204000
     13 C13         0.0950   -0.1710   -0.1290 ca        1 20O      0.138600
     14 C14        -0.6600   -1.0910   -0.9060 ca        1 20O     -0.204000
     15 C15        -1.9780   -1.3620   -0.5830 ca        1 20O      0.013000
     16 N16         1.4200    0.0730   -0.4980 n         1 20O     -0.468100
     17 C17         2.3300    0.9370    0.1090 c         1 20O      0.700100
     18 O18         2.0400    1.6300    1.1010 o         1 20O     -0.581100
     19 C19         3.6980    0.9860   -0.5040 cx        1 20O     -0.225700
     20 C20         4.5190    2.2290   -0.2830 cx        1 20O     -0.087400
     21 C21         4.8810    0.9680    0.4520 cx        1 20O     -0.041400
     22 C22         6.0790    0.1970    0.1140 ca        1 20O     -0.177600
     23 C23         6.7600   -0.5220    1.1090 ca        1 20O     -0.081000
     24 C24         7.9000   -1.2470    0.7650 ca        1 20O     -0.242300
     25 C25         8.3280   -1.2330   -0.5750 ca        1 20O      0.396200
     26 N26         7.6930   -0.5510   -1.5480 nb        1 20O     -0.660000
     27 C27         6.5950    0.1460   -1.2000 ca        1 20O      0.394200
     28 H1         -6.9740    2.8420   -1.9210 ha        1 20O      0.136000
     29 H2         -6.5180    0.6290   -2.9870 ha        1 20O      0.140500
     30 H3         -5.2830   -1.1320   -1.7260 ha        1 20O      0.151000
     31 H4         -4.9590    1.5170    1.6680 ha        1 20O      0.151000
     32 H5         -6.1940    3.2820    0.4120 ha        1 20O      0.140500
     33 H6         -2.3290    0.6250    2.1550 ha        1 20O      0.153500
     34 H7          0.0140    1.1560    1.6160 ha        1 20O      0.158500
     35 H8         -0.2030   -1.6000   -1.7690 ha        1 20O      0.158500
     36 H9         -2.5460   -2.0930   -1.1880 ha        1 20O      0.153500
     37 H10         1.7490   -0.4490   -1.2820 hn        1 20O      0.322500
     38 H11         3.8080    0.4570   -1.4720 hc        1 20O      0.095700
     39 H12         5.1630    2.5860   -1.1060 hc        1 20O      0.092700
     40 H13         4.0700    3.0570    0.2980 hc        1 20O      0.092700
     41 H14         4.6350    0.9390    1.5380 hc        1 20O      0.106700
     42 H15         6.3970   -0.5110    2.1470 ha        1 20O      0.143000
     43 H16         8.4550   -1.8190    1.5200 ha        1 20O      0.147000
     44 H17         9.2260   -1.7940   -0.8900 h4        1 20O      0.026100
     45 H18         6.1020    0.6970   -2.0220 h4        1 20O      0.018100
@<TRIPOS>BOND
     1    1    2 ar  
     2    1    6 ar  
     3    1   28 1   
     4    2    3 ar  
     5    2   29 1   
     6    3    4 ar  
     7    3   30 1   
     8    4    5 ar  
     9    4    7 1   
    10    5    6 ar  
    11    5   31 1   
    12    6   32 1   
    13    7    8 2   
    14    7    9 2   
    15    7   10 1   
    16   10   11 ar  
    17   10   15 ar  
    18   11   12 ar  
    19   11   33 1   
    20   12   13 ar  
    21   12   34 1   
    22   13   14 ar  
    23   13   16 1   
    24   14   15 ar  
    25   14   35 1   
    26   15   36 1   
    27   16   17 1   
    28   16   37 1   
    29   17   18 2   
    30   17   19 1   
    31   19   20 1   
    32   19   21 1   
    33   19   38 1   
    34   20   21 1   
    35   20   39 1   
    36   20   40 1   
    37   21   22 1   
    38   21   41 1   
    39   22   23 ar  
    40   22   27 ar  
    41   23   24 ar  
    42   23   42 1   
    43   24   25 ar  
    44   24   43 1   
    45   25   26 ar  
    46   25   44 1   
    47   26   27 ar  
    48   27   45 1   
@<TRIPOS>SUBSTRUCTURE
     1 20O         1 TEMP              0 ****  ****    0 ROOT
