@<TRIPOS>MOLECULE
20O
   45    40     1     0     0
SMALL
bcc


@<TRIPOS>ATOM
      1 C1         -2.6420    4.0540   -6.1890 c1        1 20O     -0.100000
      2 C2         -2.0890    2.9170   -6.7670 c1        1 20O     -0.100000
      3 C3         -1.0600    2.2390   -6.1230 c1        1 20O     -0.100000
      4 C4         -0.5840    2.6990   -4.9010 c1        1 20O     -0.811000
      5 C5         -1.1370    3.8360   -4.3220 c1        1 20O     -0.019000
      6 C6         -2.1650    4.5140   -4.9670 c1        1 20O     -0.100000
      7 S7          0.7720    1.8580   -4.0980 s4        1 20O      2.110800
      8 O8          1.4550    0.9780   -5.0100 o         1 20O     -0.547900
      9 O9          1.8270    2.7770   -3.7540 o         1 20O     -0.547900
     10 C10         0.1870    0.9740   -2.6590 c1        1 20O     -0.858000
     11 C11         0.1070    1.6230   -1.4310 c2        1 20O      0.013000
     12 C12        -0.2390    0.9100   -0.2880 c1        1 20O     -0.218000
     13 C13        -0.5060   -0.4530   -0.3720 c1        1 20O      0.146000
     14 C14        -0.4260   -1.1030   -1.6000 c1        1 20O     -0.190000
     15 C15        -0.0800   -0.3890   -2.7430 c1        1 20O      0.013000
     16 N16        -0.7780   -1.2050    0.8200 n         1 20O     -0.322000
     17 C17         0.2800   -1.9230    1.4730 c2        1 20O      0.344000
     18 O18         1.4080   -1.8920    1.0120 o         1 20O     -0.342000
     19 C19         0.0410   -2.5500    2.7500 cx        1 20O     -0.215000
     20 C20         1.2400   -3.4870    2.8320 cx        1 20O     -0.166000
     21 C21         1.3260   -2.1860    3.4860 cx        1 20O     -0.088000
     22 C22         1.2390   -2.2070    5.0430 c2        1 20O     -0.105000
     23 C23         1.5260   -1.0750    5.7580 c2        1 20O     -0.081000
     24 C24         1.3710   -1.0680    7.1180 c1        1 20O     -0.177000
     25 C25         0.9220   -2.2100    7.7710 c1        1 20O     -0.069000
     26 N26         0.6360   -3.3390    7.0560 n1        1 20O     -0.134000
     27 C27         0.7910   -3.3470    5.6990 c1        1 20O     -0.071000
     28 H1         -3.3690    4.5320   -6.6430 ha        1 20O      0.142000
     29 H2         -2.4260    2.5920   -7.6290 ha        1 20O      0.142000
     30 H3         -0.6700    1.4360   -6.5310 ha        1 20O      0.142000
     31 H4         -0.8000    4.1610   -3.4600 ha        1 20O      0.151000
     32 H5         -2.5560    5.3170   -4.5580 ha        1 20O      0.142000
     33 H6          0.2950    2.5840   -1.3720 ha        1 20O      0.153000
     34 H7         -0.2960    1.3690    0.5780 ha        1 20O      0.137000
     35 H8         -0.6150   -2.0650   -1.6600 ha        1 20O      0.180000
     36 H9         -0.0230   -0.8480   -3.6090 ha        1 20O      0.153000
     37 H10        -1.6360   -1.2560    1.1450 hn        1 20O      0.236000
     38 H11        -0.9390   -2.5150    2.8090 hc        1 20O      0.135000
     39 H12         1.1380   -4.2580    3.4320 hc        1 20O      0.132000
     40 H13         1.7630   -3.5820    2.0050 hc        1 20O      0.132000
     41 H14         1.8970   -1.5230    3.0400 hc        1 20O      0.146000
     42 H15         1.8430   -0.2690    5.2960 ha        1 20O      0.143000
     43 H16         1.5760   -0.2580    7.6310 ha        1 20O      0.147000
     44 H17         0.8110   -2.2050    8.7450 ha        1 20O      0.163000
     45 H18         0.5860   -4.1570    5.1880 ha        1 20O      0.155000
@<TRIPOS>BOND
     1    1    6 1   
     2    1   28 1   
     3    2    3 1   
     4    2   29 1   
     5    3   30 1   
     6    4    5 1   
     7    4    7 1   
     8    5   31 1   
     9    6   32 1   
    10    7    8 1   
    11    7    9 1   
    12   10   11 1   
    13   10   15 1   
    14   11   12 1   
    15   11   33 1   
    16   12   34 1   
    17   13   14 1   
    18   13   16 1   
    19   14   35 1   
    20   15   36 1   
    21   16   17 1   
    22   16   37 1   
    23   17   18 1   
    24   17   19 1   
    25   19   20 1   
    26   19   21 1   
    27   19   38 1   
    28   20   21 1   
    29   20   39 1   
    30   20   40 1   
    31   21   22 1   
    32   21   41 1   
    33   22   23 1   
    34   22   27 1   
    35   23   24 1   
    36   23   42 1   
    37   24   43 1   
    38   25   26 1   
    39   25   44 1   
    40   27   45 1   
@<TRIPOS>SUBSTRUCTURE
     1 20O         1 TEMP              0 ****  ****    0 ROOT
