@<TRIPOS>MOLECULE
20O
   45    48     1     0     0
SMALL
bcc


@<TRIPOS>ATOM
      1 C1          1.2900   -0.3710   -0.2070 ca        1 20O     -0.069000
      2 C2          2.5970   -0.2910    0.2750 ca        1 20O     -0.156500
      3 C3          2.8250   -0.1540    1.6410 ca        1 20O     -0.018500
      4 C4          1.7580   -0.0920    2.5470 ca        1 20O     -0.366500
      5 C5          0.4530   -0.1840    2.0480 ca        1 20O     -0.018500
      6 C6          0.2160   -0.3210    0.6830 ca        1 20O     -0.156500
      7 S7          2.0390    0.0480    4.2000 sy        1 20O      1.446600
      8 O8          0.9600   -0.5170    4.9010 o         1 20O     -0.660300
      9 O9          3.3270   -0.4370    4.4910 o         1 20O     -0.660300
     10 C10         2.0180    1.7100    4.3870 ca        1 20O     -0.413500
     11 C11         0.8270    2.3950    4.6570 ca        1 20O      0.013000
     12 C12         0.7930    3.7710    4.8350 ca        1 20O     -0.204000
     13 C13         1.9860    4.5240    4.7500 ca        1 20O      0.138600
     14 C14         3.2000    3.8330    4.4890 ca        1 20O     -0.204000
     15 C15         3.2000    2.4600    4.3150 ca        1 20O      0.013000
     16 N16         2.0380    5.9110    4.9120 n         1 20O     -0.468100
     17 C17         0.9780    6.7810    5.1610 c         1 20O      0.700100
     18 O18        -0.2000    6.3940    5.2660 o         1 20O     -0.581100
     19 C19         1.3380    8.2300    5.3000 cx        1 20O     -0.225700
     20 C20         0.2630    9.2480    5.0180 cx        1 20O     -0.087400
     21 C21         0.6820    8.9950    6.4400 cx        1 20O     -0.041400
     22 C22         1.4580    9.9790    7.1990 ca        1 20O     -0.177600
     23 C23         1.2970   10.0830    8.5890 ca        1 20O     -0.081000
     24 C24         2.0450   11.0270    9.2920 ca        1 20O     -0.242300
     25 C25         2.9390   11.8450    8.5770 ca        1 20O      0.396200
     26 N26         3.1110   11.7640    7.2440 nb        1 20O     -0.660000
     27 C27         2.3820   10.8500    6.5790 ca        1 20O      0.394200
     28 H1          1.1060   -0.4790   -1.2870 ha        1 20O      0.136000
     29 H2          3.4460   -0.3400   -0.4220 ha        1 20O      0.140500
     30 H3          3.8590   -0.1090    2.0260 ha        1 20O      0.151000
     31 H4         -0.3960   -0.1620    2.7550 ha        1 20O      0.151000
     32 H5         -0.8160   -0.3930    0.3080 ha        1 20O      0.140500
     33 H6         -0.1130    1.8190    4.7440 ha        1 20O      0.153500
     34 H7         -0.1720    4.2620    5.0460 ha        1 20O      0.158500
     35 H8          4.1530    4.3810    4.4270 ha        1 20O      0.158500
     36 H9          4.1550    1.9360    4.1290 ha        1 20O      0.153500
     37 H10         2.9480    6.3150    4.8560 hn        1 20O      0.322500
     38 H11         2.3820    8.4920    5.0360 hc        1 20O      0.095700
     39 H12        -0.7320    8.8840    4.6970 hc        1 20O      0.092700
     40 H13         0.5510   10.1920    4.5220 hc        1 20O      0.092700
     41 H14        -0.0310    8.4200    7.0720 hc        1 20O      0.106700
     42 H15         0.5890    9.4270    9.1170 ha        1 20O      0.143000
     43 H16         1.9420   11.1340   10.3790 ha        1 20O      0.147000
     44 H17         3.5510   12.6050    9.0950 h4        1 20O      0.026100
     45 H18         2.5440   10.8140    5.4870 h4        1 20O      0.018100
@<TRIPOS>BOND
     1    1    2 ar  
     2    1    6 ar  
     3    1   28 1   
     4    2    3 ar  
     5    2   29 1   
     6    3    4 ar  
     7    3   30 1   
     8    4    5 ar  
     9    4    7 1   
    10    5    6 ar  
    11    5   31 1   
    12    6   32 1   
    13    7    8 2   
    14    7    9 2   
    15    7   10 1   
    16   10   11 ar  
    17   10   15 ar  
    18   11   12 ar  
    19   11   33 1   
    20   12   13 ar  
    21   12   34 1   
    22   13   14 ar  
    23   13   16 1   
    24   14   15 ar  
    25   14   35 1   
    26   15   36 1   
    27   16   17 1   
    28   16   37 1   
    29   17   18 2   
    30   17   19 1   
    31   19   20 1   
    32   19   21 1   
    33   19   38 1   
    34   20   21 1   
    35   20   39 1   
    36   20   40 1   
    37   21   22 1   
    38   21   41 1   
    39   22   23 ar  
    40   22   27 ar  
    41   23   24 ar  
    42   23   42 1   
    43   24   25 ar  
    44   24   43 1   
    45   25   26 ar  
    46   25   44 1   
    47   26   27 ar  
    48   27   45 1   
@<TRIPOS>SUBSTRUCTURE
     1 20O         1 TEMP              0 ****  ****    0 ROOT
