@<TRIPOS>MOLECULE
20P
   32    34     1     0     0
SMALL
bcc


@<TRIPOS>ATOM
      1 C1         -0.1470   -0.7350    0.2660 ca        1 20P     -0.126000
      2 C2          1.2440   -0.6870    0.1720 ca        1 20P     -0.126500
      3 C3          2.0120   -0.4070    1.3000 ca        1 20P     -0.123500
      4 C4          1.3970   -0.1710    2.5380 ca        1 20P     -0.062300
      5 C5         -0.0010   -0.2200    2.6220 ca        1 20P     -0.123500
      6 C6         -0.7670   -0.5010    1.4930 ca        1 20P     -0.126500
      7 C7          2.2330    0.1250    3.7080 cx        1 20P     -0.056400
      8 C9          1.7590    1.0430    4.8040 cx        1 20P     -0.087400
      9 C10         1.8560   -0.4330    5.0690 cx        1 20P     -0.222700
     10 C12         2.9580   -0.9230    5.9640 c         1 20P      0.697100
     11 O13         3.6260   -0.1480    6.6690 o         1 20P     -0.579100
     12 N14         3.1670   -2.3000    5.9420 n         1 20P     -0.470100
     13 C15         4.1110   -3.0280    6.6730 ca        1 20P      0.107600
     14 C16         4.9870   -2.4520    7.6190 ca        1 20P     -0.291300
     15 C17         5.8890   -3.2890    8.2950 ca        1 20P      0.415200
     16 N18         5.9820   -4.6180    8.1050 nb        1 20P     -0.685000
     17 C19         5.1430   -5.1600    7.2010 ca        1 20P      0.415200
     18 C20         4.2020   -4.4290    6.4660 ca        1 20P     -0.291300
     19 H1         -0.7530   -0.9560   -0.6250 ha        1 20P      0.134000
     20 H2          1.7360   -0.8690   -0.7940 ha        1 20P      0.134500
     21 H3          3.1090   -0.3680    1.2180 ha        1 20P      0.132000
     22 H4         -0.4990   -0.0330    3.5860 ha        1 20P      0.132000
     23 H5         -1.8640   -0.5360    1.5710 ha        1 20P      0.134500
     24 H6          3.3180    0.1580    3.4650 hc        1 20P      0.095700
     25 H7          2.4970    1.7120    5.2870 hc        1 20P      0.091700
     26 H8          0.7560    1.5010    4.7330 hc        1 20P      0.091700
     27 H9          0.9180   -1.0160    5.1610 hc        1 20P      0.102700
     28 H10         2.6020   -2.8320    5.3160 hn        1 20P      0.322500
     29 H11         4.9770   -1.3730    7.8350 ha        1 20P      0.160000
     30 H12         6.5850   -2.8610    9.0400 h4        1 20P      0.022600
     31 H13         5.2330   -6.2530    7.0580 h4        1 20P      0.022600
     32 H14         3.5540   -4.9460    5.7470 ha        1 20P      0.160000
@<TRIPOS>BOND
     1    1    2 ar  
     2    1    6 ar  
     3    1   19 1   
     4    2    3 ar  
     5    2   20 1   
     6    3    4 ar  
     7    3   21 1   
     8    4    5 ar  
     9    4    7 1   
    10    5    6 ar  
    11    5   22 1   
    12    6   23 1   
    13    7    8 1   
    14    7    9 1   
    15    7   24 1   
    16    8    9 1   
    17    8   25 1   
    18    8   26 1   
    19    9   10 1   
    20    9   27 1   
    21   10   11 2   
    22   10   12 1   
    23   12   13 1   
    24   12   28 1   
    25   13   14 ar  
    26   13   18 ar  
    27   14   15 ar  
    28   14   29 1   
    29   15   16 ar  
    30   15   30 1   
    31   16   17 ar  
    32   17   18 ar  
    33   17   31 1   
    34   18   32 1   
@<TRIPOS>SUBSTRUCTURE
     1 20P         1 TEMP              0 ****  ****    0 ROOT
