@<TRIPOS>MOLECULE
20P
   32    34     1     0     0
SMALL
bcc


@<TRIPOS>ATOM
      1 C1         -5.1750   -0.1440   -1.4960 ca        1 20P     -0.126000
      2 C2         -4.5200    1.0850   -1.4130 ca        1 20P     -0.126500
      3 C3         -3.4070    1.2310   -0.5880 ca        1 20P     -0.123500
      4 C4         -2.9350    0.1470    0.1660 ca        1 20P     -0.062300
      5 C5         -3.5990   -1.0840    0.0770 ca        1 20P     -0.123500
      6 C6         -4.7120   -1.2270   -0.7500 ca        1 20P     -0.126500
      7 C7         -1.7610    0.3320    1.0290 cx        1 20P     -0.056400
      8 C9         -1.6090   -0.4210    2.3240 cx        1 20P     -0.087400
      9 C10        -0.7320   -0.7770    1.1570 cx        1 20P     -0.222700
     10 C12         0.7190   -0.3960    1.2140 c         1 20P      0.697100
     11 O13         1.2630   -0.0400    2.2730 o         1 20P     -0.579100
     12 N14         1.3980   -0.4750    0.0020 n         1 20P     -0.470100
     13 C15         2.7460   -0.1900   -0.2380 ca        1 20P      0.107600
     14 C16         3.6630    0.1800    0.7700 ca        1 20P     -0.291300
     15 C17         4.9940    0.4360    0.4050 ca        1 20P      0.415200
     16 N18         5.4680    0.3540   -0.8520 nb        1 20P     -0.685000
     17 C19         4.5880   -0.0010   -1.8080 ca        1 20P      0.415200
     18 C20         3.2370   -0.2800   -1.5670 ca        1 20P     -0.291300
     19 H1         -6.0540   -0.2580   -2.1480 ha        1 20P      0.134000
     20 H2         -4.8830    1.9420   -1.9990 ha        1 20P      0.134500
     21 H3         -2.8970    2.2050   -0.5250 ha        1 20P      0.132000
     22 H4         -3.2430   -1.9430    0.6650 ha        1 20P      0.132000
     23 H5         -5.2260   -2.1970   -0.8110 ha        1 20P      0.134500
     24 H6         -1.3730    1.3740    1.0090 hc        1 20P      0.095700
     25 H7         -1.1480    0.1000    3.1860 hc        1 20P      0.091200
     26 H8         -2.3920   -1.1360    2.6320 hc        1 20P      0.091200
     27 H9         -0.9170   -1.7340    0.6300 hc        1 20P      0.102700
     28 H10         0.8640   -0.7380   -0.7980 hn        1 20P      0.322500
     29 H11         3.3580    0.2710    1.8230 ha        1 20P      0.160000
     30 H12         5.7300    0.7280    1.1770 h4        1 20P      0.022600
     31 H13         4.9940   -0.0640   -2.8340 h4        1 20P      0.022600
     32 H14         2.5830   -0.5620   -2.4030 ha        1 20P      0.160000
@<TRIPOS>BOND
     1    1    2 ar  
     2    1    6 ar  
     3    1   19 1   
     4    2    3 ar  
     5    2   20 1   
     6    3    4 ar  
     7    3   21 1   
     8    4    5 ar  
     9    4    7 1   
    10    5    6 ar  
    11    5   22 1   
    12    6   23 1   
    13    7    8 1   
    14    7    9 1   
    15    7   24 1   
    16    8    9 1   
    17    8   25 1   
    18    8   26 1   
    19    9   10 1   
    20    9   27 1   
    21   10   11 2   
    22   10   12 1   
    23   12   13 1   
    24   12   28 1   
    25   13   14 ar  
    26   13   18 ar  
    27   14   15 ar  
    28   14   29 1   
    29   15   16 ar  
    30   15   30 1   
    31   16   17 ar  
    32   17   18 ar  
    33   17   31 1   
    34   18   32 1   
@<TRIPOS>SUBSTRUCTURE
     1 20P         1 TEMP              0 ****  ****    0 ROOT
