@<TRIPOS>MOLECULE
20P
   32    34     1     0     0
SMALL
bcc


@<TRIPOS>ATOM
      1 C1         -0.1450   -0.7430    0.2650 ca        1 20P     -0.126000
      2 C2          1.2450   -0.6890    0.1740 ca        1 20P     -0.126500
      3 C3          2.0110   -0.4060    1.3030 ca        1 20P     -0.123500
      4 C4          1.3920   -0.1740    2.5400 ca        1 20P     -0.062300
      5 C5         -0.0050   -0.2300    2.6220 ca        1 20P     -0.123500
      6 C6         -0.7680   -0.5130    1.4910 ca        1 20P     -0.126500
      7 C7          2.2250    0.1240    3.7130 cx        1 20P     -0.056400
      8 C9          1.7450    1.0390    4.8080 cx        1 20P     -0.087400
      9 C10         1.8480   -0.4370    5.0720 cx        1 20P     -0.222700
     10 C12         2.9500   -0.9230    5.9680 c         1 20P      0.697100
     11 O13         3.6080   -0.1470    6.6820 o         1 20P     -0.579100
     12 N14         3.1710   -2.2980    5.9390 ns        1 20P     -0.470100
     13 C15         4.1180   -3.0230    6.6700 ca        1 20P      0.107600
     14 C16         4.9840   -2.4460    7.6240 ca        1 20P     -0.291300
     15 C17         5.8900   -3.2800    8.2990 ca        1 20P      0.415200
     16 N18         5.9950   -4.6070    8.1010 nb        1 20P     -0.685000
     17 C19         5.1650   -5.1500    7.1890 ca        1 20P      0.415200
     18 C20         4.2210   -4.4220    6.4540 ca        1 20P     -0.291300
     19 H1         -0.7480   -0.9660   -0.6270 ha        1 20P      0.134000
     20 H2          1.7410   -0.8680   -0.7920 ha        1 20P      0.134500
     21 H3          3.1080   -0.3620    1.2230 ha        1 20P      0.132000
     22 H4         -0.5060   -0.0450    3.5850 ha        1 20P      0.132000
     23 H5         -1.8650   -0.5530    1.5670 ha        1 20P      0.134500
     24 H6          3.3100    0.1630    3.4710 hc        1 20P      0.095700
     25 H7          0.7400    1.4930    4.7360 hc        1 20P      0.091200
     26 H8          2.4790    1.7110    5.2930 hc        1 20P      0.091200
     27 H9          0.9130   -1.0240    5.1620 hc        1 20P      0.102700
     28 H10         2.6130   -2.8310    5.3070 hn        1 20P      0.322500
     29 H11         4.9640   -1.3680    7.8460 ha        1 20P      0.160000
     30 H12         6.5790   -2.8510    9.0500 h4        1 20P      0.022600
     31 H13         5.2650   -6.2410    7.0390 h4        1 20P      0.022600
     32 H14         3.5810   -4.9390    5.7280 ha        1 20P      0.160000
@<TRIPOS>BOND
     1    1    2 ar  
     2    1    6 ar  
     3    1   19 1   
     4    2    3 ar  
     5    2   20 1   
     6    3    4 ar  
     7    3   21 1   
     8    4    5 ar  
     9    4    7 1   
    10    5    6 ar  
    11    5   22 1   
    12    6   23 1   
    13    7    8 1   
    14    7    9 1   
    15    7   24 1   
    16    8    9 1   
    17    8   25 1   
    18    8   26 1   
    19    9   10 1   
    20    9   27 1   
    21   10   11 2   
    22   10   12 1   
    23   12   13 1   
    24   12   28 1   
    25   13   14 ar  
    26   13   18 ar  
    27   14   15 ar  
    28   14   29 1   
    29   15   16 ar  
    30   15   30 1   
    31   16   17 ar  
    32   17   18 ar  
    33   17   31 1   
    34   18   32 1   
@<TRIPOS>SUBSTRUCTURE
     1 20P         1 TEMP              0 ****  ****    0 ROOT
