@<TRIPOS>MOLECULE
20P
   33    35     1     0     0
SMALL
bcc


@<TRIPOS>ATOM
      1 C1          1.5470   -1.5540    0.3950 ca        1 20P     -0.098000
      2 C2          2.7620   -0.9250    0.6700 ca        1 20P     -0.121000
      3 C3          2.9680   -0.3090    1.9030 ca        1 20P     -0.111500
      4 C4          1.9560   -0.3160    2.8740 ca        1 20P     -0.110300
      5 C5          0.7390   -0.9510    2.5910 ca        1 20P     -0.111500
      6 C6          0.5370   -1.5660    1.3580 ca        1 20P     -0.121000
      7 C7          2.2010    0.3550    4.1560 cx        1 20P      0.022600
      8 C9          1.0970    0.9130    4.9950 cx        1 20P     -0.062400
      9 C10         1.7820   -0.3610    5.4520 cx        1 20P     -0.287700
     10 C12         2.6990   -0.2810    6.5910 c         1 20P      0.601100
     11 O13         3.4470    0.6180    6.9430 o         1 20P     -0.422100
     12 N14         2.7320   -1.5090    7.5100 n4        1 20P     -0.559200
     13 C15         3.4240   -2.6380    6.8850 ca        1 20P     -0.002400
     14 C16         4.8280   -2.6930    6.8960 ca        1 20P     -0.227800
     15 C17         5.4410   -3.8070    6.2850 ca        1 20P      0.437200
     16 N18         4.7570   -4.8070    5.7000 nb        1 20P     -0.604000
     17 C19         3.4140   -4.7350    5.7030 ca        1 20P      0.437200
     18 C20         2.6890   -3.6730    6.2810 ca        1 20P     -0.227800
     19 H1          1.3840   -2.0370   -0.5810 ha        1 20P      0.152000
     20 H2          3.5590   -0.9090   -0.0900 ha        1 20P      0.150000
     21 H3          3.9260    0.1930    2.1080 ha        1 20P      0.131000
     22 H4         -0.0690   -0.9560    3.3380 ha        1 20P      0.131000
     23 H5         -0.4250   -2.0550    1.1400 ha        1 20P      0.150000
     24 H6          3.1740    0.8970    4.1880 hc        1 20P      0.112700
     25 H7          0.0460    0.8320    4.6560 hc        1 20P      0.110700
     26 H8          1.2850    1.8480    5.5590 hc        1 20P      0.110700
     27 H9          1.2320   -1.3180    5.3430 hc        1 20P      0.121700
     28 H10         1.7700   -1.7830    7.7360 hn        1 20P      0.464800
     29 H11         5.4490   -1.9100    7.3570 ha        1 20P      0.170500
     30 H12         6.5460   -3.8970    6.2690 h4        1 20P      0.064100
     31 H13         2.8810   -5.5760    5.2150 h4        1 20P      0.064100
     32 H14         1.5900   -3.6810    6.2480 ha        1 20P      0.170500
     33 H142        3.2250   -1.2600    8.3800 hn        1 20P      0.464800
@<TRIPOS>BOND
     1    1    2 ar  
     2    1    6 ar  
     3    1   19 1   
     4    2    3 ar  
     5    2   20 1   
     6    3    4 ar  
     7    3   21 1   
     8    4    5 ar  
     9    4    7 1   
    10    5    6 ar  
    11    5   22 1   
    12    6   23 1   
    13    7    8 1   
    14    7    9 1   
    15    7   24 1   
    16    8    9 1   
    17    8   25 1   
    18    8   26 1   
    19    9   10 1   
    20    9   27 1   
    21   10   11 2   
    22   10   12 1   
    23   12   13 1   
    24   12   28 1   
    25   12   33 1   
    26   13   14 ar  
    27   13   18 ar  
    28   14   15 ar  
    29   14   29 1   
    30   15   16 ar  
    31   15   30 1   
    32   16   17 ar  
    33   17   18 ar  
    34   17   31 1   
    35   18   32 1   
@<TRIPOS>SUBSTRUCTURE
     1 20P         1 TEMP              0 ****  ****    0 ROOT
