@<TRIPOS>MOLECULE
20Q
   50    53     1     0     0
SMALL
bcc


@<TRIPOS>ATOM
      1 C9         -0.2290    0.1030   -0.0790 ca        1 20Q      0.071600
      2 C2          0.3620    0.0210   -2.3040 c         1 20Q      0.704500
      3 C3          1.7010    0.0440   -1.5050 c3        1 20Q     -0.046700
      4 C8          1.2060    0.0960   -0.0760 ca        1 20Q     -0.141300
      5 N1         -0.7110    0.0870   -1.3980 ns        1 20Q     -0.473100
      6 C7         -0.9490    0.1380    1.1120 ca        1 20Q     -0.162000
      7 C4          1.8960    0.1390    1.1180 ca        1 20Q     -0.062000
      8 C5          1.1790    0.1790    2.3220 ca        1 20Q     -0.152000
      9 C6         -0.2160    0.1750    2.3090 ca        1 20Q      0.055400
     10 C13         0.3020   -4.3090   -1.7900 ca        1 20Q      0.018400
     11 Cl1        -0.8850   -5.0320   -2.7700 cl        1 20Q     -0.094400
     12 C12         0.8730   -3.0960   -2.1800 ca        1 20Q     -0.124000
     13 C11         1.8480   -2.4960   -1.3740 ca        1 20Q     -0.079300
     14 C10         2.4940   -1.2270   -1.8110 c3        1 20Q     -0.022100
     15 C31         2.5350    1.2870   -1.8410 c3        1 20Q     -0.069700
     16 C16         2.2460   -3.1260   -0.1890 ca        1 20Q     -0.117000
     17 C15         1.6710   -4.3380    0.1910 ca        1 20Q     -0.120000
     18 C14         0.6970   -4.9380   -0.6040 ca        1 20Q     -0.122000
     19 C32         1.7030    2.5660   -1.6180 c3        1 20Q      0.074000
     20 N33         2.3940    3.7860   -1.9780 n         1 20Q     -0.452800
     21 C34         2.9390    3.7710   -3.3170 c3        1 20Q      0.081000
     22 C35         3.8080    2.5440   -3.6050 c3        1 20Q     -0.103400
     23 C36         3.0830    1.2600   -3.2610 c3        1 20Q     -0.088400
     24 O2          0.2180   -0.0470   -3.5300 o         1 20Q     -0.607500
     25 Cl6        -1.0660    0.2170    3.7820 cl        1 20Q     -0.088400
     26 C33         2.9300    4.5950   -0.9730 c         1 20Q      0.649100
     27 O33         2.6710    4.3650    0.2260 o         1 20Q     -0.603100
     28 C37         3.7510    5.8030   -1.3520 c3        1 20Q     -0.170100
     29 H1         -1.6640   -0.0100   -1.6380 hn        1 20Q      0.343500
     30 H2         -2.0480    0.1400    1.1230 ha        1 20Q      0.156000
     31 H3          2.9960    0.1470    1.1330 ha        1 20Q      0.143000
     32 H4          1.7250    0.2200    3.2760 ha        1 20Q      0.152000
     33 H6          3.5010   -1.1310   -1.3220 hc        1 20Q      0.066700
     34 H7          2.6500   -1.2760   -2.9250 hc        1 20Q      0.066700
     35 H8          3.4020    1.2980   -1.1210 hc        1 20Q      0.063700
     36 H9          3.0120   -2.6590    0.4480 ha        1 20Q      0.135000
     37 H10         1.9880   -4.8250    1.1250 ha        1 20Q      0.138000
     38 H11         0.2450   -5.8940   -0.3030 ha        1 20Q      0.148000
     39 H12         0.7760    2.5090   -2.2600 h1        1 20Q      0.075200
     40 H13         1.3900    2.6190   -0.5360 h1        1 20Q      0.075200
     41 H14         3.5370    4.7020   -3.5130 h1        1 20Q      0.054700
     42 H15         2.0650    3.7670   -4.0320 h1        1 20Q      0.054700
     43 H16         4.7630    2.6090   -3.0210 hc        1 20Q      0.048700
     44 H17         4.0740    2.5450   -4.6940 hc        1 20Q      0.048700
     45 H18         2.2360    1.0950   -3.9810 hc        1 20Q      0.059200
     46 H19         3.7990    0.4050   -3.3770 hc        1 20Q      0.059200
     47 H20         3.2050    6.4440   -2.0850 hc        1 20Q      0.066033
     48 H21         4.7270    5.4850   -1.7910 hc        1 20Q      0.066033
     49 H22         3.9490    6.3990   -0.4270 hc        1 20Q      0.066033
     50 H5          0.5590   -2.6030   -3.1160 ha        1 20Q      0.160000
@<TRIPOS>BOND
     1    1    4 ar  
     2    1    5 1   
     3    1    6 ar  
     4    2    3 1   
     5    2    5 1   
     6    2   24 2   
     7    3    4 1   
     8    3   14 1   
     9    3   15 1   
    10    4    7 ar  
    11    5   29 1   
    12    6    9 ar  
    13    6   30 1   
    14    7    8 ar  
    15    7   31 1   
    16    8    9 ar  
    17    8   32 1   
    18    9   25 1   
    19   10   11 1   
    20   10   12 ar  
    21   10   18 ar  
    22   12   13 ar  
    23   12   50 1   
    24   13   14 1   
    25   13   16 ar  
    26   14   33 1   
    27   14   34 1   
    28   15   19 1   
    29   15   23 1   
    30   15   35 1   
    31   16   17 ar  
    32   16   36 1   
    33   17   18 ar  
    34   17   37 1   
    35   18   38 1   
    36   19   20 1   
    37   19   39 1   
    38   19   40 1   
    39   20   21 1   
    40   20   26 1   
    41   21   22 1   
    42   21   41 1   
    43   21   42 1   
    44   22   23 1   
    45   22   43 1   
    46   22   44 1   
    47   23   45 1   
    48   23   46 1   
    49   26   27 2   
    50   26   28 1   
    51   28   47 1   
    52   28   48 1   
    53   28   49 1   
@<TRIPOS>SUBSTRUCTURE
     1 20Q         1 TEMP              0 ****  ****    0 ROOT
