@<TRIPOS>MOLECULE
20Q
   50    53     1     0     0
SMALL
bcc


@<TRIPOS>ATOM
      1 C9         -0.2270    0.1020   -0.0760 ca        1 20Q      0.071600
      2 C2          0.3600    0.0220   -2.3020 c         1 20Q      0.704500
      3 C3          1.7010    0.0440   -1.5050 c3        1 20Q     -0.046700
      4 C8          1.2080    0.0950   -0.0750 ca        1 20Q     -0.141300
      5 N1         -0.7120    0.0870   -1.3940 n         1 20Q     -0.473100
      6 C7         -0.9450    0.1370    1.1160 ca        1 20Q     -0.162000
      7 C4          1.9000    0.1380    1.1170 ca        1 20Q     -0.062000
      8 C5          1.1850    0.1780    2.3230 ca        1 20Q     -0.152000
      9 C6         -0.2100    0.1740    2.3120 ca        1 20Q      0.055400
     10 C13         0.3010   -4.3090   -1.7900 ca        1 20Q      0.018400
     11 CL1        -0.8870   -5.0320   -2.7690 cl        1 20Q     -0.094400
     12 C12         0.8720   -3.0960   -2.1810 ca        1 20Q     -0.124000
     13 C11         1.8480   -2.4960   -1.3750 ca        1 20Q     -0.079300
     14 C10         2.4930   -1.2270   -1.8130 c3        1 20Q     -0.022100
     15 C31         2.5340    1.2870   -1.8420 c3        1 20Q     -0.069700
     16 C16         2.2470   -3.1260   -0.1910 ca        1 20Q     -0.117000
     17 C15         1.6720   -4.3380    0.1900 ca        1 20Q     -0.120000
     18 C14         0.6970   -4.9380   -0.6050 ca        1 20Q     -0.122000
     19 C32         1.7020    2.5660   -1.6170 c3        1 20Q      0.074000
     20 N33         2.3930    3.7860   -1.9780 n         1 20Q     -0.452800
     21 C34         2.9360    3.7720   -3.3170 c3        1 20Q      0.081000
     22 C35         3.8040    2.5450   -3.6070 c3        1 20Q     -0.103400
     23 C36         3.0790    1.2610   -3.2630 c3        1 20Q     -0.088400
     24 O2          0.2150   -0.0460   -3.5270 o         1 20Q     -0.607500
     25 CL6        -1.0580    0.2160    3.7870 cl        1 20Q     -0.088400
     26 C33         2.9300    4.5950   -0.9730 c         1 20Q      0.649100
     27 O33         2.6730    4.3640    0.2260 o         1 20Q     -0.603100
     28 C37         3.7510    5.8020   -1.3530 c3        1 20Q     -0.170100
     29 H1         -1.6640   -0.0100   -1.6330 hn        1 20Q      0.343500
     30 H2         -2.0440    0.1390    1.1290 ha        1 20Q      0.156000
     31 H3          3.0000    0.1460    1.1310 ha        1 20Q      0.143000
     32 H4          1.7320    0.2180    3.2760 ha        1 20Q      0.152000
     33 H6          3.5010   -1.1310   -1.3260 hc        1 20Q      0.066700
     34 H7          2.6480   -1.2760   -2.9270 hc        1 20Q      0.066700
     35 H8          3.4020    1.2970   -1.1230 hc        1 20Q      0.063700
     36 H9          3.0130   -2.6590    0.4460 ha        1 20Q      0.135000
     37 H10         1.9890   -4.8250    1.1240 ha        1 20Q      0.138000
     38 H11         0.2450   -5.8940   -0.3030 ha        1 20Q      0.148000
     39 H12         0.7750    2.5090   -2.2580 h1        1 20Q      0.075200
     40 H13         1.3910    2.6190   -0.5350 h1        1 20Q      0.075200
     41 H14         3.5330    4.7030   -3.5140 h1        1 20Q      0.054700
     42 H15         2.0600    3.7680   -4.0310 h1        1 20Q      0.054700
     43 H16         4.7600    2.6100   -3.0250 hc        1 20Q      0.048700
     44 H17         4.0680    2.5460   -4.6960 hc        1 20Q      0.048700
     45 H18         2.2310    1.0970   -3.9810 hc        1 20Q      0.059200
     46 H19         3.7960    0.4060   -3.3810 hc        1 20Q      0.059200
     47 H20         4.7260    5.4850   -1.7940 hc        1 20Q      0.066033
     48 H21         3.9500    6.3990   -0.4280 hc        1 20Q      0.066033
     49 H22         3.2040    6.4440   -2.0840 hc        1 20Q      0.066033
     50 H5          0.5570   -2.6030   -3.1160 ha        1 20Q      0.160000
@<TRIPOS>BOND
     1    1    4 ar  
     2    1    5 1   
     3    1    6 ar  
     4    2    3 1   
     5    2    5 1   
     6    2   24 2   
     7    3    4 1   
     8    3   14 1   
     9    3   15 1   
    10    4    7 ar  
    11    5   29 1   
    12    6    9 ar  
    13    6   30 1   
    14    7    8 ar  
    15    7   31 1   
    16    8    9 ar  
    17    8   32 1   
    18    9   25 1   
    19   10   11 1   
    20   10   12 ar  
    21   10   18 ar  
    22   12   13 ar  
    23   12   50 1   
    24   13   14 1   
    25   13   16 ar  
    26   14   33 1   
    27   14   34 1   
    28   15   19 1   
    29   15   23 1   
    30   15   35 1   
    31   16   17 ar  
    32   16   36 1   
    33   17   18 ar  
    34   17   37 1   
    35   18   38 1   
    36   19   20 1   
    37   19   39 1   
    38   19   40 1   
    39   20   21 1   
    40   20   26 1   
    41   21   22 1   
    42   21   41 1   
    43   21   42 1   
    44   22   23 1   
    45   22   43 1   
    46   22   44 1   
    47   23   45 1   
    48   23   46 1   
    49   26   27 2   
    50   26   28 1   
    51   28   47 1   
    52   28   48 1   
    53   28   49 1   
@<TRIPOS>SUBSTRUCTURE
     1 20Q         1 TEMP              0 ****  ****    0 ROOT
