@<TRIPOS>MOLECULE
20Q
   50    53     1     0     0
SMALL
bcc


@<TRIPOS>ATOM
      1 C9         -0.2260    0.1020   -0.0730 ca        1 20Q      0.071600
      2 C2          0.3580    0.0220   -2.3000 c         1 20Q      0.704500
      3 C3          1.7000    0.0440   -1.5050 c3        1 20Q     -0.046700
      4 C8          1.2090    0.0950   -0.0740 ca        1 20Q     -0.141300
      5 N1         -0.7120    0.0870   -1.3910 n         1 20Q     -0.473100
      6 C7         -0.9430    0.1370    1.1200 ca        1 20Q     -0.162000
      7 C4          1.9030    0.1380    1.1170 ca        1 20Q     -0.062000
      8 C5          1.1890    0.1780    2.3240 ca        1 20Q     -0.152000
      9 C6         -0.2060    0.1740    2.3150 ca        1 20Q      0.055400
     10 C13         0.2990   -4.3090   -1.7870 ca        1 20Q      0.018400
     11 CL1        -0.8920   -5.0300   -2.7640 cl        1 20Q     -0.094400
     12 C12         0.8690   -3.0950   -2.1790 ca        1 20Q     -0.124000
     13 C11         1.8470   -2.4960   -1.3750 ca        1 20Q     -0.079300
     14 C10         2.4910   -1.2270   -1.8140 c3        1 20Q     -0.022100
     15 C31         2.5330    1.2870   -1.8430 c3        1 20Q     -0.069700
     16 C16         2.2490   -3.1270   -0.1930 ca        1 20Q     -0.117000
     17 C15         1.6750   -4.3390    0.1890 ca        1 20Q     -0.120000
     18 C14         0.6980   -4.9380   -0.6040 ca        1 20Q     -0.122000
     19 C32         1.7020    2.5660   -1.6170 c3        1 20Q      0.074000
     20 N33         2.3930    3.7860   -1.9780 n         1 20Q     -0.452800
     21 C34         2.9340    3.7710   -3.3190 c3        1 20Q      0.081000
     22 C35         3.8010    2.5450   -3.6100 c3        1 20Q     -0.103400
     23 C36         3.0770    1.2610   -3.2650 c3        1 20Q     -0.088400
     24 O2          0.2110   -0.0460   -3.5260 o         1 20Q     -0.607500
     25 CL6        -1.0520    0.2160    3.7900 cl        1 20Q     -0.088400
     26 C33         2.9310    4.5940   -0.9740 c         1 20Q      0.649100
     27 O33         2.6750    4.3640    0.2250 o         1 20Q     -0.603100
     28 C37         3.7520    5.8020   -1.3550 c3        1 20Q     -0.170100
     29 H1         -1.6650   -0.0090   -1.6280 hn        1 20Q      0.343500
     30 H2         -2.0410    0.1400    1.1330 ha        1 20Q      0.156000
     31 H3          3.0020    0.1460    1.1290 ha        1 20Q      0.143000
     32 H4          1.7380    0.2180    3.2760 ha        1 20Q      0.152000
     33 H6          2.6450   -1.2760   -2.9280 hc        1 20Q      0.066700
     34 H7          3.5000   -1.1310   -1.3280 hc        1 20Q      0.066700
     35 H8          3.4020    1.2970   -1.1250 hc        1 20Q      0.063700
     36 H9          3.0170   -2.6600    0.4430 ha        1 20Q      0.135000
     37 H10         1.9940   -4.8270    1.1220 ha        1 20Q      0.138000
     38 H11         0.2460   -5.8950   -0.3010 ha        1 20Q      0.148000
     39 H12         1.3920    2.6190   -0.5350 h1        1 20Q      0.075200
     40 H13         0.7730    2.5090   -2.2570 h1        1 20Q      0.075200
     41 H14         3.5310    4.7030   -3.5160 h1        1 20Q      0.054700
     42 H15         2.0570    3.7680   -4.0320 h1        1 20Q      0.054700
     43 H16         4.0640    2.5460   -4.6990 hc        1 20Q      0.048700
     44 H17         4.7580    2.6090   -3.0290 hc        1 20Q      0.048700
     45 H18         2.2280    1.0960   -3.9820 hc        1 20Q      0.059200
     46 H19         3.7930    0.4050   -3.3830 hc        1 20Q      0.059200
     47 H20         3.2040    6.4440   -2.0860 hc        1 20Q      0.066033
     48 H21         4.7260    5.4840   -1.7980 hc        1 20Q      0.066033
     49 H22         3.9520    6.3980   -0.4310 hc        1 20Q      0.066033
     50 H5          0.5520   -2.6020   -3.1130 ha        1 20Q      0.160000
@<TRIPOS>BOND
     1    1    4 ar  
     2    1    5 1   
     3    1    6 ar  
     4    2    3 1   
     5    2    5 1   
     6    2   24 2   
     7    3    4 1   
     8    3   14 1   
     9    3   15 1   
    10    4    7 ar  
    11    5   29 1   
    12    6    9 ar  
    13    6   30 1   
    14    7    8 ar  
    15    7   31 1   
    16    8    9 ar  
    17    8   32 1   
    18    9   25 1   
    19   10   11 1   
    20   10   12 ar  
    21   10   18 ar  
    22   12   13 ar  
    23   12   50 1   
    24   13   14 1   
    25   13   16 ar  
    26   14   33 1   
    27   14   34 1   
    28   15   19 1   
    29   15   23 1   
    30   15   35 1   
    31   16   17 ar  
    32   16   36 1   
    33   17   18 ar  
    34   17   37 1   
    35   18   38 1   
    36   19   20 1   
    37   19   39 1   
    38   19   40 1   
    39   20   21 1   
    40   20   26 1   
    41   21   22 1   
    42   21   41 1   
    43   21   42 1   
    44   22   23 1   
    45   22   43 1   
    46   22   44 1   
    47   23   45 1   
    48   23   46 1   
    49   26   27 2   
    50   26   28 1   
    51   28   47 1   
    52   28   48 1   
    53   28   49 1   
@<TRIPOS>SUBSTRUCTURE
     1 20Q         1 TEMP              0 ****  ****    0 ROOT
