@<TRIPOS>MOLECULE
20R
   45    48     1     0     0
SMALL
bcc


@<TRIPOS>ATOM
      1 C1          0.0870   -0.1870    0.1420 ca        1 20R     -0.052000
      2 C2          1.4830   -0.1690    0.1430 ca        1 20R     -0.153000
      3 C3          2.1750   -0.1380    1.3500 ca        1 20R     -0.016000
      4 C4          1.4910   -0.1200    2.5750 ca        1 20R     -0.408500
      5 C5          0.0880   -0.1480    2.5540 ca        1 20R     -0.016000
      6 C6         -0.6100   -0.1780    1.3510 ca        1 20R     -0.153000
      7 S7          2.3220   -0.1490    4.0160 sy        1 20R      1.436600
      8 O8          1.5200   -0.6690    5.0360 o         1 20R     -0.636800
      9 O9          3.6110   -0.6580    3.8290 o         1 20R     -0.636800
     10 C10         2.4820    1.5400    4.3070 ca        1 20R     -0.288500
     11 C11         3.6090    2.2330    3.8550 ca        1 20R     -0.019000
     12 C12         3.7720    3.5890    4.1360 ca        1 20R     -0.127500
     13 C13         2.8020    4.2630    4.8840 ca        1 20R     -0.139300
     14 C14         1.6730    3.5790    5.3470 ca        1 20R     -0.127500
     15 C15         1.5220    2.2230    5.0590 ca        1 20R     -0.019000
     16 C16         2.9990    5.6990    5.2380 c3        1 20R      0.167100
     17 N17         2.4040    6.5930    4.1920 n4        1 20R     -0.674800
     18 C18         2.5730    8.0720    4.4930 c         1 20R      0.578700
     19 O19         3.1670    8.3340    5.5340 o         1 20R     -0.449100
     20 C20         2.0180    8.9970    3.5260 ca        1 20R     -0.383900
     21 C21         2.1630   10.3610    3.7910 ca        1 20R      0.124000
     22 C22         1.6330   11.2620    2.8690 ca        1 20R     -0.300300
     23 C23         1.5520   12.6760    2.7380 cc        1 20R     -0.057100
     24 N24         0.8800   12.9050    1.5600 na        1 20R      0.077800
     25 N25         0.5070   11.8080    0.8960 nc        1 20R     -0.202400
     26 C27         0.9450   10.7440    1.6560 ca        1 20R      0.309300
     27 N28         0.8150    9.3820    1.4170 nb        1 20R     -0.572000
     28 C29         1.3330    8.5840    2.3210 ca        1 20R      0.434200
     29 H1         -0.4630   -0.2190   -0.8120 ha        1 20R      0.149000
     30 H2          2.0360   -0.1920   -0.8080 ha        1 20R      0.151000
     31 H3          3.2800   -0.1530    1.3510 ha        1 20R      0.154000
     32 H4         -0.4640   -0.1710    3.5110 ha        1 20R      0.154000
     33 H5         -1.7110   -0.2090    1.3540 ha        1 20R      0.151000
     34 H6          4.3910    1.6900    3.2910 ha        1 20R      0.175000
     35 H7          4.6770    4.1130    3.7910 ha        1 20R      0.144500
     36 H8          0.9180    4.0950    5.9600 ha        1 20R      0.144500
     37 H9          0.6460    1.6720    5.4510 ha        1 20R      0.175000
     38 H10         4.0970    5.9520    5.3220 hx        1 20R      0.119700
     39 H11         2.5080    5.9480    6.2240 hx        1 20R      0.119700
     40 H12         2.8450    6.3910    3.2880 hn        1 20R      0.456800
     41 H13         2.6800   10.7120    4.7020 ha        1 20R      0.175000
     42 H14         1.9200   13.4740    3.3890 h4        1 20R      0.212000
     43 H15         0.6520   13.8000    1.1680 hn        1 20R      0.356700
     44 H16         1.2030    7.5110    2.0830 h4        1 20R      0.011100
     45 H172        1.4010    6.3890    4.1070 hn        1 20R      0.456800
@<TRIPOS>BOND
     1    1    2 ar  
     2    1    6 ar  
     3    1   29 1   
     4    2    3 ar  
     5    2   30 1   
     6    3    4 ar  
     7    3   31 1   
     8    4    5 ar  
     9    4    7 1   
    10    5    6 ar  
    11    5   32 1   
    12    6   33 1   
    13    7    8 2   
    14    7    9 2   
    15    7   10 1   
    16   10   11 ar  
    17   10   15 ar  
    18   11   12 ar  
    19   11   34 1   
    20   12   13 ar  
    21   12   35 1   
    22   13   14 ar  
    23   13   16 1   
    24   14   15 ar  
    25   14   36 1   
    26   15   37 1   
    27   16   17 1   
    28   16   38 1   
    29   16   39 1   
    30   17   18 1   
    31   17   40 1   
    32   17   45 1   
    33   18   19 2   
    34   18   20 1   
    35   20   21 ar  
    36   20   28 ar  
    37   21   22 ar  
    38   21   41 1   
    39   22   23 2   
    40   22   26 ar  
    41   23   24 1   
    42   23   42 1   
    43   24   25 1   
    44   24   43 1   
    45   25   26 2   
    46   26   27 ar  
    47   27   28 ar  
    48   28   44 1   
@<TRIPOS>SUBSTRUCTURE
     1 20R         1 TEMP              0 ****  ****    0 ROOT
