@<TRIPOS>MOLECULE
20R
   44    36     1     0     0
SMALL
bcc


@<TRIPOS>ATOM
      1 C1          0.4440   -6.6550   -0.2690 c1        1 20R     -0.099000
      2 C2         -0.7900   -6.0340   -0.0630 c1        1 20R     -0.099000
      3 C3         -1.2360   -5.0520   -0.9540 c1        1 20R     -0.099000
      4 C4         -0.4510   -4.6990   -2.0400 c1        1 20R     -0.815000
      5 C5          0.7970   -5.3300   -2.2460 c1        1 20R     -0.018000
      6 C6          1.2340   -6.2950   -1.3680 c1        1 20R     -0.099000
      7 S7         -1.0270   -3.5000   -3.2040 s4        1 20R      2.103800
      8 O8         -0.5110   -3.7910   -4.5630 o         1 20R     -0.543900
      9 O9         -2.4970   -3.6120   -3.4200 o         1 20R     -0.543900
     10 C10        -0.5650   -1.8160   -2.6610 c1        1 20R     -0.811000
     11 C11         0.7010   -1.3090   -2.9530 c2        1 20R     -0.020000
     12 C12         1.0650   -0.0410   -2.4960 c1        1 20R     -0.149000
     13 C13         0.1590    0.7140   -1.7480 c1        1 20R     -0.055000
     14 C14        -1.1020    0.2030   -1.4600 c1        1 20R     -0.140000
     15 C15        -1.4620   -1.0600   -1.9160 c1        1 20R     -0.020000
     16 C16         0.4850    2.1490   -1.3940 c3        1 20R     -0.002000
     17 N17         0.9110    2.2270   -0.0190 n         1 20R     -0.365000
     18 C18         1.2590    3.4740    0.5330 c2        1 20R      0.349000
     19 O19         1.7700    4.3360   -0.1750 o         1 20R     -0.369000
     20 C20         1.0430    3.7420    2.0410 c2        1 20R     -0.209000
     21 C21         0.1250    4.7290    2.2120 c2        1 20R      0.036000
     22 C22        -0.3160    5.0530    3.4970 c1        1 20R     -0.198000
     23 C23        -1.2610    5.9630    3.9520 c1        1 20R     -0.095000
     24 N24        -1.3450    5.8410    5.3110 n2        1 20R     -0.101000
     25 N25        -0.4520    4.8540    5.7090 n2        1 20R     -0.065000
     26 C27         0.1780    4.3730    4.5860 c1        1 20R     -0.040000
     27 N28         1.1150    3.3650    4.4070 n1        1 20R     -0.090000
     28 C29         1.5470    3.0470    3.1560 c1        1 20R     -0.025000
     29 H1          0.7740   -7.3800    0.3880 ha        1 20R      0.142750
     30 H2         -1.3000   -6.2680    0.6470 ha        1 20R      0.142750
     31 H3         -2.1290   -4.6010   -0.8080 ha        1 20R      0.142750
     32 H4          1.3740   -5.0700   -3.0440 ha        1 20R      0.152000
     33 H5          2.1220   -6.7410   -1.5150 ha        1 20R      0.142750
     34 H6          1.3190   -1.8290   -3.4670 ha        1 20R      0.152000
     35 H7          1.9770    0.3270   -2.7070 ha        1 20R      0.139000
     36 H8         -1.7410    0.7350   -0.9320 ha        1 20R      0.164000
     37 H9         -2.3450   -1.4150   -1.7130 ha        1 20R      0.154000
     38 H10        -0.3240    2.7120   -1.5190 h1        1 20R      0.115500
     39 H11         1.2080    2.4760   -1.9810 h1        1 20R      0.115500
     40 H12         0.8500    1.5070    0.5100 hn        1 20R      0.223000
     41 H13        -0.1580    5.3080    1.4120 ha        1 20R      0.161000
     42 H14        -1.8070    6.6200    3.3640 DU        1 20R      0.235000
     43 H15        -1.8250    6.3950    5.8740 DU        1 20R      0.235000
     44 H16         2.1890    2.3490    3.0350 ha        1 20R      0.165000
@<TRIPOS>BOND
     1    1    6 1   
     2    1   29 1   
     3    2    3 1   
     4    2   30 1   
     5    3   31 1   
     6    4    5 1   
     7    4    7 1   
     8    5   32 1   
     9    6   33 1   
    10    7    8 1   
    11    7    9 1   
    12   10   11 1   
    13   10   15 1   
    14   11   12 1   
    15   11   34 1   
    16   12   35 1   
    17   13   14 1   
    18   13   16 1   
    19   14   36 1   
    20   15   37 1   
    21   16   17 1   
    22   16   38 1   
    23   16   39 1   
    24   17   18 1   
    25   17   40 1   
    26   18   19 1   
    27   18   20 1   
    28   20   21 1   
    29   20   28 1   
    30   21   22 1   
    31   21   41 1   
    32   23   24 1   
    33   24   25 1   
    34   25   26 1   
    35   26   27 1   
    36   28   44 1   
@<TRIPOS>SUBSTRUCTURE
     1 20R         1 TEMP              0 ****  ****    0 ROOT
