@<TRIPOS>MOLECULE
20R
   45    48     1     0     0
SMALL
bcc


@<TRIPOS>ATOM
      1 C1          0.0860   -0.1870    0.1410 ca        1 20R     -0.052000
      2 C2          1.4820   -0.1700    0.1410 ca        1 20R     -0.153000
      3 C3          2.1740   -0.1400    1.3480 ca        1 20R     -0.016000
      4 C4          1.4910   -0.1200    2.5730 ca        1 20R     -0.408500
      5 C5          0.0880   -0.1470    2.5530 ca        1 20R     -0.016000
      6 C6         -0.6110   -0.1770    1.3500 ca        1 20R     -0.153000
      7 S7          2.3230   -0.1500    4.0140 sy        1 20R      1.436600
      8 O8          1.5200   -0.6680    5.0350 o         1 20R     -0.636800
      9 O9          3.6110   -0.6600    3.8270 o         1 20R     -0.636800
     10 C10         2.4850    1.5390    4.3040 ca        1 20R     -0.288500
     11 C11         3.6120    2.2310    3.8520 ca        1 20R     -0.019000
     12 C12         3.7770    3.5870    4.1320 ca        1 20R     -0.127500
     13 C13         2.8070    4.2620    4.8810 ca        1 20R     -0.139300
     14 C14         1.6780    3.5800    5.3430 ca        1 20R     -0.127500
     15 C15         1.5260    2.2240    5.0560 ca        1 20R     -0.019000
     16 C16         3.0060    5.6980    5.2340 c3        1 20R      0.167100
     17 N17         2.4040    6.5930    4.1930 n4        1 20R     -0.674800
     18 C18         2.5730    8.0710    4.4940 c         1 20R      0.578700
     19 O19         3.1710    8.3340    5.5330 o         1 20R     -0.449100
     20 C20         2.0150    8.9970    3.5300 ca        1 20R     -0.383900
     21 C21         2.1630   10.3610    3.7930 ca        1 20R      0.124000
     22 C22         1.6310   11.2630    2.8720 ca        1 20R     -0.300300
     23 C23         1.5520   12.6760    2.7420 cc        1 20R     -0.057100
     24 N24         0.8740   12.9050    1.5660 na        1 20R      0.077800
     25 N25         0.4970   11.8090    0.9050 nc        1 20R     -0.202400
     26 C27         0.9360   10.7450    1.6630 ca        1 20R      0.309300
     27 N28         0.8030    9.3820    1.4250 nb        1 20R     -0.572000
     28 C29         1.3250    8.5840    2.3270 ca        1 20R      0.434200
     29 H1         -0.4650   -0.2190   -0.8130 ha        1 20R      0.149000
     30 H2          2.0350   -0.1940   -0.8100 ha        1 20R      0.151000
     31 H3          3.2790   -0.1550    1.3490 ha        1 20R      0.154000
     32 H4         -0.4630   -0.1690    3.5100 ha        1 20R      0.154000
     33 H5         -1.7120   -0.2070    1.3540 ha        1 20R      0.151000
     34 H6          4.3930    1.6880    3.2880 ha        1 20R      0.175000
     35 H7          4.6820    4.1100    3.7870 ha        1 20R      0.145000
     36 H8          0.9230    4.0960    5.9570 ha        1 20R      0.145000
     37 H9          0.6490    1.6740    5.4490 ha        1 20R      0.175000
     38 H10         2.5210    5.9470    6.2230 hx        1 20R      0.119700
     39 H11         4.1040    5.9520    5.3120 hx        1 20R      0.119700
     40 H12         2.8400    6.3920    3.2850 hn        1 20R      0.456800
     41 H13         2.6850   10.7110    4.7020 ha        1 20R      0.175000
     42 H14         1.9230   13.4740    3.3910 h4        1 20R      0.212000
     43 H15         0.6460   13.8010    1.1750 hn        1 20R      0.356700
     44 H16         1.1920    7.5110    2.0910 h4        1 20R      0.011100
     45 H172        1.4010    6.3880    4.1130 hn        1 20R      0.456800
@<TRIPOS>BOND
     1    1    2 ar  
     2    1    6 ar  
     3    1   29 1   
     4    2    3 ar  
     5    2   30 1   
     6    3    4 ar  
     7    3   31 1   
     8    4    5 ar  
     9    4    7 1   
    10    5    6 ar  
    11    5   32 1   
    12    6   33 1   
    13    7    8 2   
    14    7    9 2   
    15    7   10 1   
    16   10   11 ar  
    17   10   15 ar  
    18   11   12 ar  
    19   11   34 1   
    20   12   13 ar  
    21   12   35 1   
    22   13   14 ar  
    23   13   16 1   
    24   14   15 ar  
    25   14   36 1   
    26   15   37 1   
    27   16   17 1   
    28   16   38 1   
    29   16   39 1   
    30   17   18 1   
    31   17   40 1   
    32   17   45 1   
    33   18   19 2   
    34   18   20 1   
    35   20   21 ar  
    36   20   28 ar  
    37   21   22 ar  
    38   21   41 1   
    39   22   23 2   
    40   22   26 ar  
    41   23   24 1   
    42   23   42 1   
    43   24   25 1   
    44   24   43 1   
    45   25   26 2   
    46   26   27 ar  
    47   27   28 ar  
    48   28   44 1   
@<TRIPOS>SUBSTRUCTURE
     1 20R         1 TEMP              0 ****  ****    0 ROOT
