@<TRIPOS>MOLECULE
20R
   44    47     1     0     0
SMALL
bcc


@<TRIPOS>ATOM
      1 C1         -4.0140    3.7860    0.0040 ca        1 20R     -0.067000
      2 C2         -4.5050    2.9930   -1.0330 ca        1 20R     -0.155500
      3 C3         -4.6600    1.6220   -0.8430 ca        1 20R     -0.017500
      4 C4         -4.3250    1.0220    0.3770 ca        1 20R     -0.372500
      5 C5         -3.8430    1.8340    1.4110 ca        1 20R     -0.017500
      6 C6         -3.6850    3.2050    1.2300 ca        1 20R     -0.155500
      7 S7         -4.5380   -0.6290    0.6100 sy        1 20R      1.440600
      8 O8         -4.7370   -0.8850    1.9760 o         1 20R     -0.656800
      9 O9         -5.5060   -1.1050   -0.2900 o         1 20R     -0.656800
     10 C10        -3.0250   -1.2040    0.1500 ca        1 20R     -0.366500
     11 C11        -2.7830   -1.6070   -1.1690 ca        1 20R     -0.020000
     12 C12        -1.5380   -2.0990   -1.5520 ca        1 20R     -0.144500
     13 C13        -0.5090   -2.2000   -0.6120 ca        1 20R     -0.062300
     14 C14        -0.7400   -1.8130    0.7130 ca        1 20R     -0.144500
     15 C15        -1.9880   -1.3220    1.0850 ca        1 20R     -0.020000
     16 C16         0.8340   -2.7540   -1.0030 c3        1 20R      0.123300
     17 N17         1.9000   -1.7910   -1.0230 n         1 20R     -0.557900
     18 C18         2.6720   -1.5300    0.0970 c         1 20R      0.677700
     19 O19         2.5710   -2.2330    1.1250 o         1 20R     -0.608100
     20 C20         3.6740   -0.4360    0.0060 ca        1 20R     -0.291900
     21 C21         4.8880   -0.5880    0.6370 ca        1 20R      0.037000
     22 C22         5.8150    0.4670    0.5350 ca        1 20R     -0.261300
     23 C23         7.1250    0.7260    0.9930 cc        1 20R     -0.122100
     24 N24         7.4480    1.9860    0.5190 na        1 20R      0.055800
     25 N25         6.4940    2.5780   -0.1950 nc        1 20R     -0.244400
     26 C27         5.4390    1.6810   -0.2250 ca        1 20R      0.287300
     27 N28         4.1970    1.8170   -0.8310 nb        1 20R     -0.615000
     28 C29         3.3840    0.7900   -0.7000 ca        1 20R      0.437200
     29 H1         -3.8890    4.8700   -0.1430 ha        1 20R      0.137000
     30 H2         -4.7740    3.4480   -1.9970 ha        1 20R      0.141500
     31 H3         -5.0660    0.9950   -1.6570 ha        1 20R      0.152000
     32 H4         -3.6000    1.3760    2.3860 ha        1 20R      0.152000
     33 H5         -3.3060    3.8290    2.0530 ha        1 20R      0.141500
     34 H6         -3.6010   -1.5440   -1.9090 ha        1 20R      0.153500
     35 H7         -1.3710   -2.4130   -2.5930 ha        1 20R      0.151500
     36 H8          0.0710   -1.9070    1.4550 ha        1 20R      0.151500
     37 H9         -2.1740   -1.0350    2.1350 ha        1 20R      0.153500
     38 H10         1.1060   -3.5720   -0.2700 h1        1 20R      0.075200
     39 H11         0.7660   -3.2090   -2.0340 h1        1 20R      0.075200
     40 H12         1.9030   -1.1360   -1.7680 hn        1 20R      0.310500
     41 H13         5.1260   -1.5020    1.2060 ha        1 20R      0.162000
     42 H14         7.8060    0.1230    1.5930 h4        1 20R      0.190000
     43 H15         8.3070    2.4690    0.6670 hn        1 20R      0.330700
     44 H16         2.3890    0.9260   -1.1680 h4        1 20R      0.022100
@<TRIPOS>BOND
     1    1    2 ar  
     2    1    6 ar  
     3    1   29 1   
     4    2    3 ar  
     5    2   30 1   
     6    3    4 ar  
     7    3   31 1   
     8    4    5 ar  
     9    4    7 1   
    10    5    6 ar  
    11    5   32 1   
    12    6   33 1   
    13    7    8 2   
    14    7    9 2   
    15    7   10 1   
    16   10   11 ar  
    17   10   15 ar  
    18   11   12 ar  
    19   11   34 1   
    20   12   13 ar  
    21   12   35 1   
    22   13   14 ar  
    23   13   16 1   
    24   14   15 ar  
    25   14   36 1   
    26   15   37 1   
    27   16   17 1   
    28   16   38 1   
    29   16   39 1   
    30   17   18 1   
    31   17   40 1   
    32   18   19 2   
    33   18   20 1   
    34   20   21 ar  
    35   20   28 ar  
    36   21   22 ar  
    37   21   41 1   
    38   22   23 2   
    39   22   26 ar  
    40   23   24 1   
    41   23   42 1   
    42   24   25 1   
    43   24   43 1   
    44   25   26 2   
    45   26   27 ar  
    46   27   28 ar  
    47   28   44 1   
@<TRIPOS>SUBSTRUCTURE
     1 20R         1 TEMP              0 ****  ****    0 ROOT
