@<TRIPOS>MOLECULE
20R
   45    48     1     0     0
SMALL
bcc


@<TRIPOS>ATOM
      1 C1          0.0780   -0.1800    0.1370 ca        1 20R     -0.052000
      2 C2          1.4740   -0.1630    0.1360 ca        1 20R     -0.153000
      3 C3          2.1680   -0.1350    1.3410 ca        1 20R     -0.016000
      4 C4          1.4870   -0.1180    2.5670 ca        1 20R     -0.408500
      5 C5          0.0840   -0.1450    2.5500 ca        1 20R     -0.016000
      6 C6         -0.6170   -0.1730    1.3480 ca        1 20R     -0.153000
      7 S7          2.3210   -0.1510    4.0060 sy        1 20R      1.436600
      8 O8          1.5200   -0.6710    5.0270 o         1 20R     -0.636800
      9 O9          3.6100   -0.6610    3.8160 o         1 20R     -0.636800
     10 C10         2.4830    1.5380    4.3000 ca        1 20R     -0.288500
     11 C11         3.6090    2.2310    3.8470 ca        1 20R     -0.019000
     12 C12         3.7750    3.5860    4.1290 ca        1 20R     -0.127500
     13 C13         2.8070    4.2590    4.8810 ca        1 20R     -0.139300
     14 C14         1.6780    3.5760    5.3450 ca        1 20R     -0.127500
     15 C15         1.5260    2.2200    5.0550 ca        1 20R     -0.019000
     16 C16         3.0060    5.6940    5.2370 c3        1 20R      0.167100
     17 N17         2.4040    6.5910    4.1960 ny        1 20R     -0.674800
     18 C18         2.5740    8.0690    4.4990 c         1 20R      0.578700
     19 O19         3.1700    8.3300    5.5390 o         1 20R     -0.449100
     20 C20         2.0180    8.9960    3.5340 ca        1 20R     -0.383900
     21 C21         2.1680   10.3600    3.7980 ca        1 20R      0.124000
     22 C22         1.6380   11.2630    2.8780 ca        1 20R     -0.300300
     23 C23         1.5610   12.6760    2.7480 cc        1 20R     -0.057100
     24 N24         0.8850   12.9070    1.5720 na        1 20R      0.077800
     25 N25         0.5050   11.8110    0.9100 nc        1 20R     -0.202400
     26 C27         0.9430   10.7470    1.6690 ca        1 20R      0.309300
     27 N28         0.8070    9.3840    1.4300 nb        1 20R     -0.572000
     28 C29         1.3270    8.5850    2.3320 ca        1 20R      0.434200
     29 H1         -0.4750   -0.2100   -0.8160 ha        1 20R      0.149000
     30 H2          2.0250   -0.1850   -0.8170 ha        1 20R      0.151000
     31 H3          3.2730   -0.1510    1.3390 ha        1 20R      0.154000
     32 H4         -0.4660   -0.1690    3.5080 ha        1 20R      0.154000
     33 H5         -1.7180   -0.2030    1.3530 ha        1 20R      0.151000
     34 H6          4.3900    1.6880    3.2800 ha        1 20R      0.175000
     35 H7          4.6790    4.1090    3.7830 ha        1 20R      0.145000
     36 H8          0.9250    4.0910    5.9600 ha        1 20R      0.145000
     37 H9          0.6500    1.6700    5.4480 ha        1 20R      0.175000
     38 H10         2.5200    5.9420    6.2250 hx        1 20R      0.119700
     39 H11         4.1030    5.9480    5.3140 hx        1 20R      0.119700
     40 H12         2.8390    6.3900    3.2880 hn        1 20R      0.456800
     41 H13         2.6910   10.7090    4.7070 ha        1 20R      0.175000
     42 H14         1.9340   13.4730    3.3970 h4        1 20R      0.212000
     43 H15         0.6590   13.8030    1.1810 hn        1 20R      0.356700
     44 H16         1.1920    7.5120    2.0950 h4        1 20R      0.011100
     45 H172        1.4010    6.3860    4.1160 hn        1 20R      0.456800
@<TRIPOS>BOND
     1    1    2 ar  
     2    1    6 ar  
     3    1   29 1   
     4    2    3 ar  
     5    2   30 1   
     6    3    4 ar  
     7    3   31 1   
     8    4    5 ar  
     9    4    7 1   
    10    5    6 ar  
    11    5   32 1   
    12    6   33 1   
    13    7    8 2   
    14    7    9 2   
    15    7   10 1   
    16   10   11 ar  
    17   10   15 ar  
    18   11   12 ar  
    19   11   34 1   
    20   12   13 ar  
    21   12   35 1   
    22   13   14 ar  
    23   13   16 1   
    24   14   15 ar  
    25   14   36 1   
    26   15   37 1   
    27   16   17 1   
    28   16   38 1   
    29   16   39 1   
    30   17   18 1   
    31   17   40 1   
    32   17   45 1   
    33   18   19 2   
    34   18   20 1   
    35   20   21 ar  
    36   20   28 ar  
    37   21   22 ar  
    38   21   41 1   
    39   22   23 2   
    40   22   26 ar  
    41   23   24 1   
    42   23   42 1   
    43   24   25 1   
    44   24   43 1   
    45   25   26 2   
    46   26   27 ar  
    47   27   28 ar  
    48   28   44 1   
@<TRIPOS>SUBSTRUCTURE
     1 20R         1 TEMP              0 ****  ****    0 ROOT
