@<TRIPOS>MOLECULE
20S
   68    68     1     0     0
SMALL
bcc


@<TRIPOS>ATOM
      1 C4          1.1730    0.2440    2.2160 c1        1 20S      0.326000
      2 C7          2.7050   -0.0070    2.3890 c2        1 20S     -0.156000
      3 C8          3.1870    0.6620    3.7000 c3        1 20S     -0.152000
      4 C9          4.6100    1.1750    3.5170 c3        1 20S     -0.168000
      5 C10         5.2350    1.4560    4.8810 c3        1 20S     -0.156000
      6 C11         6.2580    2.5710    4.7480 c3        1 20S     -0.158000
      7 C12         6.9170    2.8190    6.1060 c3        1 20S     -0.159000
      8 C1         -2.7240    0.8330   -4.9040 c3        1 20S     -0.002000
      9 C2         -4.2410    1.0680   -4.5740 c3        1 20S     -0.020000
     10 C3         -4.5870    0.0490   -3.4920 c3        1 20S      0.020000
     11 C13        -3.5460   -0.7850   -3.4590 c3        1 20S      0.170000
     12 O2         -2.2870    0.0520   -3.9620 os        1 20S     -0.302000
     13 O4         -4.9850    0.8610   -5.6550 oh        1 20S     -0.324000
     14 C17        -1.9600    2.1680   -4.8940 c3        1 20S     -0.035000
     15 O1         -1.7270    2.5980   -6.2550 oh        1 20S     -0.355000
     16 C18        -3.7890   -1.9650   -4.3810 c3        1 20S     -0.032000
     17 O3         -4.4920   -1.5330   -5.5130 oh        1 20S     -0.315000
     18 O5         -4.7450    0.7270   -2.1720 oh        1 20S     -0.299000
     19 C21        -2.3400   -2.2450   -2.0800 c3        1 20S      0.128000
     20 C24        -2.8100   -3.3880   -1.2200 c3        1 20S     -0.018000
     21 C27        -2.8620   -3.0260    0.2240 c3        1 20S     -0.042000
     22 C16        -1.5850   -2.4390    0.7030 c3        1 20S     -0.019000
     23 C29        -1.1120   -1.2940   -0.1730 c3        1 20S      0.013000
     24 O9         -4.1190   -3.7780   -1.6430 oh        1 20S     -0.311000
     25 O11        -3.1540   -4.2270    1.0060 oh        1 20S     -0.315000
     26 O13        -1.7710   -1.9530    2.0400 oh        1 20S     -0.325000
     27 O15        -1.0660   -1.6540   -1.5920 os        1 20S     -0.277000
     28 O6         -3.3250   -1.2530   -2.0880 os        1 20S     -0.310000
     29 C32         0.2850   -0.8720    0.2790 c3        1 20S     -0.014000
     30 O17         0.3260   -0.8040    1.7070 os        1 20S     -0.266000
     31 C31         7.6740    4.1390    6.0720 c3        1 20S     -0.211000
     32 O7          0.6740    1.2800    2.6400 o         1 20S     -0.385000
     33 H71         2.8820   -0.9860    2.4300 ha        1 20S      0.118000
     34 H72         3.1840    0.3780    1.6320 ha        1 20S      0.118000
     35 H81         2.5970    1.4090    3.9190 hc        1 20S      0.091000
     36 H82         3.1670    0.0110    4.4220 hc        1 20S      0.091000
     37 H91         5.1530    0.4850    3.0350 hc        1 20S      0.091000
     38 H92         4.5920    2.0070    2.9880 hc        1 20S      0.091000
     39 H101        4.5280    1.7320    5.5200 hc        1 20S      0.078500
     40 H102        5.6720    0.6510    5.2100 hc        1 20S      0.078500
     41 H4          6.9410    2.3130    4.0930 hc        1 20S      0.080500
     42 H11         5.8100    3.3920    4.4470 hc        1 20S      0.080500
     43 H5          7.5470    2.0830    6.3060 hc        1 20S      0.077500
     44 H12         6.2120    2.8570    6.8160 hc        1 20S      0.077500
     45 H1         -2.6330    0.3990   -5.7680 h1        1 20S      0.116000
     46 H2         -4.3760    1.9730   -4.2390 h1        1 20S      0.115000
     47 H3         -5.4190   -0.4420   -3.7340 h1        1 20S      0.126000
     48 HO4        -5.4590    1.5780   -5.8250 ho        1 20S      0.225000
     49 H171       -2.4920    2.8460   -4.4200 h1        1 20S      0.094500
     50 H172       -1.1040    2.0500   -4.4390 h1        1 20S      0.094500
     51 HO1        -1.0650    3.2120   -6.2690 ho        1 20S      0.230000
     52 H181       -2.9260   -2.3500   -4.6590 h1        1 20S      0.107000
     53 H182       -4.3210   -2.6580   -3.9030 h1        1 20S      0.107000
     54 HO3        -4.6620   -2.2120   -6.0240 ho        1 20S      0.214000
     55 HO5        -5.6010    0.9650   -2.0580 ho        1 20S      0.214000
     56 H21        -2.2070   -2.5750   -3.0100 h2        1 20S      0.149000
     57 H24        -2.1810   -4.1670   -1.3390 h1        1 20S      0.126000
     58 H27        -3.5730   -2.3820    0.3600 h1        1 20S      0.147000
     59 H16        -0.9050   -3.1300    0.7110 h1        1 20S      0.094000
     60 H29        -1.7250   -0.5330   -0.0590 h1        1 20S      0.128000
     61 HO9        -4.1400   -4.6470   -1.7650 ho        1 20S      0.218000
     62 HO11       -2.5970   -4.8640    0.7840 ho        1 20S      0.204000
     63 HO13       -1.6690   -2.6270    2.6180 ho        1 20S      0.222000
     64 H321        0.9450   -1.5320   -0.0370 h1        1 20S      0.123500
     65 H322        0.5020    0.0230   -0.1010 h1        1 20S      0.123500
     66 H311        7.0410    4.8750    5.9800 hc        1 20S      0.072333
     67 H312        8.1760    4.2450    6.8970 hc        1 20S      0.072333
     68 H313        8.2920    4.1420    5.3110 hc        1 20S      0.072333
@<TRIPOS>BOND
     1    1   30 1   
     2    1   32 1   
     3    2    3 1   
     4    2   33 1   
     5    2   34 1   
     6    3    4 1   
     7    3   35 1   
     8    3   36 1   
     9    4    5 1   
    10    4   37 1   
    11    4   38 1   
    12    5    6 1   
    13    5   39 1   
    14    5   40 1   
    15    6    7 1   
    16    6   41 1   
    17    6   42 1   
    18    7   31 1   
    19    7   43 1   
    20    7   44 1   
    21    8    9 1   
    22    8   12 1   
    23    8   14 1   
    24    8   45 1   
    25    9   10 1   
    26    9   13 1   
    27    9   46 1   
    28   10   11 1   
    29   10   18 1   
    30   10   47 1   
    31   11   12 1   
    32   11   16 1   
    33   11   28 1   
    34   13   48 1   
    35   14   15 1   
    36   14   49 1   
    37   14   50 1   
    38   15   51 1   
    39   16   17 1   
    40   16   52 1   
    41   16   53 1   
    42   17   54 1   
    43   18   55 1   
    44   19   20 1   
    45   19   27 1   
    46   19   28 1   
    47   19   56 1   
    48   20   21 1   
    49   20   24 1   
    50   20   57 1   
    51   21   22 1   
    52   21   25 1   
    53   21   58 1   
    54   22   23 1   
    55   22   26 1   
    56   22   59 1   
    57   23   27 1   
    58   23   29 1   
    59   23   60 1   
    60   24   61 1   
    61   25   62 1   
    62   26   63 1   
    63   29   30 1   
    64   29   64 1   
    65   29   65 1   
    66   31   66 1   
    67   31   67 1   
    68   31   68 1   
@<TRIPOS>SUBSTRUCTURE
     1 20S         1 TEMP              0 ****  ****    0 ROOT
