@<TRIPOS>MOLECULE
20S
   68    65     1     0     0
SMALL
bcc


@<TRIPOS>ATOM
      1 C4         -0.1820    0.8770    0.0120 c2        1 20S      0.322000
      2 C7          1.0110    0.0060    0.2150 c3        1 20S     -0.171000
      3 C8          1.8510    0.4820    1.3810 c3        1 20S     -0.158000
      4 C9          3.0880   -0.3780    1.5280 c3        1 20S     -0.161000
      5 C10         3.9500    0.0990    2.6780 c3        1 20S     -0.157000
      6 C11         5.1810   -0.7560    2.8350 c3        1 20S     -0.215000
      7 C12         7.3790    0.3390    5.6280 c1        1 20S     -0.218500
      8 C1          1.1630   -0.4090   -5.0500 c3        1 20S      0.031000
      9 C2          0.8680    0.7440   -4.0710 c3        1 20S     -0.100000
     10 C3          0.6850    2.0100   -4.8600 c1        1 20S     -0.033000
     11 C13        -0.9950   -0.3980   -6.1220 c3        1 20S      0.115000
     12 O2         -0.0390   -1.1140   -5.3690 os        1 20S     -0.299000
     13 O4          1.9010    0.7710   -3.0930 oh        1 20S     -0.330000
     14 C18        -1.3600   -1.2020   -7.3800 c3        1 20S     -0.037000
     15 O3         -1.7200   -2.5340   -7.1100 oh        1 20S     -0.324000
     16 O5          1.2350    3.0580   -4.2810 oh        1 20S     -0.233000
     17 C21        -2.4560   -1.2370   -4.3740 c3        1 20S      0.153000
     18 C24        -3.9810   -1.4770   -4.3990 c3        1 20S      0.012000
     19 C27        -4.7430   -0.2370   -3.9100 c3        1 20S     -0.002000
     20 C16        -4.2090    0.1650   -2.5270 c3        1 20S      0.004000
     21 C29        -2.6940    0.4030   -2.6400 c3        1 20S     -0.097000
     22 O9         -4.3400   -1.8100   -5.7260 oh        1 20S     -0.336000
     23 O11        -6.1110   -0.6030   -3.8500 oh        1 20S     -0.339000
     24 O13        -4.8920    1.3490   -2.1590 oh        1 20S     -0.336000
     25 O15        -2.0310   -0.7720   -3.1040 os        1 20S     -0.275000
     26 O6         -2.1070   -0.1940   -5.2600 os        1 20S     -0.320000
     27 C32        -2.1530    0.8220   -1.2980 c1        1 20S      0.059000
     28 O17        -0.8790    0.4860   -1.1580 os        1 20S     -0.237000
     29 C31         8.5010    0.5140    5.2520 c1        1 20S     -0.218500
     30 O7         -0.5940    1.8610    0.6040 o         1 20S     -0.260000
     31 H71         3.7660    0.2200   -1.6720 ha        1 20S      0.003500
     32 H72         3.6300   -0.3550   -2.0040 ha        1 20S      0.003500
     33 H81         0.6570   -1.0460    0.3830 hc        1 20S      0.137500
     34 H82         1.6140    0.0080   -0.7400 hc        1 20S      0.137500
     35 H91         1.2440    0.4460    2.3240 hc        1 20S      0.095500
     36 H92         2.1460    1.5520    1.2220 hc        1 20S      0.095500
     37 H101        3.6820   -0.3490    0.5750 hc        1 20S      0.085000
     38 H102        2.7890   -1.4450    1.7000 hc        1 20S      0.085000
     39 H4          3.3510    0.0780    3.6270 hc        1 20S      0.080000
     40 H11         4.2510    1.1660    2.5020 hc        1 20S      0.080000
     41 H5          4.9010   -1.8180    3.0400 hc        1 20S      0.075667
     42 H12         5.7990   -0.7310    1.9050 hc        1 20S      0.075667
     43 H1          1.5860   -1.9210   -3.5320 h1        1 20S      0.104000
     44 H2         -0.1270    0.5280   -3.5600 h1        1 20S      0.151000
     45 H3         -0.6630    0.6470   -6.3920 h2        1 20S      0.146000
     46 HO4         1.8120    1.6040   -2.6120 ho        1 20S      0.207000
     47 HO1         1.5730   -2.8650   -5.6670 ho        1 20S      0.216000
     48 H181       -2.1870   -0.6600   -7.9120 h1        1 20S      0.099000
     49 H182       -0.4510   -1.2740   -8.0360 h1        1 20S      0.099000
     50 HO3        -2.5950   -2.5190   -6.6980 ho        1 20S      0.220000
     51 HO5         1.0590    3.8370   -4.8400 ho        1 20S      0.264000
     52 H21        -1.8830   -2.1890   -4.5500 h2        1 20S      0.160000
     53 H24        -4.2100   -2.3470   -3.7200 h1        1 20S      0.103000
     54 H27        -4.6080    0.6120   -4.6370 h1        1 20S      0.115000
     55 H16        -4.4210   -0.6460   -1.7770 h1        1 20S      0.101000
     56 H29        -2.5120    1.2570   -3.3600 h1        1 20S      0.134000
     57 HO9        -5.3060   -1.8200   -5.7570 ho        1 20S      0.233000
     58 HO11       -6.5750    0.1370   -3.4350 ho        1 20S      0.229000
     59 HO13       -4.4720    1.6720   -1.3490 ho        1 20S      0.234000
     60 H321       -1.6030    3.1420   -1.7930 ha        1 20S      0.003500
     61 H322       -1.6170    3.2090   -1.1180 ha        1 20S      0.003500
     62 H311        6.3860    0.1850    5.9660 ha        1 20S      0.219000
     63 H312        5.8060   -0.3850    3.6840 hc        1 20S      0.075667
     64 H313        9.4950    0.6680    4.9180 ha        1 20S      0.219000
     65 C17         2.0810   -1.4710   -4.4320 c3        1 20S     -0.005000
     66 O1          2.4040   -2.4660   -5.3780 oh        1 20S     -0.329000
     67 H171        1.6190   -0.0090   -5.9970 h1        1 20S      0.102000
     68 H172        3.0580   -1.0020   -4.1390 h1        1 20S      0.104000
@<TRIPOS>BOND
     1    1    2 1   
     2    1   28 1   
     3    1   30 1   
     4    2    3 1   
     5    2   33 1   
     6    2   34 1   
     7    3    4 1   
     8    3   35 1   
     9    3   36 1   
    10    4    5 1   
    11    4   37 1   
    12    4   38 1   
    13    5    6 1   
    14    5   39 1   
    15    5   40 1   
    16    6   41 1   
    17    6   42 1   
    18    6   63 1   
    19    7   29 1   
    20    7   62 1   
    21    8    9 1   
    22    8   12 1   
    23    8   65 1   
    24    8   67 1   
    25    9   10 1   
    26    9   13 1   
    27    9   44 1   
    28   10   16 1   
    29   11   12 1   
    30   11   14 1   
    31   11   26 1   
    32   11   45 1   
    33   13   46 1   
    34   14   15 1   
    35   14   48 1   
    36   14   49 1   
    37   15   50 1   
    38   16   51 1   
    39   17   18 1   
    40   17   25 1   
    41   17   26 1   
    42   17   52 1   
    43   18   19 1   
    44   18   22 1   
    45   18   53 1   
    46   19   20 1   
    47   19   23 1   
    48   19   54 1   
    49   20   21 1   
    50   20   24 1   
    51   20   55 1   
    52   21   25 1   
    53   21   27 1   
    54   21   56 1   
    55   22   57 1   
    56   23   58 1   
    57   24   59 1   
    58   27   28 1   
    59   29   64 1   
    60   31   32 1   
    61   43   65 1   
    62   47   66 1   
    63   60   61 1   
    64   65   66 1   
    65   65   68 1   
@<TRIPOS>SUBSTRUCTURE
     1 20S         1 TEMP              0 ****  ****    0 ROOT
