@<TRIPOS>MOLECULE
20S
   68    69     1     0     0
SMALL
bcc


@<TRIPOS>ATOM
      1 C4          2.1600   -2.1460   -0.0570 c         1 20S      0.635100
      2 C7          3.2130   -1.1690    0.3620 c3        1 20S     -0.138400
      3 C8          4.5340   -1.4650   -0.3150 c3        1 20S     -0.076400
      4 C9          5.6140   -0.5300    0.1870 c3        1 20S     -0.079400
      5 C10         6.9360   -0.8100   -0.4950 c3        1 20S     -0.079400
      6 C11         8.0200    0.1190    0.0060 c3        1 20S     -0.079400
      7 C12         9.3430   -0.1590   -0.6750 c3        1 20S     -0.080400
      8 C1         -0.4470    2.7230    0.2250 c3        1 20S      0.075100
      9 C2         -1.3200    3.0270    1.4580 c3        1 20S      0.081100
     10 C3         -2.7780    2.9110    0.9560 c3        1 20S      0.134100
     11 C13        -2.6420    2.0980   -0.3650 c3        1 20S      0.311600
     12 O2         -1.3140    2.2940   -0.8410 os        1 20S     -0.437600
     13 O4         -1.1480    4.3500    1.9290 oh        1 20S     -0.594800
     14 C18        -3.6270    2.5490   -1.4530 c3        1 20S      0.117400
     15 O3         -3.1640    2.2690   -2.7540 oh        1 20S     -0.591800
     16 O5         -3.6120    2.2000    1.8410 oh        1 20S     -0.577800
     17 C21        -2.9210   -0.2340   -1.0060 c3        1 20S      0.303900
     18 C24        -4.1850   -1.0230   -0.6030 c3        1 20S      0.083100
     19 C27        -3.9180   -1.9520    0.5880 c3        1 20S      0.075100
     20 C16        -2.6350   -2.7650    0.3640 c3        1 20S      0.125100
     21 C29        -1.4730   -1.7860    0.1230 c3        1 20S      0.140100
     22 O9         -5.2360   -0.1300   -0.2850 oh        1 20S     -0.604800
     23 O11        -4.9700   -2.8900    0.7470 oh        1 20S     -0.607800
     24 O13        -2.3180   -3.5260    1.5150 oh        1 20S     -0.596800
     25 O15        -1.7410   -0.9980   -1.0410 os        1 20S     -0.409600
     26 O6         -2.7070    0.7380    0.0090 os        1 20S     -0.453600
     27 C32        -0.1870   -2.5550   -0.1750 c3        1 20S      0.143400
     28 O17         0.8930   -1.6830    0.1910 os        1 20S     -0.449900
     29 C31        10.4250    0.7640   -0.1790 c3        1 20S     -0.092100
     30 O7          2.2800   -3.2620   -0.5640 o         1 20S     -0.542000
     31 H71         3.3190   -1.2400    1.4770 hc        1 20S      0.087200
     32 H72         2.8630   -0.1270    0.1170 hc        1 20S      0.087200
     33 H81         4.4200   -1.3540   -1.4250 hc        1 20S      0.056200
     34 H82         4.8260   -2.5310   -0.1200 hc        1 20S      0.056200
     35 H91         5.7310   -0.6490    1.2960 hc        1 20S      0.040700
     36 H92         5.3100    0.5330   -0.0030 hc        1 20S      0.040700
     37 H101        6.8200   -0.6890   -1.6050 hc        1 20S      0.042700
     38 H102        7.2370   -1.8750   -0.3090 hc        1 20S      0.042700
     39 H4          7.7180    1.1840   -0.1790 hc        1 20S      0.039200
     40 H11         8.1360   -0.0020    1.1160 hc        1 20S      0.039200
     41 H5          9.6410   -1.2240   -0.4900 hc        1 20S      0.039700
     42 H12         9.2230   -0.0380   -1.7850 hc        1 20S      0.039700
     43 H1          0.0620    3.6500   -0.1570 h1        1 20S      0.084700
     44 H2         -1.1280    2.2920    2.2850 h1        1 20S      0.070700
     45 H3         -3.2000    3.9320    0.7500 h1        1 20S      0.075700
     46 HO4        -0.2190    4.4450    2.1730 ho        1 20S      0.414000
     47 HO1         1.0790    1.2740   -1.3360 ho        1 20S      0.419000
     48 H181       -4.5880    1.9730   -1.3490 h1        1 20S      0.072700
     49 H182       -3.8170    3.6500   -1.3410 h1        1 20S      0.072700
     50 HO3        -2.2950    2.6830   -2.8530 ho        1 20S      0.422000
     51 HO5        -3.6280    2.7070    2.6640 ho        1 20S      0.417000
     52 H21        -3.0100    0.2040   -2.0410 h2        1 20S      0.125700
     53 H24        -4.5590   -1.6120   -1.4850 h1        1 20S      0.101700
     54 H27        -3.8190   -1.3400    1.5300 h1        1 20S      0.065700
     55 H16        -2.7660   -3.4480   -0.5200 h1        1 20S      0.061700
     56 H29        -1.3410   -1.1120    1.0130 h1        1 20S      0.082700
     57 HO9        -4.9150    0.4530    0.4230 ho        1 20S      0.427000
     58 HO11       -5.7940   -2.3850    0.7350 ho        1 20S      0.423000
     59 HO13       -3.1070   -4.0450    1.7250 ho        1 20S      0.426000
     60 H321       -0.1040   -2.8130   -1.2620 h1        1 20S      0.076200
     61 H322       -0.1360   -3.4830    0.4530 h1        1 20S      0.076200
     62 H311       10.1570    1.8300   -0.3770 hc        1 20S      0.032033
     63 H312       10.5760    0.6400    0.9210 hc        1 20S      0.032033
     64 H313       11.3910    0.5420   -0.6940 hc        1 20S      0.032033
     65 C17         0.5780    1.6220    0.4920 c3        1 20S      0.115400
     66 O1          1.5380    1.5830   -0.5440 oh        1 20S     -0.603800
     67 H171        1.1620    1.8560    1.4210 h1        1 20S      0.066200
     68 H172        0.0630    0.6260    0.5900 h1        1 20S      0.066200
@<TRIPOS>BOND
     1    1    2 1   
     2    1   28 1   
     3    1   30 2   
     4    2    3 1   
     5    2   31 1   
     6    2   32 1   
     7    3    4 1   
     8    3   33 1   
     9    3   34 1   
    10    4    5 1   
    11    4   35 1   
    12    4   36 1   
    13    5    6 1   
    14    5   37 1   
    15    5   38 1   
    16    6    7 1   
    17    6   39 1   
    18    6   40 1   
    19    7   29 1   
    20    7   41 1   
    21    7   42 1   
    22    8    9 1   
    23    8   12 1   
    24    8   43 1   
    25    8   65 1   
    26    9   10 1   
    27    9   13 1   
    28    9   44 1   
    29   10   11 1   
    30   10   16 1   
    31   10   45 1   
    32   11   12 1   
    33   11   14 1   
    34   11   26 1   
    35   13   46 1   
    36   14   15 1   
    37   14   48 1   
    38   14   49 1   
    39   15   50 1   
    40   16   51 1   
    41   17   18 1   
    42   17   25 1   
    43   17   26 1   
    44   17   52 1   
    45   18   19 1   
    46   18   22 1   
    47   18   53 1   
    48   19   20 1   
    49   19   23 1   
    50   19   54 1   
    51   20   21 1   
    52   20   24 1   
    53   20   55 1   
    54   21   25 1   
    55   21   27 1   
    56   21   56 1   
    57   22   57 1   
    58   23   58 1   
    59   24   59 1   
    60   27   28 1   
    61   27   60 1   
    62   27   61 1   
    63   29   62 1   
    64   29   63 1   
    65   29   64 1   
    66   47   66 1   
    67   65   66 1   
    68   65   67 1   
    69   65   68 1   
@<TRIPOS>SUBSTRUCTURE
     1 20S         1 TEMP              0 ****  ****    0 ROOT
