@<TRIPOS>MOLECULE
20S
   68    66     1     0     0
SMALL
bcc


@<TRIPOS>ATOM
      1 C4         -0.3500   -0.1480    0.1210 c2        1 20S      0.313000
      2 C7          1.1100    0.1750    0.0770 c3        1 20S     -0.159000
      3 C8          1.7740   -0.1130    1.4070 c3        1 20S     -0.158000
      4 C9          3.2720    0.0820    1.3080 c3        1 20S     -0.160000
      5 C10         3.9510   -0.2350    2.6240 c3        1 20S     -0.158000
      6 C11         5.4430   -0.0410    2.5340 c3        1 20S     -0.214000
      7 C12         7.2000   -0.8880    5.7200 c1        1 20S     -0.218500
      8 C1          1.1650   -0.3720   -4.8800 c1        1 20S      0.085000
      9 C2          1.0900    0.8140   -5.8410 c3        1 20S     -0.085000
     10 C3         -0.3390    0.7370   -6.4650 c3        1 20S     -0.025000
     11 C13        -1.0030   -0.4730   -5.7440 c3        1 20S      0.069000
     12 O2          0.0400   -1.0150   -4.8480 os        1 20S     -0.146000
     13 O4          2.0730    0.6730   -6.8370 oh        1 20S     -0.286000
     14 C18        -1.4680   -1.5910   -6.6810 c3        1 20S     -0.039000
     15 O3         -1.4760   -2.8520   -6.0550 oh        1 20S     -0.315000
     16 O5         -0.9780    1.9650   -6.2090 oh        1 20S     -0.312000
     17 C21        -2.8630   -0.8500   -4.2360 c3        1 20S      0.152000
     18 C24        -4.3050   -0.4170   -4.5750 c3        1 20S      0.008000
     19 C27        -4.5780    0.9880   -4.0200 c3        1 20S     -0.035000
     20 C16        -4.2450    1.0260   -2.5210 c3        1 20S     -0.034000
     21 C29        -2.7920    0.5770   -2.3070 c3        1 20S     -0.012000
     22 O9         -4.4280   -0.4380   -5.9850 oh        1 20S     -0.330000
     23 O11        -5.9470    1.2640   -4.2590 oh        1 20S     -0.334000
     24 O13        -4.4840    2.3230   -2.0090 oh        1 20S     -0.318000
     25 O15        -2.5820   -0.7250   -2.8630 os        1 20S     -0.255000
     26 O6         -1.9580    0.0530   -4.8670 os        1 20S     -0.296000
     27 C32        -2.4860    0.4500   -0.8120 c3        1 20S     -0.017000
     28 O17        -1.0920    0.7170   -0.6420 os        1 20S     -0.285000
     29 C31         7.6910    0.0500    6.2760 c1        1 20S     -0.218500
     30 O7         -0.9310   -1.0480    0.7290 o         1 20S     -0.346000
     31 H71         3.7440    1.1370   -1.8610 ha        1 20S      0.000500
     32 H72         3.3720    0.9840   -1.3150 ha        1 20S      0.000500
     33 H81         1.2540    1.2490   -0.2130 hc        1 20S      0.121500
     34 H82         1.5660   -0.4610   -0.7330 hc        1 20S      0.121500
     35 H91         1.3530    0.5670    2.1940 hc        1 20S      0.096500
     36 H92         1.5420   -1.1650    1.7200 hc        1 20S      0.096500
     37 H101        3.4970    1.1410    1.0140 hc        1 20S      0.081500
     38 H102        3.6860   -0.5790    0.5000 hc        1 20S      0.081500
     39 H4          3.7250   -1.2950    2.9140 hc        1 20S      0.080000
     40 H11         3.5320    0.4250    3.4290 hc        1 20S      0.080000
     41 H5          5.6880    1.0160    2.2700 hc        1 20S      0.074667
     42 H12         5.8820   -0.7070    1.7530 hc        1 20S      0.074667
     43 H1          3.4170   -1.3010   -1.7920 h1        1 20S      0.060000
     44 H2          1.2070    1.7690   -5.2590 h1        1 20S      0.139000
     45 H3         -0.2900    0.5550   -7.5710 h1        1 20S      0.118000
     46 HO4         2.2510    1.5580   -7.1810 ho        1 20S      0.214000
     47 HO1         2.7280   -1.6970   -3.9880 ho        1 20S      0.223000
     48 H181       -2.5390   -1.4030   -6.9760 h1        1 20S      0.121500
     49 H182       -0.8070   -1.6090   -7.5880 h1        1 20S      0.121500
     50 HO3        -0.5750   -3.0470   -5.7640 ho        1 20S      0.221000
     51 HO5        -1.9330    1.8070   -6.2040 ho        1 20S      0.226000
     52 H21        -2.6730   -1.9310   -4.4860 h2        1 20S      0.177000
     53 H24        -5.0210   -1.1540   -4.1150 h1        1 20S      0.112000
     54 H27        -3.9480    1.7410   -4.5740 h1        1 20S      0.096000
     55 H16        -4.9560    0.3640   -1.9500 h1        1 20S      0.142000
     56 H29        -2.0840    1.3050   -2.7940 h1        1 20S      0.117000
     57 HO9        -5.3170   -0.1150   -6.1850 ho        1 20S      0.230000
     58 HO11       -6.1920    1.9970   -3.6760 ho        1 20S      0.226000
     59 HO13       -3.8000    2.9080   -2.3580 ho        1 20S      0.207000
     60 H321       -2.7630   -0.5680   -0.4320 h1        1 20S      0.124000
     61 H322       -3.0350    1.2500   -0.2470 h1        1 20S      0.124000
     62 H311        5.9250   -0.2790    3.5150 hc        1 20S      0.074667
     63 H312        6.7660   -1.7230    5.2300 ha        1 20S      0.218500
     64 H313        8.1260    0.8820    6.7680 ha        1 20S      0.218500
     65 C17         3.1030   -2.3000   -2.1920 c3        1 20S     -0.067000
     66 O1          3.3000   -2.3690   -3.5830 oh        1 20S     -0.344000
     67 H171        2.0330   -2.4880   -1.9260 h1        1 20S      0.060000
     68 H172        3.7510   -3.1040   -1.7590 h1        1 20S      0.060000
@<TRIPOS>BOND
     1    1    2 1   
     2    1   28 1   
     3    1   30 1   
     4    2    3 1   
     5    2   33 1   
     6    2   34 1   
     7    3    4 1   
     8    3   35 1   
     9    3   36 1   
    10    4    5 1   
    11    4   37 1   
    12    4   38 1   
    13    5    6 1   
    14    5   39 1   
    15    5   40 1   
    16    6   41 1   
    17    6   42 1   
    18    6   62 1   
    19    7   29 1   
    20    7   63 1   
    21    8    9 1   
    22    8   12 1   
    23    9   10 1   
    24    9   13 1   
    25    9   44 1   
    26   10   11 1   
    27   10   16 1   
    28   10   45 1   
    29   11   12 1   
    30   11   14 1   
    31   11   26 1   
    32   13   46 1   
    33   14   15 1   
    34   14   48 1   
    35   14   49 1   
    36   15   50 1   
    37   16   51 1   
    38   17   18 1   
    39   17   25 1   
    40   17   26 1   
    41   17   52 1   
    42   18   19 1   
    43   18   22 1   
    44   18   53 1   
    45   19   20 1   
    46   19   23 1   
    47   19   54 1   
    48   20   21 1   
    49   20   24 1   
    50   20   55 1   
    51   21   25 1   
    52   21   27 1   
    53   21   56 1   
    54   22   57 1   
    55   23   58 1   
    56   24   59 1   
    57   27   28 1   
    58   27   60 1   
    59   27   61 1   
    60   29   64 1   
    61   31   32 1   
    62   43   65 1   
    63   47   66 1   
    64   65   66 1   
    65   65   67 1   
    66   65   68 1   
@<TRIPOS>SUBSTRUCTURE
     1 20S         1 TEMP              0 ****  ****    0 ROOT
