@<TRIPOS>MOLECULE
20U
   71    75     1     0     0
SMALL
bcc


@<TRIPOS>ATOM
      1 N1         -1.1050    0.1830   -0.4780 n         1 20U     -0.453100
      2 C9          0.2650   -0.0090   -0.2140 ca        1 20U      0.073600
      3 C7          0.9170   -0.0460    1.0160 ca        1 20U     -0.144000
      4 C6          2.3080   -0.2490    1.0060 ca        1 20U      0.065400
      5 CL1         3.1340   -0.3010    2.4810 cl        1 20U     -0.036400
      6 C2         -1.3270    0.1920   -1.8570 c         1 20U      0.710500
      7 O2         -2.4160    0.4100   -2.4040 o         1 20U     -0.614500
      8 C3          0.0200   -0.0880   -2.5860 c3        1 20U     -0.084700
      9 C11         0.3390    1.0670   -3.5950 c3        1 20U      0.202500
     10 C21        -0.1650    2.4190   -3.0960 c3        1 20U     -0.091400
     11 C22         0.4400    3.6470   -3.7780 c3        1 20U     -0.051000
     12 C25         1.9520    3.6780   -3.6130 c3        1 20U     -0.093433
     13 C24         0.0860    3.7010   -5.2550 c3        1 20U     -0.093433
     14 C23        -0.1520    4.8760   -3.0890 c3        1 20U     -0.093433
     15 N12        -0.1990    0.6450   -4.8940 n3        1 20U     -0.812200
     16 C14         0.0110   -1.3410   -3.4870 c3        1 20U     -0.012400
     17 C31        -0.7890   -2.5240   -3.0670 ca        1 20U     -0.168300
     18 C36        -2.1800   -2.4880   -2.9390 ca        1 20U     -0.104000
     19 C35        -2.8860   -3.5890   -2.4550 ca        1 20U     -0.108000
     20 C34        -2.2190   -4.7570   -2.1000 ca        1 20U     -0.076000
     21 C32        -0.1170   -3.7370   -2.7600 ca        1 20U      0.079900
     22 F1          1.2240   -3.8240   -2.9720 f         1 20U     -0.153900
     23 C33        -0.8310   -4.8470   -2.2610 ca        1 20U     -0.013600
     24 CL2        -0.0430   -6.2860   -1.8540 cl        1 20U     -0.024400
     25 C13        -0.4320   -0.7790   -4.8770 c3        1 20U      0.148500
     26 C41         0.4300   -1.4390   -5.9760 c         1 20U      0.538100
     27 N42         0.1930   -2.9750   -6.0750 n4        1 20U     -0.591200
     28 C43         1.2120   -3.7000   -6.8300 ca        1 20U      0.039600
     29 C48         2.2260   -4.3990   -6.1450 ca        1 20U     -0.093500
     30 C44         1.1810   -3.6980   -8.2350 ca        1 20U     -0.093500
     31 C45         2.1590   -4.3920   -8.9470 ca        1 20U     -0.047000
     32 C46         3.1740   -5.0840   -8.2660 ca        1 20U     -0.160600
     33 C51         4.1380   -5.8140   -9.1010 c         1 20U      0.560700
     34 O51         3.9960   -6.1960  -10.2510 o         1 20U     -0.364100
     35 N51         5.4940   -6.1200   -8.5010 n4        1 20U     -0.757400
     36 C47         3.2000   -5.0860   -6.8650 ca        1 20U     -0.047000
     37 O41         1.2270   -0.9820   -6.7630 o         1 20U     -0.367100
     38 C8          0.9870   -0.1780   -1.4410 ca        1 20U     -0.169300
     39 C4          2.3550   -0.3660   -1.4200 ca        1 20U     -0.067000
     40 C5          3.0190   -0.4030   -0.1880 ca        1 20U     -0.150000
     41 H1         -1.7780    0.4220    0.2080 hn        1 20U      0.364500
     42 H2          0.3730    0.0820    1.9640 ha        1 20U      0.175000
     43 H3          1.4640    1.1120   -3.7070 h1        1 20U      0.090700
     44 H4         -1.2850    2.4700   -3.1900 hc        1 20U      0.069700
     45 H5          0.0850    2.4730   -2.0010 hc        1 20U      0.069700
     46 H6          2.4400    2.8800   -4.2220 hc        1 20U      0.042367
     47 H7          2.3490    4.6650   -3.9550 hc        1 20U      0.042367
     48 H8          2.2310    3.5370   -2.5420 hc        1 20U      0.042367
     49 H9          0.6750    2.9540   -5.8380 hc        1 20U      0.042367
     50 H10         0.3210    4.7150   -5.6630 hc        1 20U      0.042367
     51 H11        -1.0040    3.5100   -5.4050 hc        1 20U      0.042367
     52 H12        -1.2620    4.8900   -3.2040 hc        1 20U      0.042367
     53 H13         0.0990    4.8710   -2.0010 hc        1 20U      0.042367
     54 H14         0.2640    5.8070   -3.5430 hc        1 20U      0.042367
     55 H15        -1.0000    1.1740   -5.1840 hn        1 20U      0.424800
     56 H17         1.0990   -1.6460   -3.5560 hc        1 20U      0.077700
     57 H18        -2.7390   -1.5690   -3.1970 ha        1 20U      0.184000
     58 H19        -3.9820   -3.5250   -2.3360 ha        1 20U      0.177000
     59 H20        -2.7800   -5.6150   -1.6880 ha        1 20U      0.184000
     60 H21        -1.5050   -1.0500   -5.1050 h1        1 20U      0.099700
     61 H22        -0.7190   -3.1200   -6.5240 hn        1 20U      0.471300
     62 H23         2.2620   -4.4180   -5.0370 ha        1 20U      0.192000
     63 H24         0.4010   -3.1510   -8.7960 ha        1 20U      0.192000
     64 H25         2.1250   -4.3980  -10.0540 ha        1 20U      0.179000
     65 H26         6.1140   -6.5060   -9.2310 hn        1 20U      0.479467
     66 H27         5.4030   -6.8130   -7.7500 hn        1 20U      0.479467
     67 H28         3.9670   -5.6380   -6.2960 ha        1 20U      0.179000
     68 H29         2.9270   -0.4760   -2.3530 ha        1 20U      0.131000
     69 H30         4.1110   -0.5470   -0.1630 ha        1 20U      0.162000
     70 H422        0.1430   -3.3500   -5.1150 hn        1 20U      0.471300
     71 H513        5.9170   -5.2660   -8.1210 hn        1 20U      0.479467
@<TRIPOS>BOND
     1    1    2 1   
     2    1    6 1   
     3    1   41 1   
     4    2    3 ar  
     5    2   38 ar  
     6    3    4 ar  
     7    3   42 1   
     8    4    5 1   
     9    4   40 ar  
    10    6    7 2   
    11    6    8 1   
    12    8    9 1   
    13    8   16 1   
    14    8   38 1   
    15    9   10 1   
    16    9   15 1   
    17    9   43 1   
    18   10   11 1   
    19   10   44 1   
    20   10   45 1   
    21   11   12 1   
    22   11   13 1   
    23   11   14 1   
    24   12   46 1   
    25   12   47 1   
    26   12   48 1   
    27   13   49 1   
    28   13   50 1   
    29   13   51 1   
    30   14   52 1   
    31   14   53 1   
    32   14   54 1   
    33   15   25 1   
    34   15   55 1   
    35   16   17 1   
    36   16   25 1   
    37   16   56 1   
    38   17   18 ar  
    39   17   21 ar  
    40   18   19 ar  
    41   18   57 1   
    42   19   20 ar  
    43   19   58 1   
    44   20   23 ar  
    45   20   59 1   
    46   21   22 1   
    47   21   23 ar  
    48   23   24 1   
    49   25   26 1   
    50   25   60 1   
    51   26   27 1   
    52   26   37 2   
    53   27   28 1   
    54   27   61 1   
    55   27   70 1   
    56   28   29 ar  
    57   28   30 ar  
    58   29   36 ar  
    59   29   62 1   
    60   30   31 ar  
    61   30   63 1   
    62   31   32 ar  
    63   31   64 1   
    64   32   33 1   
    65   32   36 ar  
    66   33   34 2   
    67   33   35 1   
    68   35   65 1   
    69   35   66 1   
    70   35   71 1   
    71   36   67 1   
    72   38   39 ar  
    73   39   40 ar  
    74   39   68 1   
    75   40   69 1   
@<TRIPOS>SUBSTRUCTURE
     1 20U         1 TEMP              0 ****  ****    0 ROOT
