@<TRIPOS>MOLECULE
20U
   70    74     1     0     0
SMALL
bcc


@<TRIPOS>ATOM
      1 N1         -1.4510    0.2900   -0.6250 ns        1 20U     -0.467100
      2 C9         -0.1280    0.1540   -0.1710 ca        1 20U      0.072600
      3 C7          0.3540    0.1790    1.1350 ca        1 20U     -0.156000
      4 C6          1.7390    0.0220    1.3160 ca        1 20U      0.059400
      5 Cl1         2.3600    0.0460    2.8950 cl        1 20U     -0.065400
      6 C2         -1.4860    0.2320   -2.0260 c         1 20U      0.711500
      7 O2         -2.5130    0.3810   -2.7000 o         1 20U     -0.611500
      8 C3         -0.0460   -0.0160   -2.5520 c3        1 20U     -0.081700
      9 C11         0.3850    1.1070   -3.5550 c3        1 20U      0.193500
     10 C21        -0.2830    2.4410   -3.2300 c3        1 20U     -0.093400
     11 C22         0.3940    3.6840   -3.8100 c3        1 20U     -0.050000
     12 C25         1.8160    3.8260   -3.2880 c3        1 20U     -0.091433
     13 C24         0.4110    3.6610   -5.3300 c3        1 20U     -0.091433
     14 C23        -0.4170    4.8940   -3.3500 c3        1 20U     -0.091433
     15 N12         0.1590    0.5950   -4.9120 n7        1 20U     -0.802200
     16 C14         0.1140   -1.2960   -3.4020 c3        1 20U     -0.010400
     17 C31        -0.6210   -2.5240   -2.9920 ca        1 20U     -0.120300
     18 C36        -2.0160   -2.5980   -2.9860 ca        1 20U     -0.100000
     19 C35        -2.6740   -3.7560   -2.5750 ca        1 20U     -0.120000
     20 C34        -1.9520   -4.8740   -2.1700 ca        1 20U     -0.090000
     21 C32         0.1150   -3.6780   -2.6190 ca        1 20U      0.110900
     22 F1          1.4720   -3.6600   -2.6960 f         1 20U     -0.145900
     23 C33        -0.5540   -4.8460   -2.1970 ca        1 20U     -0.017600
     24 Cl2         0.3060   -6.2300   -1.7230 cl        1 20U     -0.058400
     25 C13        -0.2620   -0.8060   -4.8270 c3        1 20U      0.110500
     26 C41         0.3290   -1.5800   -6.0190 c         1 20U      0.683100
     27 N42         1.1920   -2.6600   -5.7590 ns        1 20U     -0.457100
     28 C43         1.8490   -3.4500   -6.6790 ca        1 20U      0.189600
     29 C48         2.6510   -4.5350   -6.1950 ca        1 20U     -0.196500
     30 C44         1.7880   -3.2510   -8.0850 ca        1 20U     -0.196500
     31 C45         2.4790   -4.0820   -8.9440 ca        1 20U     -0.016500
     32 C46         3.2650   -5.1520   -8.4560 ca        1 20U     -0.279600
     33 C51         3.9430   -5.9570   -9.4390 c         1 20U      0.585700
     34 O51         3.9590   -5.8780  -10.6610 o         1 20U     -0.443100
     35 N51         4.7960   -7.1150   -8.9170 nz        1 20U     -0.765400
     36 C47         3.3340   -5.3570   -7.0630 ca        1 20U     -0.016500
     37 O41         0.0130   -1.2710   -7.1750 o         1 20U     -0.540100
     38 C8          0.7590   -0.0300   -1.2840 ca        1 20U     -0.151300
     39 C4          2.1150   -0.1750   -1.0730 ca        1 20U     -0.064000
     40 C5          2.6090   -0.1490    0.2380 ca        1 20U     -0.154000
     41 H1         -2.2240    0.4900   -0.0430 hn        1 20U      0.352500
     42 H2         -0.3150    0.3170    1.9960 ha        1 20U      0.164000
     43 H3          1.5060    1.2240   -3.4510 h1        1 20U      0.082700
     44 H4         -0.2870    2.5470   -2.1110 hc        1 20U      0.061700
     45 H5         -1.3550    2.4230   -3.5700 hc        1 20U      0.061700
     46 H6          1.8330    3.7480   -2.1750 hc        1 20U      0.039367
     47 H7          2.2290    4.8230   -3.5790 hc        1 20U      0.039367
     48 H8          2.4810    3.0380   -3.7150 hc        1 20U      0.039367
     49 H9          0.7030    4.6670   -5.7210 hc        1 20U      0.039367
     50 H10         1.1500    2.9170   -5.7110 hc        1 20U      0.039367
     51 H11        -0.6010    3.4110   -5.7300 hc        1 20U      0.039367
     52 H12        -1.4640    4.8270   -3.7310 hc        1 20U      0.039367
     53 H13         0.0430    5.8350   -3.7370 hc        1 20U      0.039367
     54 H14        -0.4420    4.9450   -2.2350 hc        1 20U      0.039367
     55 H15        -0.5140    1.1420   -5.4170 hn        1 20U      0.395800
     56 H17         1.2250   -1.5020   -3.3540 hc        1 20U      0.078700
     57 H18        -2.6160   -1.7270   -3.3060 ha        1 20U      0.175000
     58 H19        -3.7760   -3.7830   -2.5670 ha        1 20U      0.159000
     59 H20        -2.4760   -5.7820   -1.8310 ha        1 20U      0.165000
     60 H21        -1.3840   -0.9200   -4.9560 h1        1 20U      0.091700
     61 H22         1.3450   -2.9000   -4.7990 hn        1 20U      0.341500
     62 H23         2.7220   -4.7200   -5.1090 ha        1 20U      0.186000
     63 H24         1.1850   -2.4260   -8.5100 ha        1 20U      0.186000
     64 H25         2.4200   -3.9110  -10.0350 ha        1 20U      0.145000
     65 H26         5.5320   -6.7550   -8.3060 hn        1 20U      0.462133
     66 H27         5.2230   -7.6100   -9.7090 hn        1 20U      0.462133
     67 H28         3.9320   -6.1740   -6.6300 ha        1 20U      0.145000
     68 H29         2.8080   -0.3060   -1.9170 ha        1 20U      0.141000
     69 H30         3.6900   -0.2630    0.4120 ha        1 20U      0.157000
     70 H513        4.2120   -7.7650   -8.3880 hn        1 20U      0.462133
@<TRIPOS>BOND
     1    1    2 1   
     2    1    6 1   
     3    1   41 1   
     4    2    3 ar  
     5    2   38 ar  
     6    3    4 ar  
     7    3   42 1   
     8    4    5 1   
     9    4   40 ar  
    10    6    7 2   
    11    6    8 1   
    12    8    9 1   
    13    8   16 1   
    14    8   38 1   
    15    9   10 1   
    16    9   15 1   
    17    9   43 1   
    18   10   11 1   
    19   10   44 1   
    20   10   45 1   
    21   11   12 1   
    22   11   13 1   
    23   11   14 1   
    24   12   46 1   
    25   12   47 1   
    26   12   48 1   
    27   13   49 1   
    28   13   50 1   
    29   13   51 1   
    30   14   52 1   
    31   14   53 1   
    32   14   54 1   
    33   15   25 1   
    34   15   55 1   
    35   16   17 1   
    36   16   25 1   
    37   16   56 1   
    38   17   18 ar  
    39   17   21 ar  
    40   18   19 ar  
    41   18   57 1   
    42   19   20 ar  
    43   19   58 1   
    44   20   23 ar  
    45   20   59 1   
    46   21   22 1   
    47   21   23 ar  
    48   23   24 1   
    49   25   26 1   
    50   25   60 1   
    51   26   27 1   
    52   26   37 2   
    53   27   28 1   
    54   27   61 1   
    55   28   29 ar  
    56   28   30 ar  
    57   29   36 ar  
    58   29   62 1   
    59   30   31 ar  
    60   30   63 1   
    61   31   32 ar  
    62   31   64 1   
    63   32   33 1   
    64   32   36 ar  
    65   33   34 2   
    66   33   35 1   
    67   35   65 1   
    68   35   66 1   
    69   35   70 1   
    70   36   67 1   
    71   38   39 ar  
    72   39   40 ar  
    73   39   68 1   
    74   40   69 1   
@<TRIPOS>SUBSTRUCTURE
     1 20U         1 TEMP              0 ****  ****    0 ROOT
