@<TRIPOS>MOLECULE
20U
   70    74     1     0     0
SMALL
bcc


@<TRIPOS>ATOM
      1 N1         -0.9620    0.0780   -0.3480 n         1 20U     -0.474100
      2 C9          0.4300    0.0420   -0.1800 ca        1 20U      0.078600
      3 C7          1.1700    0.0600    1.0000 ca        1 20U     -0.159000
      4 C6          2.5690    0.0170    0.8870 ca        1 20U      0.061400
      5 CL1         3.5020    0.0360    2.3050 cl        1 20U     -0.068400
      6 C2         -1.2850    0.0880   -1.7180 c         1 20U      0.717500
      7 O2         -2.4410    0.2060   -2.1360 o         1 20U     -0.588500
      8 C3          0.0280   -0.0360   -2.5400 c3        1 20U     -0.058700
      9 C11         0.1880    1.1450   -3.5480 c3        1 20U      0.195500
     10 C21        -0.5550    2.4050   -3.0970 c3        1 20U     -0.071400
     11 C22         0.0190    3.7200   -3.6270 c3        1 20U     -0.054000
     12 C25         1.3530    4.0310   -2.9640 c3        1 20U     -0.089767
     13 C24         0.1990    3.6970   -5.1360 c3        1 20U     -0.089767
     14 C23        -0.9710    4.8260   -3.2690 c3        1 20U     -0.089767
     15 N12        -0.2860    0.6410   -4.8450 n3        1 20U     -0.796200
     16 C14         0.1270   -1.3010   -3.4220 c3        1 20U     -0.011400
     17 C31        -0.7100   -2.4780   -3.0560 ca        1 20U     -0.136300
     18 C36        -2.1050   -2.4480   -3.1400 ca        1 20U     -0.091000
     19 C35        -2.8700   -3.5560   -2.7810 ca        1 20U     -0.124000
     20 C34        -2.2560   -4.7250   -2.3430 ca        1 20U     -0.090000
     21 C32        -0.0810   -3.6810   -2.6460 ca        1 20U      0.109900
     22 F1          1.2730   -3.7580   -2.6290 f         1 20U     -0.135900
     23 C33        -0.8610   -4.8000   -2.2810 ca        1 20U     -0.027600
     24 CL2        -0.1370   -6.2460   -1.7680 cl        1 20U     -0.060400
     25 C13        -0.1830   -0.8060   -4.8670 c3        1 20U      0.119500
     26 C41         0.8620   -1.3610   -5.8610 c         1 20U      0.638100
     27 N42         1.0370   -2.7570   -5.8410 n         1 20U     -0.458100
     28 C43         1.8460   -3.5150   -6.6630 ca        1 20U      0.185600
     29 C48         1.9710   -4.9180   -6.4000 ca        1 20U     -0.193500
     30 C44         2.5600   -2.9870   -7.7720 ca        1 20U     -0.193500
     31 C45         3.3440   -3.8060   -8.5610 ca        1 20U     -0.017500
     32 C46         3.4620   -5.1880   -8.2890 ca        1 20U     -0.274600
     33 C51         4.3100   -5.9510   -9.1720 c         1 20U      0.584700
     34 O51         4.9520   -5.6030  -10.1550 o         1 20U     -0.440100
     35 N51         4.4650   -7.4420   -8.8680 n4        1 20U     -0.764400
     36 C47         2.7570   -5.7230   -7.1930 ca        1 20U     -0.017500
     37 O41         1.4840   -0.6340   -6.6460 o         1 20U     -0.551100
     38 C8          1.0780   -0.0210   -1.4580 ca        1 20U     -0.161300
     39 C4          2.4550   -0.0570   -1.5360 ca        1 20U     -0.066000
     40 C5          3.2080   -0.0370   -0.3540 ca        1 20U     -0.157000
     41 H1         -1.6080    0.2150    0.3860 hn        1 20U      0.350500
     42 H2          0.6840    0.1070    1.9850 ha        1 20U      0.164000
     43 H3          1.2950    1.3840   -3.5900 h1        1 20U      0.047700
     44 H4         -1.6380    2.3290   -3.3880 hc        1 20U      0.065700
     45 H5         -0.5100    2.4440   -1.9750 hc        1 20U      0.065700
     46 H6          2.1180    3.2590   -3.2180 hc        1 20U      0.038033
     47 H7          1.2380    4.0680   -1.8540 hc        1 20U      0.038033
     48 H8          1.7300    5.0230   -3.3140 hc        1 20U      0.038033
     49 H9         -0.7270    3.3240   -5.6350 hc        1 20U      0.038033
     50 H10         0.4080    4.7300   -5.5090 hc        1 20U      0.038033
     51 H11         1.0610    3.0490   -5.4230 hc        1 20U      0.038033
     52 H12        -1.9420    4.6620   -3.7930 hc        1 20U      0.038033
     53 H13        -0.5640    5.8200   -3.5750 hc        1 20U      0.038033
     54 H14        -1.1550    4.8410   -2.1680 hc        1 20U      0.038033
     55 H15         0.1880    1.0810   -5.6130 hn        1 20U      0.403800
     56 H17         1.2150   -1.6060   -3.3730 hc        1 20U      0.079700
     57 H18        -2.6120   -1.5250   -3.4790 ha        1 20U      0.185000
     58 H19        -3.9690   -3.5010   -2.8360 ha        1 20U      0.161000
     59 H20        -2.8650   -5.5940   -2.0430 ha        1 20U      0.164000
     60 H21        -1.1860   -1.1950   -5.2190 h1        1 20U      0.105700
     61 H22         0.5640   -3.2510   -5.1070 hn        1 20U      0.342500
     62 H23         1.4350   -5.3650   -5.5450 ha        1 20U      0.184500
     63 H24         2.4970   -1.9100   -8.0190 ha        1 20U      0.184500
     64 H25         3.8900   -3.3760   -9.4210 ha        1 20U      0.146500
     65 H26         5.0970   -7.8680   -9.5560 hn        1 20U      0.462800
     66 H27         4.8530   -7.5660   -7.9300 hn        1 20U      0.462800
     67 H28         2.8140   -6.7930   -6.9380 ha        1 20U      0.146500
     68 H29         2.9680   -0.0940   -2.5090 ha        1 20U      0.138000
     69 H30         4.3070   -0.0620   -0.4100 ha        1 20U      0.155000
     70 H513        3.5540   -7.9020   -8.9160 hn        1 20U      0.462800
@<TRIPOS>BOND
     1    1    2 1   
     2    1    6 1   
     3    1   41 1   
     4    2    3 ar  
     5    2   38 ar  
     6    3    4 ar  
     7    3   42 1   
     8    4    5 1   
     9    4   40 ar  
    10    6    7 2   
    11    6    8 1   
    12    8    9 1   
    13    8   16 1   
    14    8   38 1   
    15    9   10 1   
    16    9   15 1   
    17    9   43 1   
    18   10   11 1   
    19   10   44 1   
    20   10   45 1   
    21   11   12 1   
    22   11   13 1   
    23   11   14 1   
    24   12   46 1   
    25   12   47 1   
    26   12   48 1   
    27   13   49 1   
    28   13   50 1   
    29   13   51 1   
    30   14   52 1   
    31   14   53 1   
    32   14   54 1   
    33   15   25 1   
    34   15   55 1   
    35   16   17 1   
    36   16   25 1   
    37   16   56 1   
    38   17   18 ar  
    39   17   21 ar  
    40   18   19 ar  
    41   18   57 1   
    42   19   20 ar  
    43   19   58 1   
    44   20   23 ar  
    45   20   59 1   
    46   21   22 1   
    47   21   23 ar  
    48   23   24 1   
    49   25   26 1   
    50   25   60 1   
    51   26   27 1   
    52   26   37 2   
    53   27   28 1   
    54   27   61 1   
    55   28   29 ar  
    56   28   30 ar  
    57   29   36 ar  
    58   29   62 1   
    59   30   31 ar  
    60   30   63 1   
    61   31   32 ar  
    62   31   64 1   
    63   32   33 1   
    64   32   36 ar  
    65   33   34 2   
    66   33   35 1   
    67   35   65 1   
    68   35   66 1   
    69   35   70 1   
    70   36   67 1   
    71   38   39 ar  
    72   39   40 ar  
    73   39   68 1   
    74   40   69 1   
@<TRIPOS>SUBSTRUCTURE
     1 20U         1 TEMP              0 ****  ****    0 ROOT
