@<TRIPOS>MOLECULE
20V
   50    52     1     0     0
SMALL
bcc


@<TRIPOS>ATOM
      1 OAK         1.5170    0.5620   -3.7220 oh        1 20V     -0.817400
      2 PBK         2.1150   -0.2260   -2.4380 p5        1 20V      1.439800
      3 OAL         0.9930   -0.5720   -1.5310 o         1 20V     -0.861500
      4 OAC         3.0610   -1.2500   -2.9380 o         1 20V     -0.861500
      5 OAX         2.9680    1.0100   -1.7400 os        1 20V     -0.578200
      6 CAT         2.2830    1.8680   -0.8750 c3        1 20V      0.239600
      7 CBE         2.5330    3.3140   -1.2190 cc        1 20V     -0.054200
      8 CBC         1.5970    3.9820   -2.0410 cc        1 20V     -0.194100
      9 CAO         0.5010    3.2650   -2.7490 c1        1 20V      0.213600
     10 OAB        -0.6760    3.6490   -2.6750 o         1 20V     -0.702500
     11 CBA         1.8910    5.3090   -2.4280 cc        1 20V      0.005100
     12 OAH         1.0290    6.0660   -3.2030 oh        1 20V     -0.553100
     13 CAY         3.1000    5.9230   -2.0300 cd        1 20V      0.017800
     14 CAA         3.4100    7.2950   -2.5370 c3        1 20V     -0.013900
     15 NAW         3.9530    5.3150   -1.1890 n2        1 20V     -0.338000
     16 CBD         3.6600    4.0500   -0.7480 cd        1 20V      0.215600
     17 NAV         4.4430    3.4970    0.3540 nf        1 20V     -0.165600
     18 NAU         5.6040    3.8610    0.5270 ne        1 20V     -0.200400
     19 CAZ         6.3340    3.5110    1.7210 ca        1 20V      0.120400
     20 CAR         7.7180    3.4060    1.6230 ca        1 20V     -0.091000
     21 CBH         8.5290    3.2730    2.7860 ca        1 20V      0.056000
     22 CBG         9.9540    3.2220    2.7060 ca        1 20V     -0.242500
     23 SBM        10.9540    3.4460    1.2370 s6        1 20V      1.449100
     24 OAN        10.2870    2.8380    0.1550 o         1 20V     -0.746533
     25 OAG        11.1130    4.8470    1.1030 o         1 20V     -0.746533
     26 OAF        12.1890    2.8060    1.5420 o         1 20V     -0.746533
     27 CAQ        10.6880    3.0470    3.8540 ca        1 20V     -0.047000
     28 CBB        10.0510    2.9400    5.1210 ca        1 20V     -0.222200
     29 NBJ        10.8800    2.7460    6.3250 no        1 20V      0.316200
     30 OAJ        10.3650    2.5890    7.4060 o         1 20V     -0.267000
     31 OAI        12.0870    2.7440    6.2360 o         1 20V     -0.267000
     32 CAS         8.6710    3.0290    5.2270 ca        1 20V     -0.001000
     33 CBI         7.8870    3.2070    4.0570 ca        1 20V     -0.008000
     34 CBF         6.4680    3.3220    4.1610 ca        1 20V     -0.260500
     35 SBL         5.6340    3.3440    5.7270 s6        1 20V      1.448100
     36 OAM         6.2060    4.4230    6.4550 o         1 20V     -0.751200
     37 OAE         4.2600    3.5440    5.4510 o         1 20V     -0.751200
     38 OAD         5.9070    2.0960    6.3440 o         1 20V     -0.751200
     39 CAP         5.7240    3.4540    3.0150 ca        1 20V     -0.049000
     40 H3          2.6310    1.6680    0.1790 h1        1 20V      0.039700
     41 H4          1.1750    1.6570   -0.9340 h1        1 20V      0.039700
     42 H5          1.1450    1.4270   -3.5220 ho        1 20V      0.472000
     43 H6          0.2210    5.5390   -3.3180 ho        1 20V      0.433000
     44 H7          3.6150    7.2410   -3.6350 hc        1 20V      0.022367
     45 H8          2.5190    7.9530   -2.3810 hc        1 20V      0.022367
     46 H9          4.2930    7.7500   -2.0270 hc        1 20V      0.022367
     47 H10         8.2170    3.4200    0.6340 ha        1 20V      0.189000
     48 H11        11.7920    2.9820    3.7980 ha        1 20V      0.171000
     49 H12         8.1650    2.9630    6.2120 ha        1 20V      0.189000
     50 H13         4.6230    3.5310    3.0970 ha        1 20V      0.171000
@<TRIPOS>BOND
     1    1    2 1   
     2    1   42 1   
     3    2    3 1   
     4    2    4 1   
     5    2    5 1   
     6    5    6 1   
     7    6    7 1   
     8    6   40 1   
     9    6   41 1   
    10    7    8 1   
    11    7   16 2   
    12    8    9 2   
    13    8   11 1   
    14    9   10 2   
    15   11   12 1   
    16   11   13 2   
    17   12   43 1   
    18   13   14 1   
    19   13   15 1   
    20   14   44 1   
    21   14   45 1   
    22   14   46 1   
    23   15   16 1   
    24   16   17 1   
    25   17   18 2   
    26   18   19 1   
    27   19   20 ar  
    28   19   39 ar  
    29   20   21 ar  
    30   20   47 1   
    31   21   22 ar  
    32   21   33 ar  
    33   22   23 1   
    34   22   27 ar  
    35   23   24 1   
    36   23   25 1   
    37   23   26 1   
    38   27   28 ar  
    39   27   48 1   
    40   28   29 1   
    41   28   32 ar  
    42   29   30 1   
    43   29   31 1   
    44   32   33 ar  
    45   32   49 1   
    46   33   34 ar  
    47   34   35 1   
    48   34   39 ar  
    49   35   36 1   
    50   35   37 1   
    51   35   38 1   
    52   39   50 1   
@<TRIPOS>SUBSTRUCTURE
     1 20V         1 TEMP              0 ****  ****    0 ROOT
