@<TRIPOS>MOLECULE
20V
   50    52     1     0     0
SMALL
bcc


@<TRIPOS>ATOM
      1 OAK         1.2830    0.5560   -3.7550 oh        1 20V     -0.797400
      2 PBK         2.0720   -0.2030   -2.5480 p5        1 20V      1.435800
      3 OAL         1.0560   -0.5770   -1.5350 o         1 20V     -0.857000
      4 OAC         2.9850   -1.1910   -3.1670 o         1 20V     -0.857000
      5 OAX         2.9400    1.0750   -1.9750 os        1 20V     -0.585200
      6 CAT         2.3830    1.8590   -0.9560 c3        1 20V      0.239600
      7 CBE         2.5720    3.3260   -1.2240 cc        1 20V     -0.095200
      8 CBC         1.6230    3.9720   -2.0650 cc        1 20V     -0.166100
      9 CAO         0.2360    3.5490   -2.1420 c1        1 20V      0.233600
     10 OAB        -0.4080    3.1650   -3.1170 o         1 20V     -0.648500
     11 CBA         1.9090    5.3080   -2.4540 cc        1 20V     -0.026900
     12 OAH         1.1170    5.9870   -3.3710 oh        1 20V     -0.551100
     13 CAY         3.0060    5.9980   -1.9070 cd        1 20V      0.036800
     14 CAA         3.2510    7.4100   -2.3330 c3        1 20V     -0.012900
     15 NAW         3.8350    5.4210   -1.0160 n2        1 20V     -0.370000
     16 CBD         3.6200    4.1110   -0.6710 cd        1 20V      0.235600
     17 NAV         4.4320    3.5380    0.4040 nf        1 20V     -0.169600
     18 NAU         5.5720    3.9530    0.5990 ne        1 20V     -0.199400
     19 CAZ         6.3290    3.5620    1.7630 ca        1 20V      0.121400
     20 CAR         7.7100    3.4650    1.6380 ca        1 20V     -0.095000
     21 CBH         8.5420    3.2960    2.7810 ca        1 20V      0.058000
     22 CBG         9.9660    3.2500    2.6740 ca        1 20V     -0.243500
     23 SBM        10.9380    3.5180    1.1950 s6        1 20V      1.449100
     24 OAN        10.2520    2.9400    0.1080 o         1 20V     -0.746533
     25 OAG        11.0940    4.9220    1.0970 o         1 20V     -0.746533
     26 OAF        12.1800    2.8710    1.4590 o         1 20V     -0.746533
     27 CAQ        10.7200    3.0420    3.8030 ca        1 20V     -0.047000
     28 CBB        10.1070    2.8940    5.0780 ca        1 20V     -0.223200
     29 NBJ        10.9570    2.6670    6.2600 no        1 20V      0.316200
     30 OAJ        10.4620    2.4770    7.3450 o         1 20V     -0.267500
     31 OAI        12.1630    2.6700    6.1490 o         1 20V     -0.267500
     32 CAS         8.7280    2.9750    5.2110 ca        1 20V     -0.001000
     33 CBI         7.9230    3.1880    4.0610 ca        1 20V     -0.009000
     34 CBF         6.5050    3.2930    4.1930 ca        1 20V     -0.260500
     35 SBL         5.7000    3.2560    5.7730 s6        1 20V      1.447100
     36 OAM         6.2790    4.3130    6.5290 o         1 20V     -0.750867
     37 OAE         4.3200    3.4580    5.5290 o         1 20V     -0.750867
     38 OAD         5.9900    1.9880    6.3420 o         1 20V     -0.750867
     39 CAP         5.7410    3.4600    3.0650 ca        1 20V     -0.050000
     40 H3          2.8720    1.5750    0.0180 h1        1 20V      0.039200
     41 H4          1.2750    1.6410   -0.8810 h1        1 20V      0.039200
     42 H5          0.7960    1.3260   -3.4760 ho        1 20V      0.445000
     43 H6          0.4650    5.3460   -3.6930 ho        1 20V      0.419000
     44 H7          3.1930    7.4720   -3.4480 hc        1 20V      0.020033
     45 H8          4.2470    7.7900   -1.9990 hc        1 20V      0.020033
     46 H9          2.4540    8.0680   -1.9060 hc        1 20V      0.020033
     47 H10         8.1920    3.5130    0.6410 ha        1 20V      0.188000
     48 H11        11.8230    2.9810    3.7250 ha        1 20V      0.171000
     49 H12         8.2400    2.8770    6.2020 ha        1 20V      0.188000
     50 H13         4.6410    3.5310    3.1680 ha        1 20V      0.171000
@<TRIPOS>BOND
     1    1    2 1   
     2    1   42 1   
     3    2    3 1   
     4    2    4 1   
     5    2    5 1   
     6    5    6 1   
     7    6    7 1   
     8    6   40 1   
     9    6   41 1   
    10    7    8 1   
    11    7   16 2   
    12    8    9 2   
    13    8   11 1   
    14    9   10 2   
    15   11   12 1   
    16   11   13 2   
    17   12   43 1   
    18   13   14 1   
    19   13   15 1   
    20   14   44 1   
    21   14   45 1   
    22   14   46 1   
    23   15   16 1   
    24   16   17 1   
    25   17   18 2   
    26   18   19 1   
    27   19   20 ar  
    28   19   39 ar  
    29   20   21 ar  
    30   20   47 1   
    31   21   22 ar  
    32   21   33 ar  
    33   22   23 1   
    34   22   27 ar  
    35   23   24 1   
    36   23   25 1   
    37   23   26 1   
    38   27   28 ar  
    39   27   48 1   
    40   28   29 1   
    41   28   32 ar  
    42   29   30 1   
    43   29   31 1   
    44   32   33 ar  
    45   32   49 1   
    46   33   34 ar  
    47   34   35 1   
    48   34   39 ar  
    49   35   36 1   
    50   35   37 1   
    51   35   38 1   
    52   39   50 1   
@<TRIPOS>SUBSTRUCTURE
     1 20V         1 TEMP              0 ****  ****    0 ROOT
