@<TRIPOS>MOLECULE
20V
   50    52     1     0     0
SMALL
bcc


@<TRIPOS>ATOM
      1 OAK         1.5180    0.6110   -3.7520 oh        1 20V     -0.817400
      2 PBK         2.1300   -0.1940   -2.4860 p5        1 20V      1.439800
      3 OAL         1.0160   -0.5660   -1.5800 o         1 20V     -0.861500
      4 OAC         3.0820   -1.2010   -3.0100 o         1 20V     -0.861500
      5 OAX         2.9750    1.0370   -1.7700 os        1 20V     -0.578200
      6 CAT         2.2880    1.8720   -0.8860 c3        1 20V      0.239600
      7 CBE         2.5230    3.3260   -1.2060 cc        1 20V     -0.054200
      8 CBC         1.5770    4.0010   -2.0110 cc        1 20V     -0.194100
      9 CAO         0.4830    3.2870   -2.7250 c1        1 20V      0.213600
     10 OAB        -0.6970    3.6590   -2.6390 o         1 20V     -0.702500
     11 CBA         1.8570    5.3370   -2.3750 cc        1 20V      0.005100
     12 OAH         0.9840    6.1010   -3.1320 oh        1 20V     -0.553100
     13 CAY         3.0630    5.9550   -1.9730 cd        1 20V      0.017800
     14 CAA         3.3580    7.3380   -2.4560 c3        1 20V     -0.013900
     15 NAW         3.9250    5.3390   -1.1470 n2        1 20V     -0.338000
     16 CBD         3.6460    4.0640   -0.7270 cd        1 20V      0.215600
     17 NAV         4.4390    3.4990    0.3610 nf        1 20V     -0.165600
     18 NAU         5.5980    3.8690    0.5340 ne        1 20V     -0.200400
     19 CAZ         6.3370    3.5050    1.7180 ca        1 20V      0.120400
     20 CAR         7.7210    3.4140    1.6110 ca        1 20V     -0.091000
     21 CBH         8.5390    3.2670    2.7680 ca        1 20V      0.056000
     22 CBG         9.9650    3.2300    2.6800 ca        1 20V     -0.242500
     23 SBM        10.9550    3.4880    1.2100 s6        1 20V      1.449100
     24 OAN        10.2870    2.8930    0.1210 o         1 20V     -0.746533
     25 OAG        11.1000    4.8930    1.0990 o         1 20V     -0.746533
     26 OAF        12.1980    2.8550    1.4980 o         1 20V     -0.746533
     27 CAQ        10.7060    3.0410    3.8210 ca        1 20V     -0.047000
     28 CBB        10.0770    2.9050    5.0890 ca        1 20V     -0.222200
     29 NBJ        10.9130    2.6970    6.2850 no        1 20V      0.316200
     30 OAJ        10.4050    2.5170    7.3650 o         1 20V     -0.267000
     31 OAI        12.1200    2.7070    6.1900 o         1 20V     -0.267000
     32 CAS         8.6960    2.9810    5.2040 ca        1 20V     -0.001000
     33 CBI         7.9050    3.1730    4.0410 ca        1 20V     -0.008000
     34 CBF         6.4850    3.2740    4.1540 ca        1 20V     -0.260500
     35 SBL         5.6600    3.2600    5.7240 s6        1 20V      1.448100
     36 OAM         6.2260    4.3320    6.4680 o         1 20V     -0.751200
     37 OAE         4.2830    3.4540    5.4580 o         1 20V     -0.751200
     38 OAD         5.9470    2.0040    6.3170 o         1 20V     -0.751200
     39 CAP         5.7350    3.4190    3.0140 ca        1 20V     -0.049000
     40 H3          2.6430    1.6570    0.1620 h1        1 20V      0.039700
     41 H4          1.1810    1.6530   -0.9440 h1        1 20V      0.039700
     42 H5          1.1390    1.4700   -3.5350 ho        1 20V      0.472000
     43 H6          0.1800    5.5690   -3.2530 ho        1 20V      0.433000
     44 H7          3.5620    7.3050   -3.5550 hc        1 20V      0.022367
     45 H8          4.2380    7.7930   -1.9410 hc        1 20V      0.022367
     46 H9          2.4620    7.9850   -2.2870 hc        1 20V      0.022367
     47 H10         8.2150    3.4490    0.6200 ha        1 20V      0.188000
     48 H11        11.8100    2.9860    3.7580 ha        1 20V      0.171000
     49 H12         8.1960    2.8930    6.1890 ha        1 20V      0.189000
     50 H13         4.6330    3.4850    3.1030 ha        1 20V      0.171000
@<TRIPOS>BOND
     1    1    2 1   
     2    1   42 1   
     3    2    3 1   
     4    2    4 1   
     5    2    5 1   
     6    5    6 1   
     7    6    7 1   
     8    6   40 1   
     9    6   41 1   
    10    7    8 1   
    11    7   16 2   
    12    8    9 2   
    13    8   11 1   
    14    9   10 2   
    15   11   12 1   
    16   11   13 2   
    17   12   43 1   
    18   13   14 1   
    19   13   15 1   
    20   14   44 1   
    21   14   45 1   
    22   14   46 1   
    23   15   16 1   
    24   16   17 1   
    25   17   18 2   
    26   18   19 1   
    27   19   20 ar  
    28   19   39 ar  
    29   20   21 ar  
    30   20   47 1   
    31   21   22 ar  
    32   21   33 ar  
    33   22   23 1   
    34   22   27 ar  
    35   23   24 1   
    36   23   25 1   
    37   23   26 1   
    38   27   28 ar  
    39   27   48 1   
    40   28   29 1   
    41   28   32 ar  
    42   29   30 1   
    43   29   31 1   
    44   32   33 ar  
    45   32   49 1   
    46   33   34 ar  
    47   34   35 1   
    48   34   39 ar  
    49   35   36 1   
    50   35   37 1   
    51   35   38 1   
    52   39   50 1   
@<TRIPOS>SUBSTRUCTURE
     1 20V         1 TEMP              0 ****  ****    0 ROOT
