@<TRIPOS>MOLECULE
20W
   72    76     1     0     0
SMALL
bcc


@<TRIPOS>ATOM
      1 C2         -0.2300   -0.1100   -0.5460 c         1 20W      0.713500
      2 C3          1.2570   -0.0670   -0.0400 c3        1 20W     -0.024700
      3 C5          0.6490    1.1100    3.6410 cc        1 20W     -0.001700
      4 C6         -0.5540    0.9840    2.9560 cd        1 20W     -0.148000
      5 C7          1.0910    0.3550    1.3750 cc        1 20W     -0.300400
      6 C8         -0.2970    0.5450    1.6310 cd        1 20W      0.053600
      7 C11         2.1110    0.9280   -0.8940 c3        1 20W      0.177500
      8 C13         2.3840   -1.2610   -1.7460 c3        1 20W      0.066500
      9 C14         1.9350   -1.4440   -0.2680 c3        1 20W     -0.008400
     10 C21         1.2610    2.0390   -1.5110 c3        1 20W     -0.068400
     11 C22         2.0190    3.3270   -1.8390 c3        1 20W     -0.054000
     12 C23         1.0660    4.2290   -2.6200 c3        1 20W     -0.088433
     13 C24         2.4330    4.0480   -0.5640 c3        1 20W     -0.088433
     14 C25         3.2490    3.0620   -2.6910 c3        1 20W     -0.088433
     15 N1         -1.0770    0.2580    0.5100 n         1 20W     -0.437100
     16 CL1         0.7880    1.6000    5.2260 cl        1 20W      0.021600
     17 O2         -0.5960   -0.4310   -1.6820 o         1 20W     -0.604500
     18 N12         2.8300    0.1280   -1.9180 n3        1 20W     -0.771200
     19 C31         1.1080   -2.6320    0.0860 ca        1 20W     -0.123300
     20 C36         0.9240   -2.8600    1.4600 ca        1 20W     -0.089000
     21 C35         0.1660   -3.9280    1.9280 ca        1 20W     -0.108000
     22 C34        -0.4270   -4.8140    1.0310 ca        1 20W     -0.081000
     23 C32         0.5190   -3.5430   -0.8180 ca        1 20W      0.109900
     24 F1          0.6850   -3.3970   -2.1610 f         1 20W     -0.175900
     25 C33        -0.2500   -4.6320   -0.3420 ca        1 20W     -0.010600
     26 CL2        -0.9710   -5.7300   -1.4140 cl        1 20W     -0.042400
     27 C41         3.4660   -2.2450   -2.1500 c         1 20W      0.564100
     28 N42         3.1790   -2.9080   -3.5040 n4        1 20W     -0.560200
     29 C43         4.3090   -3.5930   -4.1200 ca        1 20W     -0.015400
     30 C48         5.2590   -2.8690   -4.8610 ca        1 20W     -0.055000
     31 C44         4.4570   -5.0010   -3.9820 ca        1 20W      0.192100
     32 O49         3.4900   -5.6380   -3.2630 os        1 20W     -0.327900
     33 C50         3.5770   -7.0660   -3.1320 c3        1 20W      0.108700
     34 C45         5.5520   -5.6460   -4.5840 ca        1 20W     -0.115000
     35 C46         6.4870   -4.9030   -5.3140 ca        1 20W     -0.111600
     36 C51         7.5920   -5.6720   -5.9100 c         1 20W      0.558700
     37 O51         7.7330   -6.8850   -5.9260 o         1 20W     -0.372100
     38 N51         8.7080   -4.9070   -6.5850 n4        1 20W     -0.755400
     39 C47         6.3380   -3.5170   -5.4540 ca        1 20W     -0.124000
     40 O41         4.4970   -2.5450   -1.5820 o         1 20W     -0.396100
     41 S4          1.9950    0.7160    2.7000 ss        1 20W      0.147200
     42 H1         -1.5450    1.1930    3.3680 ha        1 20W      0.191000
     43 H2          2.8640    1.4070   -0.1990 h1        1 20W      0.075700
     44 H3          1.4540   -1.3590   -2.3960 h1        1 20W      0.149700
     45 H4          2.8610   -1.4820    0.3790 hc        1 20W      0.085700
     46 H5          0.4580    2.2990   -0.7680 hc        1 20W      0.069200
     47 H6          0.7540    1.6610   -2.4390 hc        1 20W      0.069200
     48 H7          0.7870    3.7540   -3.5900 hc        1 20W      0.039144
     49 H8          0.1370    4.4150   -2.0300 hc        1 20W      0.039144
     50 H9          1.5540    5.2110   -2.8320 hc        1 20W      0.039144
     51 H10         3.1670    3.4450    0.0220 hc        1 20W      0.039144
     52 H11         1.5420    4.2500    0.0770 hc        1 20W      0.039144
     53 H12         2.9120    5.0250   -0.8190 hc        1 20W      0.039144
     54 H13         2.9880    2.4190   -3.5650 hc        1 20W      0.039144
     55 H14         3.6610    4.0290   -3.0720 hc        1 20W      0.039144
     56 H15         4.0470    2.5610   -2.0920 hc        1 20W      0.039144
     57 H16        -2.0590    0.3590    0.4560 hn        1 20W      0.365500
     58 H17         3.8200    0.2110   -1.7580 hn        1 20W      0.358800
     59 H19         1.3790   -2.1590    2.1820 ha        1 20W      0.159000
     60 H20         0.0290   -4.0720    3.0130 ha        1 20W      0.169000
     61 H21        -1.0380   -5.6550    1.4020 ha        1 20W      0.177000
     62 H22         2.8300   -2.1790   -4.1430 hn        1 20W      0.491300
     63 H23         5.1600   -1.7740   -4.9870 ha        1 20W      0.184000
     64 H24         4.5070   -7.3450   -2.5830 h1        1 20W      0.083033
     65 H25         3.5270   -7.5490   -4.1380 h1        1 20W      0.083033
     66 H26         2.6630   -7.3060   -2.5250 h1        1 20W      0.083033
     67 H27         5.6710   -6.7410   -4.4810 ha        1 20W      0.200000
     68 H28         9.1300   -4.2410   -5.9290 hn        1 20W      0.480467
     69 H29         8.3460   -4.3950   -7.3970 hn        1 20W      0.480467
     70 H30         7.0470   -2.9030   -6.0310 ha        1 20W      0.154000
     71 H422        2.4090   -3.5900   -3.3420 hn        1 20W      0.491300
     72 H513        9.4330   -5.5670   -6.9050 hn        1 20W      0.480467
@<TRIPOS>BOND
     1    1    2 1   
     2    1   15 1   
     3    1   17 2   
     4    2    5 1   
     5    2    7 1   
     6    2    9 1   
     7    3    4 2   
     8    3   16 1   
     9    3   41 1   
    10    4    6 1   
    11    4   42 1   
    12    5    6 2   
    13    5   41 1   
    14    6   15 1   
    15    7   10 1   
    16    7   18 1   
    17    7   43 1   
    18    8    9 1   
    19    8   18 1   
    20    8   27 1   
    21    8   44 1   
    22    9   19 1   
    23    9   45 1   
    24   10   11 1   
    25   10   46 1   
    26   10   47 1   
    27   11   12 1   
    28   11   13 1   
    29   11   14 1   
    30   12   48 1   
    31   12   49 1   
    32   12   50 1   
    33   13   51 1   
    34   13   52 1   
    35   13   53 1   
    36   14   54 1   
    37   14   55 1   
    38   14   56 1   
    39   15   57 1   
    40   18   58 1   
    41   19   20 ar  
    42   19   23 ar  
    43   20   21 ar  
    44   20   59 1   
    45   21   22 ar  
    46   21   60 1   
    47   22   25 ar  
    48   22   61 1   
    49   23   24 1   
    50   23   25 ar  
    51   25   26 1   
    52   27   28 1   
    53   27   40 2   
    54   28   29 1   
    55   28   62 1   
    56   28   71 1   
    57   29   30 ar  
    58   29   31 ar  
    59   30   39 ar  
    60   30   63 1   
    61   31   32 1   
    62   31   34 ar  
    63   32   33 1   
    64   33   64 1   
    65   33   65 1   
    66   33   66 1   
    67   34   35 ar  
    68   34   67 1   
    69   35   36 1   
    70   35   39 ar  
    71   36   37 2   
    72   36   38 1   
    73   38   68 1   
    74   38   69 1   
    75   38   72 1   
    76   39   70 1   
@<TRIPOS>SUBSTRUCTURE
     1 20W         1 TEMP              0 ****  ****    0 ROOT
