@<TRIPOS>MOLECULE
20W
   71    75     1     0     0
SMALL
bcc


@<TRIPOS>ATOM
      1 C2         -0.1410   -0.1970   -0.2760 c         1 20W      0.713500
      2 C3          1.3930    0.0500   -0.0890 c3        1 20W     -0.021700
      3 C5          1.4200    1.1430    3.6710 cc        1 20W     -0.019700
      4 C6          0.1280    0.8460    3.2540 cd        1 20W     -0.151000
      5 C7          1.4660    0.4590    1.3440 cc        1 20W     -0.276400
      6 C8          0.1540    0.4470    1.8910 cd        1 20W      0.045600
      7 C11         1.9270    1.1460   -1.0680 c3        1 20W      0.187500
      8 C13         2.4790   -0.9880   -1.9650 c3        1 20W      0.090500
      9 C14         2.2140   -1.2100   -0.4490 c3        1 20W     -0.017400
     10 C21         0.8200    2.1060   -1.5110 c3        1 20W     -0.067400
     11 C22         1.3010    3.4900   -1.9490 c3        1 20W     -0.052000
     12 C23         0.1050    4.2170   -2.5600 c3        1 20W     -0.087100
     13 C24         1.7940    4.2930   -0.7520 c3        1 20W     -0.087100
     14 C25         2.4040    3.4070   -2.9900 c3        1 20W     -0.087100
     15 N1         -0.7920    0.0460    0.9520 ns        1 20W     -0.454100
     16 Cl1         1.8250    1.6500    5.2090 cl        1 20W     -0.007400
     17 O2         -0.7200   -0.5540   -1.3050 o         1 20W     -0.582500
     18 N12         2.5650    0.4550   -2.2050 n7        1 20W     -0.776200
     19 C31         1.6260   -2.5050   -0.0010 ca        1 20W     -0.113300
     20 C36         1.8070   -2.8170    1.3570 ca        1 20W     -0.096000
     21 C35         1.3090   -3.9890    1.9130 ca        1 20W     -0.128000
     22 C34         0.6150   -4.8990    1.1190 ca        1 20W     -0.093000
     23 C32         0.9300   -3.4340   -0.8060 ca        1 20W      0.138900
     24 F1          0.7380   -3.2110   -2.1290 f         1 20W     -0.132900
     25 C33         0.4260   -4.6310   -0.2360 ca        1 20W     -0.020600
     26 Cl2        -0.4180   -5.7620   -1.1790 cl        1 20W     -0.060400
     27 C41         3.7590   -1.7270   -2.3830 c         1 20W      0.671100
     28 N42         3.5700   -2.8930   -3.1380 ns        1 20W     -0.441100
     29 C43         4.5400   -3.7080   -3.6850 ca        1 20W      0.172600
     30 C48         5.9330   -3.4780   -3.5390 ca        1 20W     -0.174000
     31 C44         4.1500   -4.8650   -4.4610 ca        1 20W      0.067100
     32 O49         2.7900   -5.0580   -4.5810 os        1 20W     -0.324900
     33 C50         2.3600   -6.2010   -5.3190 c3        1 20W      0.111700
     34 C45         5.0970   -5.6970   -5.0330 ca        1 20W     -0.093000
     35 C46         6.4760   -5.4290   -4.8710 ca        1 20W     -0.239600
     36 C51         7.3860   -6.3500   -5.5110 c         1 20W      0.583700
     37 O51         7.1660   -7.3690   -6.1540 o         1 20W     -0.443100
     38 N51         8.8770   -6.0360   -5.3970 nz        1 20W     -0.764400
     39 C47         6.8710   -4.3150   -4.1170 ca        1 20W     -0.065000
     40 O41         4.8840   -1.3090   -2.0710 o         1 20W     -0.572100
     41 S4          2.5750    0.9470    2.4550 ss        1 20W      0.142200
     42 H1         -0.7700    0.9080    3.8720 ha        1 20W      0.180000
     43 H2          2.7010    1.7460   -0.5010 h1        1 20W      0.055700
     44 H3          1.5790   -1.3260   -2.5620 h1        1 20W      0.127700
     45 H4          3.2120   -1.1090    0.0760 hc        1 20W      0.078700
     46 H5          0.2290    1.6400   -2.3450 hc        1 20W      0.063200
     47 H6          0.1240    2.2500   -0.6400 hc        1 20W      0.063200
     48 H7         -0.7380    4.2600   -1.8290 hc        1 20W      0.036367
     49 H8         -0.2430    3.6870   -3.4780 hc        1 20W      0.036367
     50 H9          0.3890    5.2610   -2.8370 hc        1 20W      0.036367
     51 H10         0.9930    4.3710    0.0210 hc        1 20W      0.036367
     52 H11         2.6910    3.8150   -0.2910 hc        1 20W      0.036367
     53 H12         2.0760    5.3240   -1.0760 hc        1 20W      0.036367
     54 H13         3.3600    3.0610   -2.5280 hc        1 20W      0.036367
     55 H14         2.1180    2.7030   -3.8070 hc        1 20W      0.036367
     56 H15         2.5840    4.4160   -3.4370 hc        1 20W      0.036367
     57 H16        -1.7660    0.0090    1.1050 hn        1 20W      0.353500
     58 H17         3.5210    0.7530   -2.2920 hn        1 20W      0.372800
     59 H19         2.3460   -2.1000    1.9990 ha        1 20W      0.149000
     60 H20         1.4590   -4.1980    2.9840 ha        1 20W      0.153000
     61 H21         0.2130   -5.8260    1.5590 ha        1 20W      0.161000
     62 H22         2.6160   -3.1640   -3.3140 hn        1 20W      0.367500
     63 H23         6.2880   -2.6100   -2.9520 ha        1 20W      0.202000
     64 H24         1.2420   -6.1310   -5.2550 h1        1 20W      0.061700
     65 H25         2.7000   -6.1320   -6.3810 h1        1 20W      0.061700
     66 H26         2.7270   -7.1400   -4.8390 h1        1 20W      0.061700
     67 H27         4.7920   -6.5780   -5.6240 ha        1 20W      0.173000
     68 H28         9.1590   -6.0410   -4.4140 hn        1 20W      0.463133
     69 H29         9.4170   -6.7440   -5.9090 hn        1 20W      0.463133
     70 H30         7.9320   -4.0680   -3.9560 ha        1 20W      0.122000
     71 H513        9.0670   -5.1130   -5.7930 hn        1 20W      0.463133
@<TRIPOS>BOND
     1    1    2 1   
     2    1   15 1   
     3    1   17 2   
     4    2    5 1   
     5    2    7 1   
     6    2    9 1   
     7    3    4 2   
     8    3   16 1   
     9    3   41 1   
    10    4    6 1   
    11    4   42 1   
    12    5    6 2   
    13    5   41 1   
    14    6   15 1   
    15    7   10 1   
    16    7   18 1   
    17    7   43 1   
    18    8    9 1   
    19    8   18 1   
    20    8   27 1   
    21    8   44 1   
    22    9   19 1   
    23    9   45 1   
    24   10   11 1   
    25   10   46 1   
    26   10   47 1   
    27   11   12 1   
    28   11   13 1   
    29   11   14 1   
    30   12   48 1   
    31   12   49 1   
    32   12   50 1   
    33   13   51 1   
    34   13   52 1   
    35   13   53 1   
    36   14   54 1   
    37   14   55 1   
    38   14   56 1   
    39   15   57 1   
    40   18   58 1   
    41   19   20 ar  
    42   19   23 ar  
    43   20   21 ar  
    44   20   59 1   
    45   21   22 ar  
    46   21   60 1   
    47   22   25 ar  
    48   22   61 1   
    49   23   24 1   
    50   23   25 ar  
    51   25   26 1   
    52   27   28 1   
    53   27   40 2   
    54   28   29 1   
    55   28   62 1   
    56   29   30 ar  
    57   29   31 ar  
    58   30   39 ar  
    59   30   63 1   
    60   31   32 1   
    61   31   34 ar  
    62   32   33 1   
    63   33   64 1   
    64   33   65 1   
    65   33   66 1   
    66   34   35 ar  
    67   34   67 1   
    68   35   36 1   
    69   35   39 ar  
    70   36   37 2   
    71   36   38 1   
    72   38   68 1   
    73   38   69 1   
    74   38   71 1   
    75   39   70 1   
@<TRIPOS>SUBSTRUCTURE
     1 20W         1 TEMP              0 ****  ****    0 ROOT
