@<TRIPOS>MOLECULE
20W
   71    75     1     0     0
SMALL
bcc


@<TRIPOS>ATOM
      1 C2         -0.1280   -0.1740   -0.2720 c         1 20W      0.713500
      2 C3          1.4080    0.0590   -0.0860 c3        1 20W     -0.021700
      3 C5          1.4500    1.1490    3.6750 cc        1 20W     -0.019700
      4 C6          0.1550    0.8630    3.2590 cd        1 20W     -0.151000
      5 C7          1.4870    0.4660    1.3470 cc        1 20W     -0.276400
      6 C8          0.1760    0.4650    1.8960 cd        1 20W      0.045600
      7 C11         1.9510    1.1510   -1.0650 c3        1 20W      0.187500
      8 C13         2.4830   -0.9870   -1.9640 c3        1 20W      0.090500
      9 C14         2.2170   -1.2080   -0.4490 c3        1 20W     -0.017400
     10 C21         0.8520    2.1210   -1.5060 c3        1 20W     -0.067400
     11 C22         1.3450    3.5020   -1.9440 c3        1 20W     -0.052000
     12 C23         0.1550    4.2400   -2.5520 c3        1 20W     -0.087100
     13 C24         1.8470    4.2980   -0.7470 c3        1 20W     -0.087100
     14 C25         2.4460    3.4090   -2.9870 c3        1 20W     -0.087100
     15 N1         -0.7760    0.0740    0.9580 n         1 20W     -0.454100
     16 CL1         1.8610    1.6510    5.2130 cl        1 20W     -0.007400
     17 O2         -0.7120   -0.5250   -1.3000 o         1 20W     -0.582500
     18 N12         2.5820    0.4550   -2.2030 n3        1 20W     -0.776200
     19 C31         1.6180   -2.4980   -0.0010 ca        1 20W     -0.113300
     20 C36         1.7980   -2.8130    1.3570 ca        1 20W     -0.096000
     21 C35         1.2900   -3.9810    1.9120 ca        1 20W     -0.128000
     22 C34         0.5860   -4.8830    1.1180 ca        1 20W     -0.093000
     23 C32         0.9130   -3.4200   -0.8060 ca        1 20W      0.138900
     24 F1          0.7210   -3.1940   -2.1280 f         1 20W     -0.132900
     25 C33         0.3990   -4.6120   -0.2370 ca        1 20W     -0.020600
     26 CL2        -0.4560   -5.7350   -1.1800 cl        1 20W     -0.060400
     27 C41         3.7550   -1.7370   -2.3840 c         1 20W      0.671100
     28 N42         3.5550   -2.9010   -3.1400 n         1 20W     -0.441100
     29 C43         4.5180   -3.7240   -3.6890 ca        1 20W      0.172600
     30 C48         5.9120   -3.5070   -3.5450 ca        1 20W     -0.174000
     31 C44         4.1160   -4.8760   -4.4660 ca        1 20W      0.067100
     32 O49         2.7530   -5.0580   -4.5850 os        1 20W     -0.324900
     33 C50         2.3120   -6.1960   -5.3220 c3        1 20W      0.111700
     34 C45         5.0540   -5.7160   -5.0400 ca        1 20W     -0.093000
     35 C46         6.4360   -5.4610   -4.8800 ca        1 20W     -0.239600
     36 C51         7.3370   -6.3890   -5.5220 c         1 20W      0.583700
     37 O51         7.1070   -7.4060   -6.1650 o         1 20W     -0.443100
     38 N51         8.8310   -6.0880   -5.4100 n4        1 20W     -0.764400
     39 C47         6.8420   -4.3510   -4.1250 ca        1 20W     -0.065000
     40 O41         4.8850   -1.3300   -2.0730 o         1 20W     -0.572100
     41 S4          2.6020    0.9430    2.4580 ss        1 20W      0.142200
     42 H1         -0.7420    0.9330    3.8780 ha        1 20W      0.180000
     43 H2          2.7310    1.7430   -0.4980 h1        1 20W      0.055700
     44 H3          1.5790   -1.3160   -2.5610 h1        1 20W      0.127700
     45 H4          3.2170   -1.1160    0.0760 hc        1 20W      0.078700
     46 H5          0.2560    1.6620   -2.3390 hc        1 20W      0.063200
     47 H6          0.1590    2.2710   -0.6340 hc        1 20W      0.063200
     48 H7          0.4480    5.2810   -2.8290 hc        1 20W      0.036367
     49 H8         -0.6860    4.2900   -1.8200 hc        1 20W      0.036367
     50 H9         -0.1990    3.7130   -3.4700 hc        1 20W      0.036367
     51 H10         2.1380    5.3270   -1.0700 hc        1 20W      0.036367
     52 H11         2.7410    3.8130   -0.2880 hc        1 20W      0.036367
     53 H12         1.0490    4.3830    0.0280 hc        1 20W      0.036367
     54 H13         2.6340    4.4170   -3.4330 hc        1 20W      0.036367
     55 H14         2.1520    2.7080   -3.8030 hc        1 20W      0.036367
     56 H15         3.3990    3.0540   -2.5260 hc        1 20W      0.036367
     57 H16        -1.7500    0.0460    1.1120 hn        1 20W      0.353500
     58 H17         3.5400    0.7450   -2.2910 hn        1 20W      0.372800
     59 H19         2.3440   -2.1010    1.9990 ha        1 20W      0.149000
     60 H20         1.4380   -4.1920    2.9830 ha        1 20W      0.153000
     61 H21         0.1760   -5.8070    1.5580 ha        1 20W      0.161000
     62 H22         2.5990   -3.1630   -3.3160 hn        1 20W      0.367500
     63 H23         6.2760   -2.6430   -2.9580 ha        1 20W      0.202000
     64 H24         1.1960   -6.1160   -5.2560 h1        1 20W      0.061700
     65 H25         2.6520   -6.1300   -6.3840 h1        1 20W      0.061700
     66 H26         2.6720   -7.1380   -4.8430 h1        1 20W      0.061700
     67 H27         4.7400   -6.5940   -5.6310 ha        1 20W      0.173000
     68 H28         9.1140   -6.0970   -4.4280 hn        1 20W      0.463133
     69 H29         9.0280   -5.1660   -5.8060 hn        1 20W      0.463133
     70 H30         7.9050   -4.1140   -3.9650 ha        1 20W      0.122000
     71 H513        9.3640   -6.8010   -5.9240 hn        1 20W      0.463133
@<TRIPOS>BOND
     1    1    2 1   
     2    1   15 1   
     3    1   17 2   
     4    2    5 1   
     5    2    7 1   
     6    2    9 1   
     7    3    4 2   
     8    3   16 1   
     9    3   41 1   
    10    4    6 1   
    11    4   42 1   
    12    5    6 2   
    13    5   41 1   
    14    6   15 1   
    15    7   10 1   
    16    7   18 1   
    17    7   43 1   
    18    8    9 1   
    19    8   18 1   
    20    8   27 1   
    21    8   44 1   
    22    9   19 1   
    23    9   45 1   
    24   10   11 1   
    25   10   46 1   
    26   10   47 1   
    27   11   12 1   
    28   11   13 1   
    29   11   14 1   
    30   12   48 1   
    31   12   49 1   
    32   12   50 1   
    33   13   51 1   
    34   13   52 1   
    35   13   53 1   
    36   14   54 1   
    37   14   55 1   
    38   14   56 1   
    39   15   57 1   
    40   18   58 1   
    41   19   20 ar  
    42   19   23 ar  
    43   20   21 ar  
    44   20   59 1   
    45   21   22 ar  
    46   21   60 1   
    47   22   25 ar  
    48   22   61 1   
    49   23   24 1   
    50   23   25 ar  
    51   25   26 1   
    52   27   28 1   
    53   27   40 2   
    54   28   29 1   
    55   28   62 1   
    56   29   30 ar  
    57   29   31 ar  
    58   30   39 ar  
    59   30   63 1   
    60   31   32 1   
    61   31   34 ar  
    62   32   33 1   
    63   33   64 1   
    64   33   65 1   
    65   33   66 1   
    66   34   35 ar  
    67   34   67 1   
    68   35   36 1   
    69   35   39 ar  
    70   36   37 2   
    71   36   38 1   
    72   38   68 1   
    73   38   69 1   
    74   38   71 1   
    75   39   70 1   
@<TRIPOS>SUBSTRUCTURE
     1 20W         1 TEMP              0 ****  ****    0 ROOT
