@<TRIPOS>MOLECULE
20X
   42    43     1     0     0
SMALL
bcc


@<TRIPOS>ATOM
      1 C1         -2.1280    0.1350   -0.6970 c3        1 20X      0.238500
      2 F1          7.3030   -1.8850    1.6000 f         1 20X     -0.134900
      3 N1         -0.7120    0.3890   -0.8860 n         1 20X     -0.482900
      4 S1         -1.2100    2.8980   -1.6150 s         1 20X     -0.525400
      5 C2         -2.5930   -1.1360   -1.4610 c3        1 20X      0.090100
      6 N2          1.0750    2.0270   -0.8210 n         1 20X     -0.293900
      7 O2         -2.5580   -0.9460   -2.8620 oh        1 20X     -0.596800
      8 C3         -4.0690   -1.4060   -1.1210 c3        1 20X      0.108100
      9 N3          1.9910    1.1620   -0.3870 n2        1 20X     -0.480300
     10 O3         -3.3600    0.8230    3.2280 oh        1 20X     -0.591800
     11 C4         -4.2500   -1.5130    0.4020 c3        1 20X      0.122100
     12 O4         -5.6240   -1.5870    0.7340 oh        1 20X     -0.592800
     13 C5         -3.6880   -0.2510    1.0730 c3        1 20X      0.108100
     14 O5         -2.3140   -0.0850    0.7170 os        1 20X     -0.455600
     15 C6         -3.7060   -0.3900    2.5990 c3        1 20X      0.140400
     16 O6         -4.4860   -2.6460   -1.6630 oh        1 20X     -0.605800
     17 C7         -0.2770    1.7000   -1.0580 c         1 20X      0.580400
     18 C8          3.2420    1.5210   -0.2580 ce        1 20X      0.399800
     19 C9          4.2680    0.5990    0.2350 ca        1 20X     -0.147900
     20 C10         5.6090    1.0080    0.1560 ca        1 20X     -0.078000
     21 C11         6.6310    0.1830    0.6090 ca        1 20X     -0.171000
     22 C12         6.3140   -1.0760    1.1560 ca        1 20X      0.141900
     23 C13         4.9730   -1.4920    1.2420 ca        1 20X     -0.171000
     24 C14         3.9620   -0.6540    0.7820 ca        1 20X     -0.078000
     25 H1         -2.7330    1.0350   -1.0350 h2        1 20X      0.123700
     26 HN1        -0.1210   -0.2550   -0.3980 hn        1 20X      0.324500
     27 H2         -1.9650   -2.0240   -1.1730 h1        1 20X      0.061700
     28 HN2         1.3170    2.9680   -1.1020 hn        1 20X      0.340500
     29 HO2        -1.6490   -0.7380   -3.1080 ho        1 20X      0.424000
     30 H3         -4.7100   -0.5770   -1.5330 h1        1 20X      0.070700
     31 HO3        -2.4780    1.0630    2.9180 ho        1 20X      0.409000
     32 H4         -3.7160   -2.4300    0.7790 h1        1 20X      0.061700
     33 HO4        -5.9890   -2.3220    0.2210 ho        1 20X      0.426000
     34 H5         -4.2760    0.6540    0.7580 h1        1 20X      0.078700
     35 H6         -3.0110   -1.2110    2.9170 h1        1 20X      0.065200
     36 H6A        -4.7560   -0.6140    2.9300 h1        1 20X      0.065200
     37 HO6        -4.3380   -2.5950   -2.6170 ho        1 20X      0.429000
     38 H8          3.6250    2.5350   -0.5090 h4        1 20X     -0.002200
     39 H10         5.8600    1.9920   -0.2700 ha        1 20X      0.145000
     40 H11         7.6820    0.5010    0.5470 ha        1 20X      0.154000
     41 H13         4.7350   -2.4760    1.6720 ha        1 20X      0.154000
     42 H14         2.9160   -0.9900    0.8560 ha        1 20X      0.145000
@<TRIPOS>BOND
     1    1    3 1   
     2    1    5 1   
     3    1   14 1   
     4    1   25 1   
     5    2   22 1   
     6    3   17 1   
     7    3   26 1   
     8    4   17 2   
     9    5    7 1   
    10    5    8 1   
    11    5   27 1   
    12    6    9 1   
    13    6   17 1   
    14    6   28 1   
    15    7   29 1   
    16    8   11 1   
    17    8   16 1   
    18    8   30 1   
    19    9   18 2   
    20   10   15 1   
    21   10   31 1   
    22   11   12 1   
    23   11   13 1   
    24   11   32 1   
    25   12   33 1   
    26   13   14 1   
    27   13   15 1   
    28   13   34 1   
    29   15   35 1   
    30   15   36 1   
    31   16   37 1   
    32   18   19 1   
    33   18   38 1   
    34   19   20 ar  
    35   19   24 ar  
    36   20   21 ar  
    37   20   39 1   
    38   21   22 ar  
    39   21   40 1   
    40   22   23 ar  
    41   23   24 ar  
    42   23   41 1   
    43   24   42 1   
@<TRIPOS>SUBSTRUCTURE
     1 20X         1 TEMP              0 ****  ****    0 ROOT
