@<TRIPOS>MOLECULE
20X
   42    40     1     0     0
SMALL
bcc


@<TRIPOS>ATOM
      1 C1          0.2890   -0.6600    1.5190 c3        1 20X      0.107000
      2 F1          0.5370   -0.5340   -7.3610 f         1 20X     -0.099000
      3 N1         -0.0120   -0.7100    0.1580 n         1 20X     -0.324000
      4 S1         -2.2980   -2.0190    0.7180 s         1 20X     -0.297000
      5 C2          1.6600   -0.9190    1.6830 c3        1 20X      0.006000
      6 N2         -1.7790   -0.7260   -1.6020 n         1 20X     -0.280000
      7 O2          1.8430   -2.4440    2.0900 oh        1 20X     -0.319000
      8 C3          2.2090   -0.1670    2.6130 c3        1 20X     -0.005000
      9 N3         -2.6080    0.3810   -1.7870 n2        1 20X     -0.050000
     10 O3         -1.5010    1.4040    4.8780 oh        1 20X     -0.321000
     11 C4          1.6670    0.1620    3.8540 c3        1 20X     -0.031000
     12 O4          1.9070   -0.9620    4.7780 oh        1 20X     -0.316000
     13 C5          0.1310    0.4600    3.8270 c3        1 20X     -0.046000
     14 O5         -0.1880    0.7910    2.1060 os        1 20X     -0.276000
     15 C6         -0.1380    1.4410    4.5210 c3        1 20X     -0.016000
     16 O6          2.5100    1.3100    1.8610 oh        1 20X     -0.327000
     17 C7         -1.3290   -1.0770   -0.2710 c2        1 20X      0.196000
     18 C8         -2.6280    1.0080   -2.9600 c1        1 20X     -0.109000
     19 C9         -1.7440    0.5170   -4.1040 c1        1 20X     -0.108000
     20 C10        -0.4330    0.9560   -4.2030 c2        1 20X     -0.081000
     21 C11         0.3440    0.5820   -5.2900 c1        1 20X     -0.166000
     22 C12        -0.1910   -0.2310   -6.2780 c1        1 20X      0.105000
     23 C13        -1.5010   -0.6690   -6.1790 c1        1 20X     -0.163000
     24 C14        -2.2780   -0.2950   -5.0920 c1        1 20X     -0.095000
     25 H1         -0.2170   -1.3630    1.9770 h2        1 20X      0.179000
     26 HN1         0.6150   -0.4680   -0.4560 hn        1 20X      0.255000
     27 H2          2.1170   -0.7590    0.8320 h1        1 20X      0.124000
     28 HN2        -1.5770   -1.2670   -2.3090 hn        1 20X      0.258000
     29 HO2         2.2720   -2.8720    1.4450 ho        1 20X      0.220000
     30 H3          3.0820   -0.5710    2.8020 h1        1 20X      0.112000
     31 HO3        -1.7790    2.2280    5.0750 ho        1 20X      0.214000
     32 H4          2.1310    0.9520    4.1960 h1        1 20X      0.134000
     33 HO4         2.5160   -0.7250    5.3820 ho        1 20X      0.210000
     34 H5         -0.3750   -0.3220    4.1250 h1        1 20X      0.117000
     35 H6          0.4150    1.4290    5.3360 h1        1 20X      0.100000
     36 H6A         0.0450    2.2610    4.0130 h1        1 20X      0.100000
     37 HO6         3.3650    1.5250    1.9610 ho        1 20X      0.220000
     38 H8         -3.2080    1.7840   -3.0890 ha        1 20X      0.171000
     39 H10        -0.0570    1.5270   -3.5090 ha        1 20X      0.143000
     40 H11         1.2670    0.8910   -5.3590 ha        1 20X      0.154000
     41 H13        -1.8780   -1.2430   -6.8770 ha        1 20X      0.157000
     42 H14        -3.2020   -0.6050   -5.0230 ha        1 20X      0.148000
@<TRIPOS>BOND
     1    1    3 1   
     2    1    5 1   
     3    1   14 1   
     4    1   25 1   
     5    2   22 1   
     6    3   17 1   
     7    3   26 1   
     8    4   17 1   
     9    5    7 1   
    10    5    8 1   
    11    5   27 1   
    12    6    9 1   
    13    6   17 1   
    14    6   28 1   
    15    7   29 1   
    16    8   11 1   
    17    8   16 1   
    18    8   30 1   
    19    9   18 1   
    20   10   15 1   
    21   10   31 1   
    22   11   12 1   
    23   11   13 1   
    24   11   32 1   
    25   12   33 1   
    26   13   14 1   
    27   13   15 1   
    28   13   34 1   
    29   15   35 1   
    30   15   36 1   
    31   16   37 1   
    32   18   38 1   
    33   19   20 1   
    34   19   24 1   
    35   20   21 1   
    36   20   39 1   
    37   21   40 1   
    38   22   23 1   
    39   23   41 1   
    40   24   42 1   
@<TRIPOS>SUBSTRUCTURE
     1 20X         1 TEMP              0 ****  ****    0 ROOT
