@<TRIPOS>MOLECULE
20X
   44    44     1     0     0
SMALL
bcc


@<TRIPOS>ATOM
      1 C1       -232.0850 -146.9290  704.6660 c3        1 20X      0.050000
      2 F1        499.2330  321.3520-1513.9170 f         1 20X      0.018000
      3 N1       -230.8860 -146.0420  704.4880 n4        1 20X     -0.077000
      4 S1       -228.3630 -146.5820  704.8210 s         1 20X      0.084000
      5 C2       -233.1920 -146.2370  705.5060 c3        1 20X      0.001000
      6 N2       -229.8160 -147.4150  702.7710 n         1 20X     -0.326000
      7 O2       -232.6180 -145.9680  706.7660 oh        1 20X     -0.344000
      8 C3       -234.3800 -147.2100  705.5890 c3        1 20X      0.003000
      9 N3        500.5300  315.1420-1514.6090 n1        1 20X      0.116000
     10 O3       -232.8910 -148.8850  701.2020 oh        1 20X     -0.319000
     11 C4       -234.8490 -147.5860  704.1680 c3        1 20X     -0.030000
     12 O4       -235.8150 -148.6030  704.3490 oh        1 20X     -0.310000
     13 C5       -233.6660 -148.1290  703.3500 c3        1 20X     -0.028000
     14 O5       -232.5880 -147.1740  703.3570 os        1 20X     -0.294000
     15 C6       -233.9930 -148.3050  701.8620 c3        1 20X     -0.018000
     16 O6       -235.3900 -146.5130  706.2880 oh        1 20X     -0.320000
     17 C7       -229.6440 -146.7550  703.9420 c2        1 20X     -0.023000
     18 C8        499.8290  316.0500-1514.4310 c1        1 20X     -0.192000
     19 C9        498.9450  317.1770-1514.2080 c3        1 20X     -0.040000
     20 C10       499.2520  317.8700-1512.9290 c2        1 20X      0.063000
     21 C11       499.3140  319.2260-1512.8380 c2        1 20X     -0.248000
     22 C12       499.1600  320.0350-1514.0110 c2        1 20X      0.384000
     23 C13       498.9470  319.4230-1515.2900 c2        1 20X     -0.248000
     24 C14       498.8820  318.0680-1515.3980 c2        1 20X      0.063000
     25 H1       -231.7440 -147.8870  705.1620 hx        1 20X      0.158000
     26 HN1      -230.6280 -145.6680  705.4240 hn        1 20X      0.275000
     27 H2       -233.5250 -145.2750  705.0220 h1        1 20X      0.125000
     28 HN2      -229.0180 -147.8640  702.3720 hn        1 20X      0.284000
     29 HO2      -233.3440 -145.7880  707.3850 ho        1 20X      0.268000
     30 H3       -234.0910 -148.1410  706.1540 h1        1 20X      0.119000
     31 HO3      -232.9810 -149.8450  701.2600 ho        1 20X      0.217000
     32 H4       -235.2920 -146.6840  703.6630 h1        1 20X      0.119000
     33 HO4      -236.4050 -148.5870  703.5850 ho        1 20X      0.227000
     34 H5       -233.3040 -149.0980  703.7910 h1        1 20X      0.117000
     35 H6       -234.1390 -147.3040  701.3720 h1        1 20X      0.117000
     36 H6A      -234.9230 -148.9240  701.7690 h1        1 20X      0.117000
     37 HO6      -236.1480 -147.1120  706.3600 ho        1 20X      0.247000
     38 H8        497.8770  316.7510-1514.0820 hc        1 20X      0.234000
     39 H10       499.4040  317.2280-1512.0370 ha        1 20X      0.208000
     40 H11       499.5030  319.7320-1511.8700 ha        1 20X      0.217000
     41 H13       498.8570  320.0780-1516.1790 ha        1 20X      0.217000
     42 H14       498.7530  317.5770-1516.3830 ha        1 20X      0.208000
     43 H12      -231.1410 -145.2640  703.8680 hn        1 20X      0.275000
     44 H22      -230.6980 -147.5180  702.3090 hn        1 20X      0.284000
@<TRIPOS>BOND
     1    1    3 1   
     2    1    5 1   
     3    1   14 1   
     4    1   25 1   
     5    2   22 1   
     6    3   17 1   
     7    3   26 1   
     8    3   43 1   
     9    4   17 1   
    10    5    7 1   
    11    5    8 1   
    12    5   27 1   
    13    6   17 1   
    14    6   28 1   
    15    6   44 1   
    16    7   29 1   
    17    8   11 1   
    18    8   16 1   
    19    8   30 1   
    20    9   18 1   
    21   10   15 1   
    22   10   31 1   
    23   11   12 1   
    24   11   13 1   
    25   11   32 1   
    26   12   33 1   
    27   13   14 1   
    28   13   15 1   
    29   13   34 1   
    30   15   35 1   
    31   15   36 1   
    32   16   37 1   
    33   18   19 1   
    34   19   20 1   
    35   19   24 1   
    36   19   38 1   
    37   20   21 1   
    38   20   39 1   
    39   21   22 1   
    40   21   40 1   
    41   22   23 1   
    42   23   24 1   
    43   23   41 1   
    44   24   42 1   
@<TRIPOS>SUBSTRUCTURE
     1 20X         1 TEMP              0 ****  ****    0 ROOT
