@<TRIPOS>MOLECULE
20X
   44    45     1     0     0
SMALL
bcc


@<TRIPOS>ATOM
      1 C1          0.7240   -0.6860   -0.0530 c3        1 20X      0.332300
      2 F1          0.1070    3.5040   -8.9040 f         1 20X     -0.076900
      3 N1          0.6350   -1.1990   -1.4820 ny        1 20X     -0.609800
      4 S1         -1.3670   -2.8780   -1.9560 s         1 20X      0.246600
      5 C2          2.1810   -0.3230    0.3320 c3        1 20X      0.119100
      6 N2         -1.5500   -0.2400   -2.2620 ny        1 20X     -0.298900
      7 O2          2.9140   -1.5210    0.2250 oh        1 20X     -0.623800
      8 C3          2.1290    0.2360    1.7670 c3        1 20X      0.114100
      9 N3         -0.9740    0.4200   -3.3570 n2        1 20X     -0.642400
     10 O3         -2.1670    1.7810    0.1590 oh        1 20X     -0.656800
     11 C4          1.1640    1.4420    1.8430 c3        1 20X      0.083100
     12 O4          1.0310    1.7260    3.2210 oh        1 20X     -0.573800
     13 C5         -0.2150    1.0590    1.2800 c3        1 20X      0.122100
     14 O5         -0.0670    0.4840   -0.0380 os        1 20X     -0.464600
     15 C6         -1.1370    2.2560    1.0190 c3        1 20X      0.134400
     16 O6          3.4520    0.6380    2.0470 oh        1 20X     -0.585800
     17 C7         -0.7680   -1.4920   -1.8930 c         1 20X      0.033400
     18 C8         -1.7080    0.7210   -4.4150 ce        1 20X      0.599800
     19 C9         -1.1930    1.4400   -5.5500 ca        1 20X     -0.266900
     20 C10        -2.0710    1.6680   -6.6370 ca        1 20X     -0.015500
     21 C11        -1.6440    2.3540   -7.7590 ca        1 20X     -0.184500
     22 C12        -0.3150    2.8370   -7.8200 ca        1 20X      0.253900
     23 C13         0.5690    2.6190   -6.7370 ca        1 20X     -0.184500
     24 C14         0.1290    1.9290   -5.6200 ca        1 20X     -0.015500
     25 H1          0.3080   -1.4880    0.6280 hx        1 20X      0.122700
     26 HN1         1.0770   -0.5050   -2.1080 hn        1 20X      0.502300
     27 H2          2.6080    0.4550   -0.3620 h1        1 20X      0.095700
     28 HN2        -1.5300    0.4450   -1.4580 hn        1 20X      0.487800
     29 HO2         3.7300   -1.4190    0.7470 ho        1 20X      0.485000
     30 H3          1.7990   -0.5610    2.4920 h1        1 20X      0.085700
     31 HO3        -2.9450    2.3320    0.3170 ho        1 20X      0.447000
     32 H4          1.5970    2.3100    1.2740 h1        1 20X      0.086700
     33 HO4         0.9350    2.6830    3.3240 ho        1 20X      0.439000
     34 H5         -0.7180    0.3090    1.9520 h1        1 20X      0.092700
     35 H6         -0.5850    3.0810    0.4960 h1        1 20X      0.077700
     36 H6A        -1.5460    2.6170    1.9990 h1        1 20X      0.077700
     37 HO6         3.4760    0.9230    2.9740 ho        1 20X      0.459000
     38 H8         -2.7920    0.4450   -4.4980 h4        1 20X      0.027800
     39 H10        -3.1100    1.2980   -6.5980 ha        1 20X      0.152000
     40 H11        -2.3250    2.5330   -8.6090 ha        1 20X      0.189500
     41 H13         1.6010    3.0040   -6.7960 ha        1 20X      0.189500
     42 H14         0.8280    1.7740   -4.7830 ha        1 20X      0.152000
     43 H12         1.1890   -2.0770   -1.5180 hn        1 20X      0.502300
     44 H22        -2.5340   -0.5510   -2.3940 hn        1 20X      0.487800
@<TRIPOS>BOND
     1    1    3 1   
     2    1    5 1   
     3    1   14 1   
     4    1   25 1   
     5    2   22 1   
     6    3   17 1   
     7    3   26 1   
     8    3   43 1   
     9    4   17 2   
    10    5    7 1   
    11    5    8 1   
    12    5   27 1   
    13    6    9 1   
    14    6   17 1   
    15    6   28 1   
    16    6   44 1   
    17    7   29 1   
    18    8   11 1   
    19    8   16 1   
    20    8   30 1   
    21    9   18 2   
    22   10   15 1   
    23   10   31 1   
    24   11   12 1   
    25   11   13 1   
    26   11   32 1   
    27   12   33 1   
    28   13   14 1   
    29   13   15 1   
    30   13   34 1   
    31   15   35 1   
    32   15   36 1   
    33   16   37 1   
    34   18   19 1   
    35   18   38 1   
    36   19   20 ar  
    37   19   24 ar  
    38   20   21 ar  
    39   20   39 1   
    40   21   22 ar  
    41   21   40 1   
    42   22   23 ar  
    43   23   24 ar  
    44   23   41 1   
    45   24   42 1   
@<TRIPOS>SUBSTRUCTURE
     1 20X         1 TEMP              0 ****  ****    0 ROOT
