@<TRIPOS>MOLECULE
20Y
   45    44     1     0     0
SMALL
bcc


@<TRIPOS>ATOM
      1 C14       170.5190   40.3030  283.9300 c2        1 20Y      0.128000
      2 C5        175.3520   38.1060  281.1220 c1        1 20Y      0.115000
      3 C6        175.2740   38.4440  282.4500 c2        1 20Y     -0.119000
      4 C11       171.9850   40.0940  281.8840 c2        1 20Y      0.368000
      5 C7        174.2440   39.3750  282.6240 c1        1 20Y     -0.212000
      6 C8        173.4540   39.9620  281.5220 c3        1 20Y     -0.159000
      7 C9        173.6010   39.3540  280.0950 c2        1 20Y      0.042000
      8 C10       174.6120   38.5070  280.1460 c1        1 20Y     -0.172000
      9 C1       -603.9440 -140.3900-1003.4920 c3        1 20Y     -0.224000
     10 C2       -602.5580 -140.0480-1003.5010 c1        1 20Y      0.465000
     11 O3       -601.4470 -139.7640-1003.3320 o         1 20Y      0.077000
     12 O12       171.1080   40.2970  281.0280 o         1 20Y     -0.373000
     13 N13       171.6870   39.9930  283.2500 n         1 20Y     -0.341000
     14 C15       170.7150   40.8910  285.3180 c3        1 20Y     -0.150000
     15 C16       171.6140   40.0830  286.1780 c2        1 20Y     -0.001000
     16 C17       167.1260   40.8150  284.8810 c1        1 20Y     -0.020000
     17 C18       168.1000   40.4920  284.2600 c1        1 20Y     -0.258000
     18 C19       169.2230   40.1080  283.5020 c2        1 20Y     -0.067000
     19 N20       168.8810   39.5200  282.2030 n4        1 20Y     -0.003000
     20 C21       172.3540   40.5580  287.1850 c2        1 20Y     -0.501000
     21 C22       173.2980   39.6630  287.9980 c3        1 20Y     -0.172000
     22 C23       174.2380   40.6360  288.6720 c2        1 20Y      0.214000
     23 C24       173.5470   41.8030  288.7150 c1        1 20Y     -0.679000
     24 S25       172.3470   42.1640  287.9620 ss        1 20Y      1.285000
     25 H1       -602.9520 -139.4640-1006.3510 hn        1 20Y      0.174333
     26 H2        175.8960   38.0530  283.2610 ha        1 20Y      0.192000
     27 H3        173.8650   41.0240  281.4090 hc        1 20Y      0.219000
     28 H4        172.9480   39.6880  279.2830 ha        1 20Y      0.201000
     29 H5       -604.5390 -139.6250-1004.0700 hc        1 20Y      0.203333
     30 H6       -604.1010 -141.4000-1003.9710 hc        1 20Y      0.203333
     31 H7       -604.3190 -140.4230-1002.4270 hc        1 20Y      0.203333
     32 H8       -602.5620 -141.0430-1006.2630 hn        1 20Y      0.174333
     33 H9        172.5140   39.8670  283.8290 hn        1 20Y      0.292000
     34 H10       169.7170   40.9640  285.8450 hc        1 20Y      0.153000
     35 H11       171.6200   38.9910  285.9750 ha        1 20Y      0.175000
     36 H12       166.2560   41.1020  285.4330 ha        1 20Y      0.269000
     37 H13       167.8980   39.2210  282.2050 hn        1 20Y      0.271333
     38 H14       169.0290   40.2200  281.4540 hn        1 20Y      0.271333
     39 H15       172.7130   39.0180  288.7110 hc        1 20Y      0.186000
     40 H16       173.9030   38.9780  287.3420 hc        1 20Y      0.186000
     41 H17       175.3030   40.4340  288.8630 ha        1 20Y      0.235000
     42 H132      171.0990   41.9430  285.1890 hc        1 20Y      0.153000
     43 H203      169.4850   38.7150  282.0070 hn        1 20Y      0.271333
     44 H42      -601.4050 -139.9080-1006.0950 hn        1 20Y      0.174333
     45 N4       -602.3610 -140.1330-1005.8970 n3        1 20Y     -0.451000
@<TRIPOS>BOND
     1    1   13 1   
     2    1   14 1   
     3    1   18 1   
     4    2    3 1   
     5    2    8 1   
     6    3    5 1   
     7    3   26 1   
     8    4    6 1   
     9    4   12 1   
    10    4   13 1   
    11    5    6 1   
    12    6    7 1   
    13    6   27 1   
    14    7    8 1   
    15    7   28 1   
    16    9   10 1   
    17    9   29 1   
    18    9   30 1   
    19    9   31 1   
    20   10   11 1   
    21   13   33 1   
    22   14   15 1   
    23   14   34 1   
    24   14   42 1   
    25   15   20 1   
    26   15   35 1   
    27   16   17 1   
    28   16   36 1   
    29   17   18 1   
    30   18   19 1   
    31   19   37 1   
    32   19   38 1   
    33   19   43 1   
    34   20   21 1   
    35   20   24 1   
    36   21   22 1   
    37   21   39 1   
    38   21   40 1   
    39   22   23 1   
    40   22   41 1   
    41   23   24 1   
    42   25   45 1   
    43   32   45 1   
    44   44   45 1   
@<TRIPOS>SUBSTRUCTURE
     1 20Y         1 TEMP              0 ****  ****    0 ROOT
