@<TRIPOS>MOLECULE
20Y
   42    42     1     0     0
SMALL
bcc


@<TRIPOS>ATOM
      1 C14         0.0970   -0.0350   -0.2590 c2        1 20Y      0.011000
      2 C5         -3.1360    1.4540   -5.6370 c2        1 20Y      0.035000
      3 C6         -0.5090   -3.3630   -3.8410 c1        1 20Y     -0.172000
      4 C11        -0.0760   -0.0530   -2.7370 c2        1 20Y      0.319000
      5 C7         -0.6280   -2.1730   -3.8600 c1        1 20Y     -0.185000
      6 C8         -0.7640   -0.7440   -3.9300 c3        1 20Y      0.023000
      7 C9         -2.2050   -0.3290   -3.9720 c2        1 20Y     -0.070000
      8 C10        -2.6700    0.5310   -4.8270 c1        1 20Y     -0.202000
      9 C1         -4.5040    0.1180   -8.9230 c3        1 20Y     -0.245000
     10 C2         -3.9170    0.0540   -7.5330 c2        1 20Y      0.297000
     11 O3         -3.6560   -1.0290   -6.9830 o         1 20Y     -0.327000
     12 O12         0.7380    0.8670   -2.9310 o         1 20Y     -0.355000
     13 N13        -0.4420   -0.4930   -1.4780 ns        1 20Y     -0.324000
     14 C15         1.5330    0.2480   -0.2070 c2        1 20Y     -0.086000
     15 C16         2.3430   -0.1960    0.7750 c2        1 20Y     -0.111000
     16 C17         0.2640    0.9950    3.1220 c1        1 20Y     -0.171000
     17 C18        -0.1630    0.6060    2.0730 c1        1 20Y     -0.151000
     18 C19        -0.7170    0.1680    0.8420 c2        1 20Y      0.068000
     19 N20        -2.0970   -0.1260    0.8340 n8        1 20Y     -0.307000
     20 C21         3.7430    0.0770    0.8340 c2        1 20Y     -0.452000
     21 C22         4.5710   -0.5850    1.8960 c3        1 20Y     -0.188000
     22 C23         5.9960   -0.0950    1.6930 c2        1 20Y     -0.100000
     23 C24         6.0330    0.7460    0.6580 c1        1 20Y     -0.751000
     24 S25         4.6720    1.0250   -0.0770 ss        1 20Y      0.977000
     25 H1         -3.1070    2.5200   -5.3210 h4        1 20Y      0.151000
     26 H2         -0.4010   -4.4180   -3.8250 ha        1 20Y      0.228000
     27 H3         -0.2290   -0.3730   -4.8580 hc        1 20Y      0.155000
     28 H4         -2.8640   -0.8120   -3.2290 ha        1 20Y      0.138000
     29 H5         -5.4950    0.6300   -8.9080 hc        1 20Y      0.108333
     30 H6         -3.8170    0.6660   -9.6130 hc        1 20Y      0.108333
     31 H7         -4.6400   -0.9250   -9.3000 hc        1 20Y      0.108333
     32 H8         -3.9210    2.1040   -7.3990 hn        1 20Y      0.231000
     33 H9         -1.0820   -1.2550   -1.4180 hn        1 20Y      0.245000
     34 H10         1.9310    0.8380   -1.0560 ha        1 20Y      0.167000
     35 H11         1.9350   -0.8130    1.5970 ha        1 20Y      0.135000
     36 H12         0.6540    1.3420    4.0450 ha        1 20Y      0.230000
     37 H13        -2.5610    0.1640    1.6690 hn        1 20Y      0.180500
     38 H14        -2.5630    0.2180    0.0190 hn        1 20Y      0.180500
     39 H15         4.5240   -1.7000    1.7960 hc        1 20Y      0.139500
     40 H16         4.2020   -0.3100    2.9170 hc        1 20Y      0.139500
     41 H17         6.7950   -0.4390    2.3470 ha        1 20Y      0.154000
     42 N4         -3.6920    1.2750   -6.9010 ns        1 20Y     -0.332000
@<TRIPOS>BOND
     1    1   13 1   
     2    1   14 1   
     3    1   18 1   
     4    2    8 1   
     5    2   25 1   
     6    2   42 1   
     7    3    5 1   
     8    3   26 1   
     9    4    6 1   
    10    4   12 1   
    11    4   13 1   
    12    5    6 1   
    13    6    7 1   
    14    6   27 1   
    15    7    8 1   
    16    7   28 1   
    17    9   10 1   
    18    9   29 1   
    19    9   30 1   
    20    9   31 1   
    21   10   11 1   
    22   10   42 1   
    23   13   33 1   
    24   14   15 1   
    25   14   34 1   
    26   15   20 1   
    27   15   35 1   
    28   16   17 1   
    29   16   36 1   
    30   17   18 1   
    31   18   19 1   
    32   19   37 1   
    33   19   38 1   
    34   20   21 1   
    35   20   24 1   
    36   21   22 1   
    37   21   39 1   
    38   21   40 1   
    39   22   23 1   
    40   22   41 1   
    41   23   24 1   
    42   32   42 1   
@<TRIPOS>SUBSTRUCTURE
     1 20Y         1 TEMP              0 ****  ****    0 ROOT
