@<TRIPOS>MOLECULE
20Y
   42    33     1     0     0
SMALL
bcc


@<TRIPOS>ATOM
      1 C14         1.4260    0.6280    1.9480 c1        1 20Y     -0.009000
      2 C5         -1.5100   -3.3150   -2.4080 c1        1 20Y      0.106000
      3 C6         -1.7040   -3.8240   -1.1340 c2        1 20Y     -0.199000
      4 C11         0.1440   -1.2660    1.0010 c1        1 20Y      0.350000
      5 C7         -1.1830   -3.1560   -0.0330 c1        1 20Y     -0.048000
      6 C8         -0.4670   -1.9790   -0.2090 c1        1 20Y     -0.162000
      7 C9         -0.2730   -1.4710   -1.4830 c1        1 20Y     -0.074000
      8 C10        -0.7940   -2.1380   -2.5840 c1        1 20Y     -0.169000
      9 C1         -2.5760   -4.1240   -6.0190 c3        1 20Y     -0.247000
     10 C2         -2.0750   -3.3670   -4.8050 c2        1 20Y      0.311000
     11 O3         -1.6880   -2.2220   -4.9210 o         1 20Y     -0.342000
     12 N4         -2.0190   -4.0130   -3.5380 n2        1 20Y     -0.330000
     13 O12         0.0020   -1.7310    2.1180 o         1 20Y     -0.373000
     14 N13         0.8710   -0.0420    0.8210 n2        1 20Y     -0.318000
     15 C15         0.8220    1.8610    1.7820 c2        1 20Y     -0.117000
     16 C16         1.3570    2.9830    2.3950 c1        1 20Y     -0.043000
     17 C17         2.4950    2.8690    3.1750 c1        1 20Y     -0.133500
     18 C18         3.0990    1.6350    3.3430 c1        1 20Y     -0.133500
     19 C19         2.5660    0.5140    2.7300 c1        1 20Y      0.089000
     20 N20         3.1270   -0.7570    2.9770 n2        1 20Y     -0.315000
     21 C21         0.6990    4.3270    2.2120 c2        1 20Y     -0.312000
     22 C22        -0.1710    4.9880    3.1680 c1        1 20Y     -0.156000
     23 C23        -0.7120    6.3310    2.5070 c1        1 20Y     -0.152000
     24 C24        -0.1530    6.4410    1.1740 c1        1 20Y     -0.440000
     25 S25         0.7490    5.2000    0.9310 ss        1 20Y      0.541000
     26 H1         -2.2090   -4.6540   -1.0100 ha        1 20Y      0.135000
     27 H2         -1.3200   -3.5150    0.8640 ha        1 20Y      0.157000
     28 H3          0.2290   -0.6440   -1.6070 ha        1 20Y      0.142000
     29 H4         -0.6570   -1.7800   -3.4810 ha        1 20Y      0.179000
     30 H5         -2.8410   -5.0290   -5.7540 hc        1 20Y      0.110333
     31 H6         -3.3480   -3.6560   -6.3990 hc        1 20Y      0.110333
     32 H7         -1.8600   -4.1760   -6.6920 hc        1 20Y      0.110333
     33 H8         -2.3760   -4.8450   -3.4360 hn        1 20Y      0.231000
     34 H9          0.9680    0.3110   -0.0120 hn        1 20Y      0.230000
     35 H10         0.0170    1.9420    1.2300 ha        1 20Y      0.132000
     36 H11         2.8700    3.6570    3.6060 ha        1 20Y      0.136000
     37 H12         3.9020    1.5550    3.8930 ha        1 20Y      0.136000
     38 H13         2.7720   -1.4980    2.5780 hn        1 20Y      0.195500
     39 H14         3.8400   -0.8400    3.5420 hn        1 20Y      0.195500
     40 H15        -0.3870    4.6630    4.0650 DU        1 20Y      0.158333
     41 H16        -1.3160    6.9710    2.9270 DU        1 20Y      0.158333
     42 H17        -0.3150    7.1660    0.5400 DU        1 20Y      0.158333
@<TRIPOS>BOND
     1    1   15 1   
     2    1   19 1   
     3    2    3 1   
     4    2    8 1   
     5    3    5 1   
     6    3   26 1   
     7    4   13 1   
     8    4   14 1   
     9    5   27 1   
    10    6    7 1   
    11    7   28 1   
    12    8   29 1   
    13    9   10 1   
    14    9   30 1   
    15    9   31 1   
    16    9   32 1   
    17   10   11 1   
    18   10   12 1   
    19   12   33 1   
    20   14   34 1   
    21   15   16 1   
    22   15   35 1   
    23   16   21 1   
    24   17   18 1   
    25   17   36 1   
    26   18   37 1   
    27   20   38 1   
    28   20   39 1   
    29   21   22 1   
    30   21   25 1   
    31   22   23 1   
    32   23   24 1   
    33   24   25 1   
@<TRIPOS>SUBSTRUCTURE
     1 20Y         1 TEMP              0 ****  ****    0 ROOT
