@<TRIPOS>MOLECULE
20Y
   42    43     1     0     0
SMALL
bcc


@<TRIPOS>ATOM
      1 C14        -0.1740    0.6500   -1.1780 c2        1 20Y     -0.054000
      2 C5         -1.8000    0.4960   -5.5610 c2        1 20Y      0.007000
      3 C6         -0.4480    0.6940   -6.2510 c3        1 20Y     -0.192000
      4 C11         0.2980    2.1550   -3.0610 c2        1 20Y      0.342000
      5 C7          0.4200    1.5840   -5.4690 c1        1 20Y      0.023000
      6 C8         -0.1120    2.5500   -4.4850 c3        1 20Y     -0.183000
      7 C9         -1.6030    2.7640   -4.6690 c2        1 20Y     -0.134000
      8 C10        -2.2180    1.6630   -5.0460 c1        1 20Y     -0.196000
      9 C1         -3.6620   -2.5640   -4.3410 c3        1 20Y     -0.245000
     10 C2         -2.9820   -1.2200   -4.2610 c2        1 20Y      0.322000
     11 O3         -2.9770   -0.5480   -3.2110 o         1 20Y     -0.373000
     12 O12         1.1870    2.7960   -2.4750 o         1 20Y     -0.338000
     13 N13        -0.3410    1.0510   -2.5260 n         1 20Y     -0.315000
     14 C15         1.1950    0.3670   -0.7550 c2        1 20Y     -0.047000
     15 C16         1.5560   -0.7000   -0.0110 c2        1 20Y     -0.139000
     16 C17        -0.9040   -0.2270    2.1710 c1        1 20Y     -0.165000
     17 C18        -1.0390    0.1150    1.0320 c1        1 20Y     -0.150000
     18 C19        -1.2480    0.5550   -0.3050 c2        1 20Y      0.135000
     19 N20        -2.5500    0.9520   -0.6160 n3        1 20Y     -0.318000
     20 C21         2.8960   -0.9610    0.4010 c2        1 20Y     -0.431000
     21 C22         3.2050   -2.2530    1.1000 c3        1 20Y     -0.186000
     22 C23         4.6960   -2.2320    1.3970 c2        1 20Y     -0.117000
     23 C24         5.2260   -1.0920    0.9510 c1        1 20Y     -0.734000
     24 S25         4.2370   -0.0800    0.2530 ss        1 20Y      0.945000
     25 H1          0.0770   -0.2910   -6.3890 hc        1 20Y      0.156500
     26 H2         -0.5570    1.1590   -7.2730 hc        1 20Y      0.156500
     27 H3          0.4100    3.5370   -4.6950 hc        1 20Y      0.186000
     28 H4         -2.0140    3.7760   -4.6120 ha        1 20Y      0.168000
     29 H5         -4.4790   -2.5400   -5.1020 hc        1 20Y      0.113333
     30 H6         -2.9290   -3.3610   -4.6150 hc        1 20Y      0.113333
     31 H7         -4.1020   -2.8030   -3.3420 hc        1 20Y      0.113333
     32 H8         -2.2840   -1.3770   -6.1970 hn        1 20Y      0.238000
     33 H9         -1.1550    0.7050   -2.9930 hn        1 20Y      0.250000
     34 H10         1.9540    1.0890   -1.1160 ha        1 20Y      0.159000
     35 H11         0.7980   -1.4370    0.3120 ha        1 20Y      0.131000
     36 H12        -0.7660   -0.5290    3.1790 ha        1 20Y      0.230000
     37 H13        -2.7990    0.9320   -1.5820 hn        1 20Y      0.204500
     38 H14        -3.2510    0.5610   -0.0260 hn        1 20Y      0.204500
     39 H15         2.9490   -3.1270    0.4480 hc        1 20Y      0.135500
     40 H16         2.6170   -2.3400    2.0500 hc        1 20Y      0.135500
     41 H17         5.1660   -3.0720    1.9040 ha        1 20Y      0.152000
     42 N4         -2.3420   -0.7690   -5.4120 n         1 20Y     -0.308000
@<TRIPOS>BOND
     1    1   13 1   
     2    1   14 1   
     3    1   18 1   
     4    2    3 1   
     5    2    8 1   
     6    2   42 1   
     7    3    5 1   
     8    3   25 1   
     9    3   26 1   
    10    4    6 1   
    11    4   12 1   
    12    4   13 1   
    13    5    6 1   
    14    6    7 1   
    15    6   27 1   
    16    7    8 1   
    17    7   28 1   
    18    9   10 1   
    19    9   29 1   
    20    9   30 1   
    21    9   31 1   
    22   10   11 1   
    23   10   42 1   
    24   13   33 1   
    25   14   15 1   
    26   14   34 1   
    27   15   20 1   
    28   15   35 1   
    29   16   17 1   
    30   16   36 1   
    31   17   18 1   
    32   18   19 1   
    33   19   37 1   
    34   19   38 1   
    35   20   21 1   
    36   20   24 1   
    37   21   22 1   
    38   21   39 1   
    39   21   40 1   
    40   22   23 1   
    41   22   41 1   
    42   23   24 1   
    43   32   42 1   
@<TRIPOS>SUBSTRUCTURE
     1 20Y         1 TEMP              0 ****  ****    0 ROOT
