@<TRIPOS>MOLECULE
20Y
   42    44     1     0     0
SMALL
bcc


@<TRIPOS>ATOM
      1 C14        -1.4480    1.3340    0.0580 ca        1 20Y      0.029600
      2 C5          4.7290   -0.7310    0.0300 ca        1 20Y      0.097600
      3 C6          3.8170   -1.8140   -0.0530 ca        1 20Y     -0.183500
      4 C11         0.5010   -0.0950   -0.5210 c         1 20Y      0.681700
      5 C7          2.4610   -1.5820   -0.2310 ca        1 20Y     -0.061500
      6 C8          1.9670   -0.2740   -0.3190 ca        1 20Y     -0.178600
      7 C9          2.8590    0.7980   -0.2490 ca        1 20Y     -0.061500
      8 C10         4.2230    0.5830   -0.0770 ca        1 20Y     -0.183500
      9 C1          8.5110   -0.7340    0.5260 c3        1 20Y     -0.179100
     10 C2          7.1410   -0.1200    0.3480 c         1 20Y      0.667100
     11 O3          6.9870    1.1130    0.3300 o         1 20Y     -0.582100
     12 O12        -0.1600   -0.9050   -1.1990 o         1 20Y     -0.596100
     13 N13        -0.0770    1.0090    0.0900 n         1 20Y     -0.477100
     14 C15        -2.4340    0.3340    0.0220 ca        1 20Y     -0.112000
     15 C16        -3.7980    0.6500    0.0350 ca        1 20Y     -0.017000
     16 C17        -4.1850    1.9950    0.0940 ca        1 20Y     -0.099000
     17 C18        -3.2310    3.0010    0.1150 ca        1 20Y     -0.171000
     18 C19        -1.8520    2.7110    0.0840 ca        1 20Y      0.087600
     19 N20        -0.9010    3.7470    0.1680 nh        1 20Y     -0.806200
     20 C21        -4.7870   -0.4000   -0.0090 cc        1 20Y     -0.062100
     21 C22        -6.0730   -0.3370    0.5050 cd        1 20Y     -0.154000
     22 C23        -6.7930   -1.5490    0.2860 cd        1 20Y     -0.157000
     23 C24        -6.0260   -2.4800   -0.3840 cc        1 20Y     -0.182100
     24 S25        -4.5050   -1.8990   -0.7280 ss        1 20Y      0.050200
     25 H1          4.1740   -2.8530    0.0160 ha        1 20Y      0.156500
     26 H2          1.7590   -2.4290   -0.3140 ha        1 20Y      0.146000
     27 H3          2.5020    1.8360   -0.3470 ha        1 20Y      0.146000
     28 H4          4.8990    1.4530   -0.0290 ha        1 20Y      0.156500
     29 H5          8.7790   -1.3610   -0.3580 hc        1 20Y      0.071367
     30 H6          9.2590    0.0910    0.6260 hc        1 20Y      0.071367
     31 H7          8.5430   -1.3650    1.4470 hc        1 20Y      0.071367
     32 H8          6.3180   -1.9880    0.2440 hn        1 20Y      0.317500
     33 H9          0.4930    1.5660    0.6860 hn        1 20Y      0.327500
     34 H10        -2.1300   -0.7270   -0.0280 ha        1 20Y      0.162000
     35 H11        -5.2540    2.2550    0.1120 ha        1 20Y      0.137000
     36 H12        -3.5650    4.0500    0.1530 ha        1 20Y      0.132000
     37 H13        -1.3160    4.6530    0.1050 hn        1 20Y      0.378800
     38 H14        -0.1560    3.6450   -0.4900 hn        1 20Y      0.378800
     39 H15        -6.4960    0.5240    1.0260 ha        1 20Y      0.152000
     40 H16        -7.8210   -1.7010    0.6180 ha        1 20Y      0.151000
     41 H17        -6.3530   -3.4790   -0.6650 h4        1 20Y      0.169000
     42 N4          6.0880   -1.0190    0.2100 n         1 20Y     -0.476100
@<TRIPOS>BOND
     1    1   13 1   
     2    1   14 ar  
     3    1   18 ar  
     4    2    3 ar  
     5    2    8 ar  
     6    2   42 1   
     7    3    5 ar  
     8    3   25 1   
     9    4    6 1   
    10    4   12 2   
    11    4   13 1   
    12    5    6 ar  
    13    5   26 1   
    14    6    7 ar  
    15    7    8 ar  
    16    7   27 1   
    17    8   28 1   
    18    9   10 1   
    19    9   29 1   
    20    9   30 1   
    21    9   31 1   
    22   10   11 2   
    23   10   42 1   
    24   13   33 1   
    25   14   15 ar  
    26   14   34 1   
    27   15   16 ar  
    28   15   20 1   
    29   16   17 ar  
    30   16   35 1   
    31   17   18 ar  
    32   17   36 1   
    33   18   19 1   
    34   19   37 1   
    35   19   38 1   
    36   20   21 2   
    37   20   24 1   
    38   21   22 1   
    39   21   39 1   
    40   22   23 2   
    41   22   40 1   
    42   23   24 1   
    43   23   41 1   
    44   32   42 1   
@<TRIPOS>SUBSTRUCTURE
     1 20Y         1 TEMP              0 ****  ****    0 ROOT
