@<TRIPOS>MOLECULE
20Z
   45    41     1     0     0
SMALL
bcc


@<TRIPOS>ATOM
      1 N01        -0.4040   -1.7340   -1.6960 n2        1 20Z     -0.230000
      2 N02        -2.2330   -1.9520    0.0520 n3        1 20Z     -0.237000
      3 N03         2.0420   -1.7890   -2.7850 n3        1 20Z     -0.338000
      4 N04        -6.4450    1.8980   -3.7020 n3        1 20Z     -0.953000
      5 C05         1.5700   -1.8700   -0.2690 c1        1 20Z     -0.604000
      6 C06         1.1650   -1.7710   -1.6450 c2        1 20Z      0.208000
      7 C07        -0.8990   -1.8100   -0.3610 c2        1 20Z     -0.077000
      8 C08        -3.3160   -1.2770   -0.6970 c2        1 20Z      0.129000
      9 C09         2.9700   -1.9480    0.2290 c1        1 20Z      0.363000
     10 C10         3.5660   -0.7770    1.0800 c2        1 20Z     -0.126000
     11 C11         4.8510   -1.0850    1.4600 c2        1 20Z     -0.089000
     12 C12         5.5700   -0.2030    2.2320 c1        1 20Z     -0.122000
     13 C13         5.0030    0.9930    2.6230 c1        1 20Z     -0.034000
     14 C14         3.7100    1.3020    2.2390 c1        1 20Z     -0.034000
     15 C15         2.9950    0.4210    1.4710 c1        1 20Z     -0.093000
     16 C16        -3.7820   -0.0380   -0.2280 c1        1 20Z     -0.208000
     17 C17        -4.8810    0.5760   -0.8440 c1        1 20Z      0.007000
     18 C18        -5.4930   -0.0260   -1.8910 c1        1 20Z     -0.857000
     19 C19        -5.0220   -1.2760   -2.3630 c1        1 20Z      0.004000
     20 C20        -3.9340   -1.8830   -1.7530 c2        1 20Z     -0.159000
     21 C21         5.7240    1.8800    3.4200 c1        1 20Z     -0.117500
     22 C22         5.1360    3.0900    3.8330 c1        1 20Z     -0.124000
     23 C23         3.8330    3.3990    3.4430 c1        1 20Z     -0.124000
     24 C24         3.1200    2.5170    2.6530 c1        1 20Z     -0.117500
     25 O25         3.6440   -2.9400   -0.0010 o         1 20Z     -0.346000
     26 O26        -7.8210    1.2590   -1.6360 o         1 20Z     -0.939000
     27 O27        -7.7640   -0.2690   -3.2800 o         1 20Z     -0.939000
     28 S28         0.3130   -1.8980    0.5860 ss        1 20Z      0.470000
     29 S29        -6.9150    0.7270   -2.6370 s6        1 20Z      2.870000
     30 HN02       -2.4280   -2.4270    0.7990 hn        1 20Z      0.240000
     31 HN03        2.9490   -1.9400   -2.6680 hn        1 20Z      0.255500
     32 HN0A        1.6830   -1.6650   -3.6790 hn        1 20Z      0.255500
     33 HN04       -6.5160    2.7900   -3.4670 hn        1 20Z      0.242000
     34 HN0B       -6.2050    1.6720   -4.5420 hn        1 20Z      0.242000
     35 H11         5.2250   -1.9650    1.2470 ha        1 20Z      0.152000
     36 H12         6.4700   -0.4190    2.4960 ha        1 20Z      0.138000
     37 H15         2.1440    0.6220    1.2220 ha        1 20Z      0.143000
     38 H16        -3.3690    0.3670    0.4750 ha        1 20Z      0.138000
     39 H17        -5.2210    1.4810   -0.5000 ha        1 20Z      0.156000
     40 H19        -5.4610   -1.7100   -3.1160 ha        1 20Z      0.155000
     41 H20        -3.6120   -2.7420   -2.0750 ha        1 20Z      0.167000
     42 H21         6.7080    1.6450    3.7110 ha        1 20Z      0.134000
     43 H22         5.6860    3.7690    4.4410 ha        1 20Z      0.134500
     44 H23         3.4070    4.2790    3.7380 ha        1 20Z      0.134500
     45 H24         2.2390    2.7260    2.3900 ha        1 20Z      0.134000
@<TRIPOS>BOND
     1    1    6 1   
     2    1    7 1   
     3    2    7 1   
     4    2    8 1   
     5    2   30 1   
     6    3    6 1   
     7    3   31 1   
     8    3   32 1   
     9    4   29 1   
    10    4   33 1   
    11    4   34 1   
    12    5    6 1   
    13    5   28 1   
    14    7   28 1   
    15    8   16 1   
    16    8   20 1   
    17    9   10 1   
    18    9   25 1   
    19   10   11 1   
    20   10   15 1   
    21   11   12 1   
    22   11   35 1   
    23   12   36 1   
    24   13   14 1   
    25   13   21 1   
    26   14   24 1   
    27   15   37 1   
    28   16   38 1   
    29   17   18 1   
    30   17   39 1   
    31   18   29 1   
    32   19   20 1   
    33   19   40 1   
    34   20   41 1   
    35   21   42 1   
    36   22   23 1   
    37   22   43 1   
    38   23   44 1   
    39   24   45 1   
    40   26   29 1   
    41   27   29 1   
@<TRIPOS>SUBSTRUCTURE
     1 20Z         1 TEMP              0 ****  ****    0 ROOT
