@<TRIPOS>MOLECULE
20Z
   48    51     1     0     0
SMALL
bcc


@<TRIPOS>ATOM
      1 N01         0.2790   -1.2110   -0.1450 nc        1 20Z     -0.590000
      2 N02        -1.5800   -0.6730    1.3600 n4        1 20Z     -0.590100
      3 N03         2.4590   -1.6730   -1.2540 n4        1 20Z     -0.800300
      4 N04        -6.7740    1.4400   -2.2620 n4        1 20Z     -0.807500
      5 C05         2.2310   -0.6250    1.0300 cd        1 20Z     -0.294000
      6 C06         1.6600   -1.1730   -0.1420 cc        1 20Z      0.436200
      7 C07        -0.1520   -0.7000    1.0450 cd        1 20Z      0.285300
      8 C08        -2.4430   -0.0590    0.3310 ca        1 20Z      0.056600
      9 C09         3.6740   -0.4990    1.3710 c         1 20Z      0.624300
     10 C10         3.8200   -0.0120    2.7490 ca        1 20Z     -0.140600
     11 C11         4.7540   -0.6110    3.6070 ca        1 20Z     -0.104000
     12 C12         4.7900   -0.2440    4.9440 ca        1 20Z     -0.018000
     13 C13         3.8880    0.7150    5.4570 ca        1 20Z     -0.032000
     14 C14         2.9610    1.3510    4.5770 ca        1 20Z      0.001000
     15 C15         2.9370    0.9790    3.2080 ca        1 20Z     -0.230000
     16 C16        -2.8500   -0.8150   -0.7810 ca        1 20Z     -0.113000
     17 C17        -3.7040   -0.2360   -1.7200 ca        1 20Z      0.025500
     18 C18        -4.1620    1.0850   -1.5810 ca        1 20Z     -0.439500
     19 C19        -3.7390    1.8190   -0.4590 ca        1 20Z      0.025500
     20 C20        -2.8870    1.2650    0.4950 ca        1 20Z     -0.113000
     21 C21         3.9200    1.1010    6.8300 ca        1 20Z     -0.092000
     22 C22         3.0870    2.0870    7.2940 ca        1 20Z     -0.092000
     23 C23         2.1830    2.7360    6.4120 ca        1 20Z     -0.052000
     24 C24         2.1190    2.3760    5.0880 ca        1 20Z     -0.169000
     25 O25         4.5430   -0.8530    0.5760 o         1 20Z     -0.472100
     26 O26        -4.9390    1.1070   -3.9700 o         1 20Z     -0.522800
     27 O27        -4.9950    3.1870   -2.6810 o         1 20Z     -0.522800
     28 S28         1.0920   -0.1660    2.1090 ss        1 20Z      0.420700
     29 S29        -5.0240    1.8180   -2.7980 sy        1 20Z      1.451200
     30 HN02       -1.6990   -0.1570    2.2460 hn        1 20Z      0.486300
     31 HN03        3.4700   -1.5560   -1.0200 hn        1 20Z      0.497467
     32 HN0A        2.2470   -1.1450   -2.1120 hn        1 20Z      0.497467
     33 HN04       -7.3040    2.3090   -2.1240 hn        1 20Z      0.478800
     34 HN0B       -7.2680    0.9120   -2.9920 hn        1 20Z      0.478800
     35 H11         5.4590   -1.3620    3.2120 ha        1 20Z      0.181000
     36 H12         5.5370   -0.6990    5.6210 ha        1 20Z      0.186000
     37 H15         2.4650    1.6950    2.5060 ha        1 20Z      0.152000
     38 H16        -2.5050   -1.8540   -0.9370 ha        1 20Z      0.192500
     39 H17        -3.9990   -0.8360   -2.6080 ha        1 20Z      0.205500
     40 H19        -4.0630    2.8740   -0.3310 ha        1 20Z      0.205500
     41 H20        -2.5820    1.8840    1.3580 ha        1 20Z      0.192500
     42 H21         4.6350    0.6000    7.5050 ha        1 20Z      0.174000
     43 H22         3.1170    2.3980    8.3530 ha        1 20Z      0.180000
     44 H23         1.5410    3.5430    6.8080 ha        1 20Z      0.168000
     45 H24         1.4360    2.8970    4.4010 ha        1 20Z      0.130000
     46 H022       -1.8970   -1.6510    1.5010 hn        1 20Z      0.486300
     47 H033        2.2620   -2.6720   -1.4140 hn        1 20Z      0.497467
     48 H043       -6.8530    0.9030   -1.4010 hn        1 20Z      0.478800
@<TRIPOS>BOND
     1    1    6 1   
     2    1    7 2   
     3    2    7 1   
     4    2    8 1   
     5    2   30 1   
     6    2   46 1   
     7    3    6 1   
     8    3   31 1   
     9    3   32 1   
    10    3   47 1   
    11    4   29 1   
    12    4   33 1   
    13    4   34 1   
    14    4   48 1   
    15    5    6 2   
    16    5    9 1   
    17    5   28 1   
    18    7   28 1   
    19    8   16 ar  
    20    8   20 ar  
    21    9   10 1   
    22    9   25 2   
    23   10   11 ar  
    24   10   15 ar  
    25   11   12 ar  
    26   11   35 1   
    27   12   13 ar  
    28   12   36 1   
    29   13   14 ar  
    30   13   21 ar  
    31   14   15 ar  
    32   14   24 ar  
    33   15   37 1   
    34   16   17 ar  
    35   16   38 1   
    36   17   18 ar  
    37   17   39 1   
    38   18   19 ar  
    39   18   29 1   
    40   19   20 ar  
    41   19   40 1   
    42   20   41 1   
    43   21   22 ar  
    44   21   42 1   
    45   22   23 ar  
    46   22   43 1   
    47   23   24 ar  
    48   23   44 1   
    49   24   45 1   
    50   26   29 2   
    51   27   29 2   
@<TRIPOS>SUBSTRUCTURE
     1 20Z         1 TEMP              0 ****  ****    0 ROOT
