@<TRIPOS>MOLECULE
20Z
   45    48     1     0     0
SMALL
bcc


@<TRIPOS>ATOM
      1 N01        -0.6340    1.5770    0.0310 nc        1 20Z     -0.746000
      2 N02        -1.1710   -0.7790   -0.3190 nh        1 20Z     -0.711300
      3 N03         0.4720    3.6810    0.4770 nh        1 20Z     -0.933500
      4 N04        -7.4190   -1.7240    1.0970 n3        1 20Z     -1.026700
      5 C05         1.7490    1.6030    0.1170 cd        1 20Z     -0.417000
      6 C06         0.5380    2.3460    0.2110 cc        1 20Z      0.720200
      7 C07        -0.2930    0.2870   -0.1590 cd        1 20Z      0.679300
      8 C08        -2.5720   -0.6670   -0.2600 ca        1 20Z      0.206600
      9 C09         3.0770    2.1600    0.1630 c         1 20Z      0.642300
     10 C10         4.2080    1.2070    0.0230 ca        1 20Z     -0.148600
     11 C11         5.3140    1.5980   -0.7800 ca        1 20Z     -0.089000
     12 C12         6.3830    0.7550   -0.9490 ca        1 20Z     -0.123000
     13 C13         6.4100   -0.5150   -0.3120 ca        1 20Z     -0.023000
     14 C14         5.3180   -0.9000    0.5070 ca        1 20Z     -0.045000
     15 C15         4.2180   -0.0140    0.6600 ca        1 20Z     -0.092000
     16 C16        -3.3590   -1.4760   -1.1190 ca        1 20Z     -0.184000
     17 C17        -4.7420   -1.4550   -1.0210 ca        1 20Z      0.006000
     18 C18        -5.3960   -0.6450   -0.0860 ca        1 20Z     -0.412500
     19 C19        -4.6140    0.1570    0.7520 ca        1 20Z      0.006000
     20 C20        -3.2270    0.1540    0.6830 ca        1 20Z     -0.184000
     21 C21         7.5070   -1.4070   -0.4670 ca        1 20Z     -0.121000
     22 C22         7.5110   -2.6240    0.1690 ca        1 20Z     -0.120000
     23 C23         6.4220   -3.0060    0.9900 ca        1 20Z     -0.128000
     24 C24         5.3500   -2.1650    1.1570 ca        1 20Z     -0.114000
     25 O25         3.2950    3.3810    0.2810 o         1 20Z     -0.583100
     26 O26        -7.5960   -1.0180   -1.2500 o         1 20Z     -0.659800
     27 O27        -7.4750    0.6550    0.4910 o         1 20Z     -0.659800
     28 S28         1.4170   -0.0350   -0.1250 ss        1 20Z     -0.104300
     29 S29        -7.0790   -0.6070   -0.0020 sy        1 20Z      1.531200
     30 HN02       -0.8320   -1.4880   -0.9390 hn        1 20Z      0.439800
     31 HN03       -0.3900    4.1620    0.4000 hn        1 20Z      0.457300
     32 HN0A        1.3250    4.1950    0.4860 hn        1 20Z      0.457300
     33 HN04       -7.5890   -2.6730    0.8770 hn        1 20Z      0.446800
     34 HN0B       -7.5080   -1.5330    2.0620 hn        1 20Z      0.446800
     35 H11         5.2900    2.5940   -1.2510 ha        1 20Z      0.152000
     36 H12         7.2390    1.0520   -1.5730 ha        1 20Z      0.138000
     37 H15         3.3860   -0.3210    1.3190 ha        1 20Z      0.145000
     38 H16        -2.8830   -2.1230   -1.8710 ha        1 20Z      0.152000
     39 H17        -5.3430   -2.0730   -1.7120 ha        1 20Z      0.155000
     40 H19        -5.1140    0.8240    1.4780 ha        1 20Z      0.155000
     41 H20        -2.6550    0.7960    1.3710 ha        1 20Z      0.152000
     42 H21         8.3490   -1.1000   -1.1060 ha        1 20Z      0.136000
     43 H22         8.3580   -3.3160    0.0510 ha        1 20Z      0.134000
     44 H23         6.4510   -3.9850    1.4920 ha        1 20Z      0.134000
     45 H24         4.5010   -2.4520    1.7950 ha        1 20Z      0.133000
@<TRIPOS>BOND
     1    1    6 1   
     2    1    7 2   
     3    2    7 1   
     4    2    8 1   
     5    2   30 1   
     6    3    6 1   
     7    3   31 1   
     8    3   32 1   
     9    4   29 1   
    10    4   33 1   
    11    4   34 1   
    12    5    6 2   
    13    5    9 1   
    14    5   28 1   
    15    7   28 1   
    16    8   16 ar  
    17    8   20 ar  
    18    9   10 1   
    19    9   25 2   
    20   10   11 ar  
    21   10   15 ar  
    22   11   12 ar  
    23   11   35 1   
    24   12   13 ar  
    25   12   36 1   
    26   13   14 ar  
    27   13   21 ar  
    28   14   15 ar  
    29   14   24 ar  
    30   15   37 1   
    31   16   17 ar  
    32   16   38 1   
    33   17   18 ar  
    34   17   39 1   
    35   18   19 ar  
    36   18   29 1   
    37   19   20 ar  
    38   19   40 1   
    39   20   41 1   
    40   21   22 ar  
    41   21   42 1   
    42   22   23 ar  
    43   22   43 1   
    44   23   24 ar  
    45   23   44 1   
    46   24   45 1   
    47   26   29 2   
    48   27   29 2   
@<TRIPOS>SUBSTRUCTURE
     1 20Z         1 TEMP              0 ****  ****    0 ROOT
