@<TRIPOS>MOLECULE
20Z
   46    49     1     0     0
SMALL
bcc


@<TRIPOS>ATOM
      1 N01         0.5360   -0.5980   -0.6070 nc        1 20Z     -0.715000
      2 N02        -1.4620   -0.7510    0.7800 nh        1 20Z     -0.679300
      3 N03         2.7740   -0.2660   -1.4760 nh        1 20Z     -0.923500
      4 N04        -6.5320    2.1010   -1.9900 n4        1 20Z     -0.779500
      5 C05         2.2630   -0.0750    0.9350 cd        1 20Z     -0.407000
      6 C06         1.9080   -0.3240   -0.4240 cc        1 20Z      0.697200
      7 C07        -0.0860   -0.5200    0.5890 cd        1 20Z      0.565300
      8 C08        -2.4500   -0.4380   -0.1110 ca        1 20Z      0.321600
      9 C09         3.6150    0.1280    1.4250 c         1 20Z      0.638300
     10 C10         3.7570    0.3100    2.8890 ca        1 20Z     -0.157600
     11 C11         4.8370   -0.3450    3.5400 ca        1 20Z     -0.093000
     12 C12         5.0050   -0.2200    4.8960 ca        1 20Z     -0.108000
     13 C13         4.1150    0.5770    5.6670 ca        1 20Z     -0.020000
     14 C14         3.0500    1.2510    5.0150 ca        1 20Z     -0.044000
     15 C15         2.8890    1.1010    3.6120 ca        1 20Z     -0.101000
     16 C16        -3.7620   -0.9900    0.0810 ca        1 20Z     -0.215000
     17 C17        -4.7890   -0.6660   -0.7640 ca        1 20Z      0.051500
     18 C18        -4.6230    0.2290   -1.8570 ca        1 20Z     -0.659500
     19 C19        -3.3220    0.7810   -2.0270 ca        1 20Z      0.051500
     20 C20        -2.2750    0.4760   -1.1980 ca        1 20Z     -0.215000
     21 C21         4.2720    0.7250    7.0730 ca        1 20Z     -0.116000
     22 C22         3.4070    1.5150    7.7900 ca        1 20Z     -0.113000
     23 C23         2.3490    2.1940    7.1380 ca        1 20Z     -0.117000
     24 C24         2.1730    2.0670    5.7820 ca        1 20Z     -0.123000
     25 O25         4.6030    0.1110    0.6740 o         1 20Z     -0.546100
     26 O26        -6.8820   -0.3080   -2.7920 o         1 20Z     -0.580800
     27 O27        -5.4130    1.1040   -4.0680 o         1 20Z     -0.580800
     28 S28         0.9150   -0.1200    1.9240 ss        1 20Z      0.046700
     29 S29        -5.7770    0.5130   -2.8760 sy        1 20Z      1.519200
     30 HN02       -1.6730   -1.4290    1.4890 hn        1 20Z      0.468800
     31 HN03        3.7460   -0.1850   -1.2660 hn        1 20Z      0.460300
     32 HN0A        2.5000   -0.6200   -2.3600 hn        1 20Z      0.460300
     33 HN04       -6.4990    2.8980   -2.6190 hn        1 20Z      0.445467
     34 HN0B       -6.0250    2.3410   -1.1470 hn        1 20Z      0.445467
     35 H11         5.5340   -0.9420    2.9300 ha        1 20Z      0.156000
     36 H12         5.8380   -0.7280    5.4070 ha        1 20Z      0.147000
     37 H15         2.0800    1.6650    3.1180 ha        1 20Z      0.133000
     38 H16        -3.9440   -1.6980    0.9070 ha        1 20Z      0.178500
     39 H17        -5.7830   -1.1320   -0.6120 ha        1 20Z      0.164500
     40 H19        -3.1510    1.4690   -2.8780 ha        1 20Z      0.164500
     41 H20        -1.2900    0.9370   -1.3850 ha        1 20Z      0.178500
     42 H21         5.1000    0.1970    7.5700 ha        1 20Z      0.144000
     43 H22         3.5280    1.6340    8.8780 ha        1 20Z      0.144000
     44 H23         1.6740    2.8260    7.7350 ha        1 20Z      0.140000
     45 H24         1.3580    2.5960    5.2680 ha        1 20Z      0.129000
     46 H043       -7.5020    1.9340   -1.7440 hn        1 20Z      0.445467
@<TRIPOS>BOND
     1    1    6 1   
     2    1    7 2   
     3    2    7 1   
     4    2    8 1   
     5    2   30 1   
     6    3    6 1   
     7    3   31 1   
     8    3   32 1   
     9    4   29 1   
    10    4   33 1   
    11    4   34 1   
    12    4   46 1   
    13    5    6 2   
    14    5    9 1   
    15    5   28 1   
    16    7   28 1   
    17    8   16 ar  
    18    8   20 ar  
    19    9   10 1   
    20    9   25 2   
    21   10   11 ar  
    22   10   15 ar  
    23   11   12 ar  
    24   11   35 1   
    25   12   13 ar  
    26   12   36 1   
    27   13   14 ar  
    28   13   21 ar  
    29   14   15 ar  
    30   14   24 ar  
    31   15   37 1   
    32   16   17 ar  
    33   16   38 1   
    34   17   18 ar  
    35   17   39 1   
    36   18   19 ar  
    37   18   29 1   
    38   19   20 ar  
    39   19   40 1   
    40   20   41 1   
    41   21   22 ar  
    42   21   42 1   
    43   22   23 ar  
    44   22   43 1   
    45   23   24 ar  
    46   23   44 1   
    47   24   45 1   
    48   26   29 2   
    49   27   29 2   
@<TRIPOS>SUBSTRUCTURE
     1 20Z         1 TEMP              0 ****  ****    0 ROOT
