@<TRIPOS>MOLECULE
20Z
   46    49     1     0     0
SMALL
bcc


@<TRIPOS>ATOM
      1 N01         0.5360   -0.6070   -0.6070 nc        1 20Z     -0.715000
      2 N02        -1.4610   -0.7530    0.7820 nu        1 20Z     -0.679300
      3 N03         2.7750   -0.2820   -1.4770 nv        1 20Z     -0.923500
      4 N04        -6.5260    2.1070   -1.9880 nz        1 20Z     -0.779500
      5 C05         2.2650   -0.0820    0.9330 cd        1 20Z     -0.407000
      6 C06         1.9090   -0.3350   -0.4250 cc        1 20Z      0.696200
      7 C07        -0.0850   -0.5240    0.5900 cd        1 20Z      0.565300
      8 C08        -2.4490   -0.4390   -0.1090 ca        1 20Z      0.321600
      9 C09         3.6170    0.1210    1.4210 c         1 20Z      0.638300
     10 C10         3.7600    0.3090    2.8850 ca        1 20Z     -0.157600
     11 C11         4.8390   -0.3450    3.5390 ca        1 20Z     -0.093000
     12 C12         5.0080   -0.2140    4.8940 ca        1 20Z     -0.108000
     13 C13         4.1190    0.5870    5.6620 ca        1 20Z     -0.020000
     14 C14         3.0550    1.2600    5.0080 ca        1 20Z     -0.044000
     15 C15         2.8930    1.1040    3.6050 ca        1 20Z     -0.101000
     16 C16        -3.7620   -0.9880    0.0830 ca        1 20Z     -0.215000
     17 C17        -4.7880   -0.6620   -0.7620 ca        1 20Z      0.051500
     18 C18        -4.6210    0.2320   -1.8550 ca        1 20Z     -0.659500
     19 C19        -3.3190    0.7810   -2.0260 ca        1 20Z      0.051500
     20 C20        -2.2720    0.4740   -1.1970 ca        1 20Z     -0.215000
     21 C21         4.2760    0.7410    7.0670 ca        1 20Z     -0.116000
     22 C22         3.4130    1.5350    7.7810 ca        1 20Z     -0.113000
     23 C23         2.3550    2.2120    7.1270 ca        1 20Z     -0.117000
     24 C24         2.1790    2.0790    5.7720 ca        1 20Z     -0.123000
     25 O25         4.6050    0.1000    0.6700 o         1 20Z     -0.546100
     26 O26        -6.8810   -0.3010   -2.7900 o         1 20Z     -0.580800
     27 O27        -5.4100    1.1070   -4.0660 o         1 20Z     -0.580800
     28 S28         0.9170   -0.1220    1.9230 ss        1 20Z      0.047700
     29 S29        -5.7740    0.5170   -2.8740 sy        1 20Z      1.519200
     30 HN02       -1.6730   -1.4300    1.4900 hn        1 20Z      0.468800
     31 HN03        3.7470   -0.2010   -1.2680 hn        1 20Z      0.460300
     32 HN0A        2.5000   -0.6390   -2.3610 hn        1 20Z      0.460300
     33 HN04       -6.0180    2.3460   -1.1450 hn        1 20Z      0.445467
     34 HN0B       -6.4920    2.9040   -2.6180 hn        1 20Z      0.445467
     35 H11         5.5350   -0.9450    2.9310 ha        1 20Z      0.156000
     36 H12         5.8400   -0.7210    5.4070 ha        1 20Z      0.147000
     37 H15         2.0840    1.6670    3.1090 ha        1 20Z      0.133000
     38 H16        -3.9450   -1.6960    0.9090 ha        1 20Z      0.178500
     39 H17        -5.7830   -1.1270   -0.6100 ha        1 20Z      0.164500
     40 H19        -3.1470    1.4680   -2.8770 ha        1 20Z      0.164500
     41 H20        -1.2860    0.9330   -1.3850 ha        1 20Z      0.178500
     42 H21         5.1040    0.2140    7.5660 ha        1 20Z      0.144000
     43 H22         3.5340    1.6580    8.8680 ha        1 20Z      0.144000
     44 H23         1.6810    2.8480    7.7210 ha        1 20Z      0.140000
     45 H24         1.3640    2.6080    5.2550 ha        1 20Z      0.129000
     46 H043       -7.4970    1.9420   -1.7420 hn        1 20Z      0.445467
@<TRIPOS>BOND
     1    1    6 1   
     2    1    7 2   
     3    2    7 1   
     4    2    8 1   
     5    2   30 1   
     6    3    6 1   
     7    3   31 1   
     8    3   32 1   
     9    4   29 1   
    10    4   33 1   
    11    4   34 1   
    12    4   46 1   
    13    5    6 2   
    14    5    9 1   
    15    5   28 1   
    16    7   28 1   
    17    8   16 ar  
    18    8   20 ar  
    19    9   10 1   
    20    9   25 2   
    21   10   11 ar  
    22   10   15 ar  
    23   11   12 ar  
    24   11   35 1   
    25   12   13 ar  
    26   12   36 1   
    27   13   14 ar  
    28   13   21 ar  
    29   14   15 ar  
    30   14   24 ar  
    31   15   37 1   
    32   16   17 ar  
    33   16   38 1   
    34   17   18 ar  
    35   17   39 1   
    36   18   19 ar  
    37   18   29 1   
    38   19   20 ar  
    39   19   40 1   
    40   20   41 1   
    41   21   22 ar  
    42   21   42 1   
    43   22   23 ar  
    44   22   43 1   
    45   23   24 ar  
    46   23   44 1   
    47   24   45 1   
    48   26   29 2   
    49   27   29 2   
@<TRIPOS>SUBSTRUCTURE
     1 20Z         1 TEMP              0 ****  ****    0 ROOT
