@<TRIPOS>MOLECULE
210
   20    18     1     0     0
SMALL
bcc


@<TRIPOS>ATOM
      1 P1          0.3190    2.1090    0.6530 p4        1 210      1.628000
      2 O2          1.8290    2.1090    0.6530 os        1 210     -1.321000
      3 O3         -0.1840    2.1090    2.0760 o         1 210     -0.984500
      4 O5         -0.1840    3.3420   -0.0590 o         1 210     -1.033300
      5 C7         -0.2860    0.6270   -0.2030 c3        1 210     -0.211600
      6 P8         -2.0970    0.6910   -0.3180 p5        1 210      1.247700
      7 O9         -2.6910    0.6420    1.0700 o         1 210     -0.986167
      8 O10        -2.5130    1.9720   -0.9990 o         1 210     -0.986167
      9 O12        -2.5930   -0.4890   -1.1190 o         1 210     -0.986167
     10 O14         0.2640    0.5750   -1.4970 oh        1 210     -0.671800
     11 C16         0.1270   -0.6060    0.5700 c3        1 210     -0.022400
     12 C19         0.9940   -1.4840   -0.3050 c3        1 210      0.181800
     13 N22         1.3830   -2.6460    0.4230 n3        1 210     -0.975800
     14 HO14        0.0220    1.2980   -1.9510 ho        1 210      0.412000
     15 H161       -0.6690   -1.1020    0.8410 hc        1 210      0.008200
     16 H162        0.6300   -0.3400    1.3630 hc        1 210      0.008200
     17 H191        1.7900   -0.9880   -0.5760 h1        1 210     -0.018800
     18 H192        0.4910   -1.7500   -1.0980 h1        1 210     -0.018800
     19 H221        2.2920   -2.6780    0.4820 hn        1 210      0.364800
     20 H222        1.0790   -3.3910   -0.0070 hn        1 210      0.364800
@<TRIPOS>BOND
     1    1    3 1   
     2    1    4 2   
     3    1    5 1   
     4    5    6 1   
     5    5   10 1   
     6    5   11 1   
     7    6    7 1   
     8    6    8 1   
     9    6    9 1   
    10   10   14 1   
    11   11   12 1   
    12   11   15 1   
    13   11   16 1   
    14   12   13 1   
    15   12   17 1   
    16   12   18 1   
    17   13   19 1   
    18   13   20 1   
@<TRIPOS>SUBSTRUCTURE
     1 210         1 TEMP              0 ****  ****    0 ROOT
