@<TRIPOS>MOLECULE
210
   20    19     1     0     0
SMALL
bcc


@<TRIPOS>ATOM
      1 P1         -1.8800   -0.2600    0.1700 p5        1 210      1.256700
      2 O2         -2.3700    0.8690   -0.7380 o         1 210     -0.984333
      3 O3         -2.4750   -0.0780    1.5770 o         1 210     -0.984333
      4 O5         -2.2890   -1.6080   -0.3980 o         1 210     -0.984333
      5 C7         -0.0930   -0.0810    0.4900 c3        1 210     -0.162600
      6 P8          1.6390   -0.5860   -0.2090 p5        1 210      1.256700
      7 O9          1.8140   -2.0860   -0.3450 o         1 210     -0.984333
      8 O10         1.7920    0.1100   -1.5570 o         1 210     -0.984333
      9 O12         2.6560   -0.0130    0.7740 o         1 210     -0.984333
     10 O14         0.0640   -0.8410    1.6880 oh        1 210     -0.644800
     11 C16         0.1070    1.3780    0.8640 c3        1 210     -0.078400
     12 C19         0.3460    2.4410   -0.2240 c3        1 210      0.124800
     13 N22        -0.7930    3.1480   -0.7760 n3        1 210     -0.954800
     14 HO14       -0.7120   -0.6760    2.2500 ho        1 210      0.358000
     15 H161        1.0270    1.4090    1.5190 hc        1 210     -0.000800
     16 H162       -0.7710    1.6970    1.4970 hc        1 210     -0.000800
     17 H191        0.9220    1.8990   -1.0440 h1        1 210      0.031700
     18 H192        1.0160    3.2410    0.2220 h1        1 210      0.031700
     19 H221       -1.2270    2.5340   -1.4560 hn        1 210      0.344800
     20 H222       -1.4880    3.2380   -0.0520 hn        1 210      0.344800
@<TRIPOS>BOND
     1    1    2 1   
     2    1    3 1   
     3    1    4 1   
     4    1    5 1   
     5    5    6 1   
     6    5   10 1   
     7    5   11 1   
     8    6    7 1   
     9    6    8 1   
    10    6    9 1   
    11   10   14 1   
    12   11   12 1   
    13   11   15 1   
    14   11   16 1   
    15   12   13 1   
    16   12   17 1   
    17   12   18 1   
    18   13   19 1   
    19   13   20 1   
@<TRIPOS>SUBSTRUCTURE
     1 210         1 TEMP              0 ****  ****    0 ROOT
