@<TRIPOS>MOLECULE
211
   25    24     1     0     0
SMALL
bcc


@<TRIPOS>ATOM
      1 O1         -3.0450    1.6690    1.1280 oh        1 211     -0.605800
      2 O2          0.3080   -3.6620    0.1880 oh        1 211     -0.605800
      3 C1         -1.3740    0.6090   -0.2400 c3        1 211      0.169800
      4 C2         -1.8530    0.9160    1.1850 c3        1 211      0.127400
      5 O3          2.8060    2.0030   -1.2380 oh        1 211     -0.605800
      6 C3         -0.2080   -1.4300   -0.5410 c3        1 211      0.169800
      7 C4          0.5500   -2.2890    0.4630 c3        1 211      0.127400
      8 C5          0.8360    0.6170   -1.1220 c3        1 211      0.169800
      9 C6          1.8090    1.5070   -0.3500 c3        1 211      0.127400
     10 N1         -0.0710   -0.0380   -0.1850 n3        1 211     -0.751600
     11 HO1        -3.3000    1.8850    1.9570 ho        1 211      0.403000
     12 HO2         0.6680   -4.1610    0.8290 ho        1 211      0.403000
     13 H11        -2.0180    0.0110   -0.6810 h1        1 211      0.048700
     14 H12        -1.3030    1.4460   -0.7490 h1        1 211      0.048700
     15 H21        -2.0190    0.0840    1.6570 h1        1 211      0.029200
     16 H22        -1.1640    1.4290    1.6580 h1        1 211      0.029200
     17 HO3         3.3910    2.5050   -0.7800 ho        1 211      0.403000
     18 H31         0.1610   -1.5760   -1.4430 h1        1 211      0.048700
     19 H32        -1.1500   -1.6760   -0.5310 h1        1 211      0.048700
     20 H41         0.2480   -2.0800    1.3610 h1        1 211      0.029200
     21 H42         1.5080   -2.1060    0.3910 h1        1 211      0.029200
     22 H51         0.3210    1.1630   -1.7450 h1        1 211      0.048700
     23 H52         1.3390   -0.0640   -1.6220 h1        1 211      0.048700
     24 H61         1.3220    2.2570    0.0450 h1        1 211      0.029200
     25 H62         2.2390    0.9810    0.3660 h1        1 211      0.029200
@<TRIPOS>BOND
     1    1    4 1   
     2    1   11 1   
     3    2    7 1   
     4    2   12 1   
     5    3    4 1   
     6    3   10 1   
     7    3   13 1   
     8    3   14 1   
     9    4   15 1   
    10    4   16 1   
    11    5    9 1   
    12    5   17 1   
    13    6    7 1   
    14    6   10 1   
    15    6   18 1   
    16    6   19 1   
    17    7   20 1   
    18    7   21 1   
    19    8    9 1   
    20    8   10 1   
    21    8   22 1   
    22    8   23 1   
    23    9   24 1   
    24    9   25 1   
@<TRIPOS>SUBSTRUCTURE
     1 211         1 TEMP              0 ****  ****    0 ROOT
