@<TRIPOS>MOLECULE
211
   26    25     1     0     0
SMALL
bcc


@<TRIPOS>ATOM
      1 O1          0.8350   -0.4990   -0.7740 oh        1 211     -0.627467
      2 O2         -0.3390   -0.2060    3.3880 oh        1 211     -0.627467
      3 C1          1.8250    0.1140    1.3250 c3        1 211      0.098467
      4 C2          1.8470    0.3010   -0.1940 c3        1 211      0.112067
      5 O3          4.3910   -1.6820    2.6870 oh        1 211     -0.627467
      6 C3          0.3640   -1.8380    1.8020 c3        1 211      0.098467
      7 C4         -0.3920   -1.5930    3.1130 c3        1 211      0.112067
      8 C5          2.7040   -2.2100    1.1020 c3        1 211      0.098467
      9 C6          4.1790   -1.8390    1.2960 c3        1 211      0.112067
     10 N1          1.7640   -1.2980    1.8240 n4        1 211     -0.659400
     11 HO1         0.5750   -0.0860   -1.6090 ho        1 211      0.447000
     12 HO2        -1.0310   -0.0070    4.0320 ho        1 211      0.447000
     13 H11         0.9300    0.6530    1.7600 hx        1 211      0.117033
     14 H12         2.7700    0.5710    1.7420 hx        1 211      0.117033
     15 H21         1.6800    1.3940   -0.3990 h1        1 211      0.066700
     16 H22         2.8420   -0.0040   -0.6210 h1        1 211      0.066700
     17 HO3         5.3340   -1.8060    2.8600 ho        1 211      0.447000
     18 H31        -0.1880   -1.3540    0.9430 hx        1 211      0.117033
     19 H32         0.4010   -2.9500    1.6230 hx        1 211      0.117033
     20 H41        -1.4500   -1.9430    2.9690 h1        1 211      0.066700
     21 H42         0.0760   -2.1610    3.9630 h1        1 211      0.066700
     22 H51         2.5410   -3.2510    1.5060 hx        1 211      0.117033
     23 H52         2.4460   -2.1940    0.0050 hx        1 211      0.117033
     24 H61         4.8040   -2.6690    0.8710 h1        1 211      0.066700
     25 H62         4.4290   -0.8770    0.7720 h1        1 211      0.066700
     26 H111        2.0730   -1.2650    2.8120 hn        1 211      0.466800
@<TRIPOS>BOND
     1    1    4 1   
     2    1   11 1   
     3    2    7 1   
     4    2   12 1   
     5    3    4 1   
     6    3   10 1   
     7    3   13 1   
     8    3   14 1   
     9    4   15 1   
    10    4   16 1   
    11    5    9 1   
    12    5   17 1   
    13    6    7 1   
    14    6   10 1   
    15    6   18 1   
    16    6   19 1   
    17    7   20 1   
    18    7   21 1   
    19    8    9 1   
    20    8   10 1   
    21    8   22 1   
    22    8   23 1   
    23    9   24 1   
    24    9   25 1   
    25   10   26 1   
@<TRIPOS>SUBSTRUCTURE
     1 211         1 TEMP              0 ****  ****    0 ROOT
