@<TRIPOS>MOLECULE
211
   25    24     1     0     0
SMALL
bcc


@<TRIPOS>ATOM
      1 O1         -1.5120    2.0800   -0.6960 oh        1 211     -0.602133
      2 O2         -2.3150   -1.6360    0.7670 oh        1 211     -0.602133
      3 C1         -0.2680    0.7190    0.8380 c3        1 211      0.156467
      4 C2         -0.5730    2.1470    0.3620 c3        1 211      0.119400
      5 O3          3.2240   -0.4140    0.4970 oh        1 211     -0.602133
      6 C3         -0.7770   -0.8960   -0.9040 c3        1 211      0.156467
      7 C4         -1.3760   -2.1130   -0.1830 c3        1 211      0.119400
      8 C5          1.3530    0.2660   -0.9370 c3        1 211      0.156467
      9 C6          2.5920    0.6800   -0.1320 c3        1 211      0.119400
     10 N1          0.2580   -0.2300   -0.1210 n3        1 211     -0.745600
     11 HO1        -1.7720    2.9870   -0.8930 ho        1 211      0.402333
     12 HO2        -2.6140   -2.4020    1.2690 ho        1 211      0.402333
     13 H11         0.4930    0.8110    1.6650 h1        1 211      0.056033
     14 H12        -1.2150    0.2830    1.2710 h1        1 211      0.056033
     15 H21         0.3610    2.6610    0.0060 h1        1 211      0.030033
     16 H22        -0.9980    2.7280    1.2240 h1        1 211      0.030033
     17 HO3         2.5590   -0.8670    1.0300 ho        1 211      0.402333
     18 H31        -1.6180   -0.1880   -1.1610 h1        1 211      0.056033
     19 H32        -0.3350   -1.2780   -1.8670 h1        1 211      0.056033
     20 H41        -1.9060   -2.7510   -0.9410 h1        1 211      0.030033
     21 H42        -0.5850   -2.7260    0.3240 h1        1 211      0.030033
     22 H51         1.6680   -0.5640   -1.6330 h1        1 211      0.056033
     23 H52         1.0390    1.1480   -1.5680 h1        1 211      0.056033
     24 H61         3.3650    1.0850   -0.8400 h1        1 211      0.030033
     25 H62         2.3390    1.4670    0.6270 h1        1 211      0.030033
@<TRIPOS>BOND
     1    1    4 1   
     2    1   11 1   
     3    2    7 1   
     4    2   12 1   
     5    3    4 1   
     6    3   10 1   
     7    3   13 1   
     8    3   14 1   
     9    4   15 1   
    10    4   16 1   
    11    5    9 1   
    12    5   17 1   
    13    6    7 1   
    14    6   10 1   
    15    6   18 1   
    16    6   19 1   
    17    7   20 1   
    18    7   21 1   
    19    8    9 1   
    20    8   10 1   
    21    8   22 1   
    22    8   23 1   
    23    9   24 1   
    24    9   25 1   
@<TRIPOS>SUBSTRUCTURE
     1 211         1 TEMP              0 ****  ****    0 ROOT
