@<TRIPOS>MOLECULE
211
   26    25     1     0     0
SMALL
bcc


@<TRIPOS>ATOM
      1 O1          0.7960   -0.5650   -0.7750 oh        1 211     -0.627467
      2 O2         -0.2870   -0.1120    3.3980 oh        1 211     -0.627467
      3 C1          1.8370    0.1060    1.2820 c3        1 211      0.098467
      4 C2          1.8300    0.2400   -0.2440 c3        1 211      0.112067
      5 O3          4.4080   -1.6770    2.6520 oh        1 211     -0.627467
      6 C3          0.3610   -1.8080    1.8560 c3        1 211      0.098467
      7 C4         -0.3640   -1.5070    3.1730 c3        1 211      0.112067
      8 C5          2.6810   -2.2360    1.1210 c3        1 211      0.098467
      9 C6          4.1650   -1.8790    1.2720 c3        1 211      0.112067
     10 N1          1.7690   -1.2860    1.8300 nx        1 211     -0.659400
     11 HO1         0.5240   -0.1780   -1.6180 ho        1 211      0.447000
     12 HO2        -0.9630    0.1190    4.0480 ho        1 211      0.447000
     13 H11         0.9590    0.6720    1.7150 hx        1 211      0.117033
     14 H12         2.7960    0.5640    1.6630 hx        1 211      0.117033
     15 H21         1.6730    1.3270   -0.4840 h1        1 211      0.066700
     16 H22         2.8120   -0.0930   -0.6800 h1        1 211      0.066700
     17 HO3         5.3530   -1.8080    2.8090 ho        1 211      0.447000
     18 H31        -0.2020   -1.3460    0.9920 hx        1 211      0.117033
     19 H32         0.3800   -2.9260    1.7150 hx        1 211      0.117033
     20 H41        -1.4290   -1.8470    3.0630 h1        1 211      0.066700
     21 H42         0.1150   -2.0510    4.0330 h1        1 211      0.066700
     22 H51         2.5140   -3.2600    1.5650 hx        1 211      0.117033
     23 H52         2.4000   -2.2540    0.0300 hx        1 211      0.117033
     24 H61         4.7700   -2.7310    0.8630 h1        1 211      0.066700
     25 H62         4.4160   -0.9390    0.7090 h1        1 211      0.066700
     26 H111        2.0990   -1.2240    2.8100 hn        1 211      0.466800
@<TRIPOS>BOND
     1    1    4 1   
     2    1   11 1   
     3    2    7 1   
     4    2   12 1   
     5    3    4 1   
     6    3   10 1   
     7    3   13 1   
     8    3   14 1   
     9    4   15 1   
    10    4   16 1   
    11    5    9 1   
    12    5   17 1   
    13    6    7 1   
    14    6   10 1   
    15    6   18 1   
    16    6   19 1   
    17    7   20 1   
    18    7   21 1   
    19    8    9 1   
    20    8   10 1   
    21    8   22 1   
    22    8   23 1   
    23    9   24 1   
    24    9   25 1   
    25   10   26 1   
@<TRIPOS>SUBSTRUCTURE
     1 211         1 TEMP              0 ****  ****    0 ROOT
