@<TRIPOS>MOLECULE
211
   26    25     1     0     0
SMALL
bcc


@<TRIPOS>ATOM
      1 O1         -0.0340    0.1880    0.0530 oh        1 211     -0.616467
      2 O2         -0.5400   -0.0660    2.8390 oh        1 211     -0.616467
      3 C1          1.9510    0.0400    1.3560 c3        1 211      0.081800
      4 C2          1.3750    0.2920   -0.0390 c3        1 211      0.116400
      5 O3          4.4970   -1.8810    2.8290 oh        1 211     -0.616467
      6 C3          0.5750   -1.9960    1.8420 c3        1 211      0.081800
      7 C4         -0.3500   -1.4540    2.9420 c3        1 211      0.116400
      8 C5          2.9100   -2.2400    1.0990 c3        1 211      0.081800
      9 C6          4.3780   -1.9260    1.4190 c3        1 211      0.116400
     10 N1          1.9380   -1.3760    1.8430 n4        1 211     -0.666400
     11 HO1        -0.4160    0.7200   -0.6580 ho        1 211      0.443667
     12 HO2        -1.0950    0.1090    2.0640 ho        1 211      0.443667
     13 H11         1.3520    0.6490    2.1020 hx        1 211      0.113700
     14 H12         3.0250    0.3840    1.3700 hx        1 211      0.113700
     15 H21         1.7510   -0.4440   -0.7990 h1        1 211      0.073200
     16 H22         1.6850    1.3290   -0.3460 h1        1 211      0.073200
     17 HO3         5.4280   -2.0150    3.0530 ho        1 211      0.443667
     18 H31         0.1090   -1.8240    0.8300 hx        1 211      0.113700
     19 H32         0.6940   -3.1060    2.0060 hx        1 211      0.113700
     20 H41        -1.3220   -2.0140    2.8610 h1        1 211      0.073200
     21 H42         0.0900   -1.6140    3.9650 h1        1 211      0.073200
     22 H51         2.7080   -3.3120    1.3890 hx        1 211      0.113700
     23 H52         2.7350   -2.1200   -0.0060 hx        1 211      0.113700
     24 H61         4.6930   -0.9390    0.9840 h1        1 211      0.073200
     25 H62         5.0090   -2.7430    0.9750 h1        1 211      0.073200
     26 H111        2.2620   -1.3410    2.8260 hn        1 211      0.469800
@<TRIPOS>BOND
     1    1    4 1   
     2    1   11 1   
     3    2    7 1   
     4    2   12 1   
     5    3    4 1   
     6    3   10 1   
     7    3   13 1   
     8    3   14 1   
     9    4   15 1   
    10    4   16 1   
    11    5    9 1   
    12    5   17 1   
    13    6    7 1   
    14    6   10 1   
    15    6   18 1   
    16    6   19 1   
    17    7   20 1   
    18    7   21 1   
    19    8    9 1   
    20    8   10 1   
    21    8   22 1   
    22    8   23 1   
    23    9   24 1   
    24    9   25 1   
    25   10   26 1   
@<TRIPOS>SUBSTRUCTURE
     1 211         1 TEMP              0 ****  ****    0 ROOT
