@<TRIPOS>MOLECULE
213
   72    76     1     0     0
SMALL
bcc


@<TRIPOS>ATOM
      1 C1          0.4900    0.0360    0.3230 ca        1 213     -0.138000
      2 C2          1.7010   -0.5450    0.6930 ca        1 213     -0.146500
      3 C3          2.1960   -0.3840    1.9880 ca        1 213     -0.098000
      4 C4          1.4830    0.3560    2.9390 ca        1 213     -0.080000
      5 C5          0.2680    0.9470    2.5520 ca        1 213     -0.098000
      6 C6         -0.2220    0.7870    1.2560 ca        1 213     -0.146500
      7 C10         0.4570    3.6700    4.5090 ca        1 213     -0.045000
      8 C11         1.5680    3.0820    3.8710 ca        1 213     -0.338000
      9 C12         1.8930    3.5540    2.5810 ca        1 213     -0.045000
     10 C13         1.1300    4.4910    1.9300 ca        1 213     -0.275500
     11 C14        -0.0540    5.0350    2.5380 ca        1 213      0.067000
     12 C15        -0.3340    4.6020    3.8800 ca        1 213     -0.275500
     13 C20         3.2560   -1.3200    6.9080 ca        1 213     -0.126500
     14 C21         3.8440   -0.4970    5.9410 ca        1 213     -0.110000
     15 C22         5.1370   -0.0140    6.1920 ca        1 213     -0.126500
     16 C23         5.8570   -0.4310    7.3080 ca        1 213     -0.146000
     17 C24         5.3060   -1.3380    8.2320 cp        1 213      0.037000
     18 C25         3.9630   -1.7120    8.0400 ca        1 213     -0.146000
     19 C30         1.9890    0.5740    4.3660 c3        1 213      0.149000
     20 N31         0.9120    0.1660    5.3020 na        1 213     -0.145000
     21 C32         3.2380   -0.3300    4.5930 c3        1 213     -0.122000
     22 C35         2.4160    2.0720    4.5320 c3        1 213     -0.046000
     23 C40        -1.5100   -3.1670    5.7870 ca        1 213     -0.176000
     24 C41        -1.5210   -2.0920    6.6620 ca        1 213     -0.062000
     25 C42        -0.6560   -1.0260    6.3980 ca        1 213     -0.131000
     26 C43         0.2160   -1.0580    5.2370 ca        1 213     -0.025000
     27 C44         0.2050   -2.1570    4.3660 ca        1 213     -0.105000
     28 C45        -0.6630   -3.1960    4.6610 ca        1 213     -0.129000
     29 N46        -0.3910    0.2090    7.0510 n2        1 213     -0.116000
     30 N47         0.5000    0.8350    6.4030 n2        1 213      0.092000
     31 C52        -0.8670    5.9110    1.8690 c2        1 213     -0.111000
     32 F53        -0.7430    6.4050    0.6090 f         1 213     -0.150000
     33 F54        -2.0140    6.5130    2.2790 f         1 213     -0.150000
     34 P55        -2.8560    7.9510    0.2210 p3        1 213      2.416000
     35 O56        -3.5470    8.5820    1.3660 o         1 213     -1.142333
     36 O57        -3.5090    6.8270   -0.4820 o         1 213     -1.142333
     37 O58        -1.7970    8.7220   -0.4630 o         1 213     -1.142333
     38 C61         6.1090   -1.9300    9.2980 cq        1 213     -0.123000
     39 C62         7.2810   -1.3240    9.7950 ca        1 213     -0.039000
     40 C63         8.0520   -1.9600   10.7540 ca        1 213     -0.553000
     41 C64         7.6620   -3.1870   11.2710 ca        1 213     -0.069000
     42 C65         6.5000   -3.8040   10.8040 ca        1 213     -0.201000
     43 C66         5.7370   -3.1850    9.8180 ca        1 213     -0.153000
     44 P71         9.6000   -1.3290   11.3590 p5        1 213      1.622500
     45 O72        10.6050   -1.9190   10.3960 o         1 213     -0.950833
     46 O73         9.6800   -1.9110   12.7570 o         1 213     -0.950833
     47 O74         9.4490    0.1720   11.2870 o         1 213     -0.950833
     48 H1          0.1100   -0.0800   -0.7010 ha        1 213      0.109000
     49 H2          2.2800   -1.1240   -0.0390 ha        1 213      0.123000
     50 H3          3.1670   -0.8420    2.2220 ha        1 213      0.151500
     51 H5         -0.2860    1.5860    3.2630 ha        1 213      0.151500
     52 H6         -1.1590    1.2880    0.9680 ha        1 213      0.123000
     53 H12         2.7890    3.1500    2.0830 ha        1 213      0.086000
     54 H13         1.3990    4.8460    0.9280 ha        1 213      0.106500
     55 H15        -1.1980    5.0450    4.3890 ha        1 213      0.106500
     56 H22         5.6010    0.6840    5.4800 ha        1 213      0.114000
     57 H23         6.8860   -0.0670    7.4630 ha        1 213      0.137500
     58 H25         3.4620   -2.3420    8.7890 ha        1 213      0.137500
     59 H321        2.9660   -1.3680    4.2450 hc        1 213      0.082000
     60 H322        4.0290    0.0700    3.8990 hc        1 213      0.082000
     61 H351        2.5150    2.2960    5.6270 hc        1 213      0.083500
     62 H352        3.4520    2.1260    4.0950 hc        1 213      0.083500
     63 H40        -2.1760   -4.0220    5.9700 ha        1 213      0.108000
     64 H41        -2.1810   -2.0710    7.5390 ha        1 213      0.131000
     65 H44         0.8590   -2.1760    3.4820 ha        1 213      0.151000
     66 H45        -0.6940   -4.0730    3.9980 ha        1 213      0.113000
     67 H62         7.6080   -0.3290    9.4520 ha        1 213      0.149000
     68 H64         8.3020   -3.6200   12.0600 ha        1 213      0.164000
     69 H65         6.1840   -4.7780   11.2020 ha        1 213      0.073000
     70 H66         4.8460   -3.6990    9.4330 ha        1 213      0.079000
     71 H10         0.2200    3.3740    5.5420 ha        1 213      0.086000
     72 H20         2.2300   -1.6910    6.7660 ha        1 213      0.114000
@<TRIPOS>BOND
     1    1    2 1   
     2    1    6 1   
     3    1   48 1   
     4    2    3 1   
     5    2   49 1   
     6    3    4 1   
     7    3   50 1   
     8    4    5 1   
     9    4   19 1   
    10    5    6 1   
    11    5   51 1   
    12    6   52 1   
    13    7    8 1   
    14    7   12 1   
    15    7   71 1   
    16    8    9 1   
    17    8   22 1   
    18    9   10 1   
    19    9   53 1   
    20   10   11 1   
    21   10   54 1   
    22   11   12 1   
    23   11   31 1   
    24   12   55 1   
    25   13   14 1   
    26   13   18 1   
    27   13   72 1   
    28   14   15 1   
    29   14   21 1   
    30   15   16 1   
    31   15   56 1   
    32   16   17 1   
    33   16   57 1   
    34   17   18 1   
    35   17   38 1   
    36   18   58 1   
    37   19   20 1   
    38   19   21 1   
    39   19   22 1   
    40   20   26 1   
    41   20   30 1   
    42   21   59 1   
    43   21   60 1   
    44   22   61 1   
    45   22   62 1   
    46   23   24 1   
    47   23   28 1   
    48   23   63 1   
    49   24   25 1   
    50   24   64 1   
    51   25   26 1   
    52   25   29 1   
    53   26   27 1   
    54   27   28 1   
    55   27   65 1   
    56   28   66 1   
    57   29   30 1   
    58   31   32 1   
    59   31   33 1   
    60   34   35 1   
    61   34   36 1   
    62   34   37 1   
    63   38   39 1   
    64   38   43 1   
    65   39   40 1   
    66   39   67 1   
    67   40   41 1   
    68   40   44 1   
    69   41   42 1   
    70   41   68 1   
    71   42   43 1   
    72   42   69 1   
    73   43   70 1   
    74   44   45 1   
    75   44   46 1   
    76   44   47 1   
@<TRIPOS>SUBSTRUCTURE
     1 213         1 TEMP              0 ****  ****    0 ROOT
