@<TRIPOS>MOLECULE
213
   72    76     1     0     0
SMALL
bcc


@<TRIPOS>ATOM
      1 C1          0.4700    0.0080    0.3330 ca        1 213     -0.138000
      2 C2          1.6830   -0.5710    0.7010 ca        1 213     -0.146500
      3 C3          2.1830   -0.4020    1.9930 ca        1 213     -0.098000
      4 C4          1.4740    0.3430    2.9430 ca        1 213     -0.080000
      5 C5          0.2570    0.9310    2.5580 ca        1 213     -0.098000
      6 C6         -0.2380    0.7640    1.2650 ca        1 213     -0.146500
      7 C10         0.4530    3.6660    4.4990 ca        1 213     -0.045000
      8 C11         1.5620    3.0740    3.8600 ca        1 213     -0.338000
      9 C12         1.8810    3.5390    2.5650 ca        1 213     -0.045000
     10 C13         1.1150    4.4720    1.9120 ca        1 213     -0.275000
     11 C14        -0.0660    5.0190    2.5230 ca        1 213      0.067000
     12 C15        -0.3400    4.5930    3.8680 ca        1 213     -0.275000
     13 C20         3.2630   -1.3100    6.9140 ca        1 213     -0.126500
     14 C21         3.8470   -0.4930    5.9400 ca        1 213     -0.110000
     15 C22         5.1410   -0.0080    6.1840 ca        1 213     -0.126500
     16 C23         5.8660   -0.4180    7.2990 ca        1 213     -0.146000
     17 C24         5.3190   -1.3200    8.2290 cp        1 213      0.037000
     18 C25         3.9760   -1.6960    8.0460 ca        1 213     -0.146000
     19 C30         1.9860    0.5690    4.3670 c3        1 213      0.149000
     20 N31         0.9120    0.1660    5.3100 na        1 213     -0.145000
     21 C32         3.2350   -0.3330    4.5930 c3        1 213     -0.122000
     22 C35         2.4130    2.0680    4.5230 c3        1 213     -0.046000
     23 C40        -1.5070   -3.1640    5.8230 ca        1 213     -0.176000
     24 C41        -1.5140   -2.0850    6.6930 ca        1 213     -0.062000
     25 C42        -0.6510   -1.0200    6.4190 ca        1 213     -0.131000
     26 C43         0.2160   -1.0590    5.2540 ca        1 213     -0.025000
     27 C44         0.2020   -2.1620    4.3890 ca        1 213     -0.105000
     28 C45        -0.6650   -3.1990    4.6940 ca        1 213     -0.129000
     29 N46        -0.3830    0.2180    7.0640 n2        1 213     -0.116000
     30 N47         0.5060    0.8410    6.4090 n2        1 213      0.092000
     31 C52        -0.8820    5.8910    1.8510 c2        1 213     -0.111000
     32 F53        -0.7640    6.3780    0.5890 f         1 213     -0.149500
     33 F54        -2.0280    6.4940    2.2630 f         1 213     -0.149500
     34 P55        -2.8810    7.9200    0.2020 p3        1 213      2.416000
     35 O56        -3.5980    8.5300    1.3430 o         1 213     -1.142667
     36 O57        -3.5090    6.7960   -0.5230 o         1 213     -1.142667
     37 O58        -1.8210    8.7120   -0.4570 o         1 213     -1.142667
     38 C61         6.1260   -1.9060    9.2960 cq        1 213     -0.123000
     39 C62         7.3010   -1.2980    9.7840 ca        1 213     -0.039000
     40 C63         8.0760   -1.9280   10.7430 ca        1 213     -0.553000
     41 C64         7.6880   -3.1520   11.2700 ca        1 213     -0.069000
     42 C65         6.5240   -3.7720   10.8110 ca        1 213     -0.201000
     43 C66         5.7570   -3.1580    9.8240 ca        1 213     -0.153000
     44 P71         9.6260   -1.2930   11.3390 p5        1 213      1.622500
     45 O72        10.6270   -1.8890   10.3750 o         1 213     -0.950833
     46 O73         9.7110   -1.8670   12.7400 o         1 213     -0.950833
     47 O74         9.4740    0.2070   11.2590 o         1 213     -0.950833
     48 H1          0.0850   -0.1140   -0.6880 ha        1 213      0.109000
     49 H2          2.2590   -1.1540   -0.0300 ha        1 213      0.123000
     50 H3          3.1550   -0.8590    2.2260 ha        1 213      0.151500
     51 H5         -0.2950    1.5740    3.2680 ha        1 213      0.151500
     52 H6         -1.1770    1.2630    0.9780 ha        1 213      0.123000
     53 H12         2.7760    3.1320    2.0660 ha        1 213      0.086000
     54 H13         1.3800    4.8220    0.9070 ha        1 213      0.106500
     55 H15        -1.2030    5.0400    4.3780 ha        1 213      0.106500
     56 H22         5.6020    0.6860    5.4650 ha        1 213      0.114000
     57 H23         6.8960   -0.0530    7.4470 ha        1 213      0.137500
     58 H25         3.4770   -2.3210    8.8000 ha        1 213      0.137500
     59 H321        4.0240    0.0620    3.8950 hc        1 213      0.082000
     60 H322        2.9630   -1.3740    4.2520 hc        1 213      0.082000
     61 H351        2.5170    2.2980    5.6160 hc        1 213      0.083500
     62 H352        3.4470    2.1190    4.0810 hc        1 213      0.083500
     63 H40        -2.1720   -4.0180    6.0140 ha        1 213      0.108000
     64 H41        -2.1710   -2.0580    7.5720 ha        1 213      0.131000
     65 H44         0.8520   -2.1860    3.5020 ha        1 213      0.151000
     66 H45        -0.6990   -4.0800    4.0370 ha        1 213      0.113000
     67 H62         7.6250   -0.3040    9.4340 ha        1 213      0.149000
     68 H64         8.3310   -3.5800   12.0590 ha        1 213      0.164000
     69 H65         6.2100   -4.7440   11.2150 ha        1 213      0.073000
     70 H66         4.8640   -3.6750    9.4460 ha        1 213      0.079000
     71 H10         0.2210    3.3760    5.5350 ha        1 213      0.086000
     72 H20         2.2370   -1.6820    6.7790 ha        1 213      0.114000
@<TRIPOS>BOND
     1    1    2 1   
     2    1    6 1   
     3    1   48 1   
     4    2    3 1   
     5    2   49 1   
     6    3    4 1   
     7    3   50 1   
     8    4    5 1   
     9    4   19 1   
    10    5    6 1   
    11    5   51 1   
    12    6   52 1   
    13    7    8 1   
    14    7   12 1   
    15    7   71 1   
    16    8    9 1   
    17    8   22 1   
    18    9   10 1   
    19    9   53 1   
    20   10   11 1   
    21   10   54 1   
    22   11   12 1   
    23   11   31 1   
    24   12   55 1   
    25   13   14 1   
    26   13   18 1   
    27   13   72 1   
    28   14   15 1   
    29   14   21 1   
    30   15   16 1   
    31   15   56 1   
    32   16   17 1   
    33   16   57 1   
    34   17   18 1   
    35   17   38 1   
    36   18   58 1   
    37   19   20 1   
    38   19   21 1   
    39   19   22 1   
    40   20   26 1   
    41   20   30 1   
    42   21   59 1   
    43   21   60 1   
    44   22   61 1   
    45   22   62 1   
    46   23   24 1   
    47   23   28 1   
    48   23   63 1   
    49   24   25 1   
    50   24   64 1   
    51   25   26 1   
    52   25   29 1   
    53   26   27 1   
    54   27   28 1   
    55   27   65 1   
    56   28   66 1   
    57   29   30 1   
    58   31   32 1   
    59   31   33 1   
    60   34   35 1   
    61   34   36 1   
    62   34   37 1   
    63   38   39 1   
    64   38   43 1   
    65   39   40 1   
    66   39   67 1   
    67   40   41 1   
    68   40   44 1   
    69   41   42 1   
    70   41   68 1   
    71   42   43 1   
    72   42   69 1   
    73   43   70 1   
    74   44   45 1   
    75   44   46 1   
    76   44   47 1   
@<TRIPOS>SUBSTRUCTURE
     1 213         1 TEMP              0 ****  ****    0 ROOT
