@<TRIPOS>MOLECULE
213
   72    60     1     0     0
SMALL
bcc


@<TRIPOS>ATOM
      1 C1         -3.3450   -0.5120   -4.5180 c1        1 213     -0.143000
      2 C2         -2.0190   -0.9180   -4.5380 c1        1 213     -0.143000
      3 C3         -1.2750   -0.9250   -3.3610 c1        1 213     -0.143000
      4 C4         -1.8630   -0.5230   -2.1620 c1        1 213     -0.077000
      5 C5         -3.1910   -0.1160   -2.1430 c1        1 213     -0.060000
      6 C6         -3.9330   -0.1100   -3.3190 c1        1 213     -0.143000
      7 C10        -1.4740    2.5640    0.1920 c1        1 213     -0.084500
      8 C11        -1.0030    1.8930   -0.9350 c1        1 213     -0.225000
      9 C12        -1.1320    2.4740   -2.1930 c1        1 213     -0.143000
     10 C13        -1.7320    3.7290   -2.3260 c1        1 213     -0.143000
     11 C14        -2.2020    4.3990   -1.2020 c1        1 213      0.067000
     12 C15        -2.0740    3.8190    0.0580 c1        1 213     -0.275000
     13 C20         1.0680   -1.9660    1.3530 c1        1 213     -0.143000
     14 C21         1.0750   -1.6580   -0.0010 c1        1 213     -0.225000
     15 C22         2.2580   -1.2390   -0.6160 c1        1 213     -0.084500
     16 C23         3.4340   -1.1310    0.1320 c1        1 213     -0.119000
     17 C24         3.4280   -1.4390    1.4860 c1        1 213     -0.073333
     18 C25         2.2480   -1.8570    2.1010 c1        1 213     -0.143000
     19 C30        -1.0690   -0.5880   -0.8680 c3        1 213      0.148000
     20 N31        -1.9680   -0.6030    0.2420 n3        1 213     -0.148000
     21 C32        -0.1950   -1.8950   -0.8530 c3        1 213     -0.085500
     22 C35        -0.1700    0.6150   -0.7700 c3        1 213     -0.085500
     23 C40        -5.0410   -2.9270    1.7000 c1        1 213     -0.143000
     24 C41        -4.6150   -1.7490    2.2870 c1        1 213     -0.119000
     25 C42        -3.5530   -1.0230    1.7160 c1        1 213     -0.073333
     26 C43        -2.9420   -1.4840    0.5800 c1        1 213     -0.020000
     27 C44        -3.3750   -2.6780   -0.0140 c1        1 213     -0.109000
     28 C45        -4.4210   -3.3930    0.5480 c1        1 213     -0.143000
     29 N46        -2.9510    0.1390    2.0710 n1        1 213     -0.114000
     30 N47        -1.9700    0.4020    1.1610 n2        1 213      0.086000
     31 C52        -3.0170    5.7020   -1.3690 c3        1 213     -0.111000
     32 F53        -3.7380    5.6380   -2.4960 f         1 213     -0.150000
     33 F54        -3.8390    5.8510   -0.3210 f         1 213     -0.150000
     34 P55        -1.8770    7.1310   -1.4560 p5        1 213      1.457500
     35 O56        -2.6090    8.3850   -1.0250 o         1 213     -0.823167
     36 O57        -1.3860    7.2980   -2.8730 o         1 213     -0.823167
     37 O58        -0.6990    6.8940   -0.5390 o         1 213     -0.823167
     38 C61         4.6270   -1.3350    2.2450 c1        1 213     -0.073333
     39 C62         5.5040   -2.4160    2.3140 c1        1 213     -0.043000
     40 C63         6.6730   -2.3190    3.0680 c1        1 213     -0.556000
     41 C64         6.9620   -1.1460    3.7500 c1        1 213     -0.143000
     42 C65         6.0830   -0.0630    3.6810 c1        1 213     -0.143000
     43 C66         4.9170   -0.1590    2.9290 c1        1 213     -0.119000
     44 P71         7.8690   -3.7210    3.0970 p5        1 213      1.624500
     45 O72         7.2090   -4.9370    3.7140 o         1 213     -0.952833
     46 O73         9.0790   -3.3340    3.9180 o         1 213     -0.952833
     47 O74         8.3010   -4.0450    1.6830 o         1 213     -0.952833
     48 H1         -3.8690   -0.5070   -5.3460 ha        1 213      0.114500
     49 H2         -1.5940   -1.1600   -5.3880 ha        1 213      0.114500
     50 H3         -0.3330   -1.2130   -3.3750 ha        1 213      0.114500
     51 H5         -3.5880    0.2240   -1.3110 ha        1 213      0.179000
     52 H6         -4.8690    0.1780   -3.3060 ha        1 213      0.114500
     53 H10        -1.3270    2.1840    1.0850 ha        1 213      0.108500
     54 H12        -0.7700    2.0180   -2.9840 ha        1 213      0.114500
     55 H13        -1.8220    4.1340   -3.2070 ha        1 213      0.114500
     56 H15        -2.4080    4.2940    0.8560 ha        1 213      0.107000
     57 H20         0.2610   -2.3440    1.7640 ha        1 213      0.114500
     58 H22         2.2580   -1.0000   -1.5750 ha        1 213      0.108500
     59 H23         4.2560   -0.8010   -0.2920 ha        1 213      0.114000
     60 H25         2.3770   -2.1880    3.0150 ha        1 213      0.114500
     61 H321       -0.7150   -2.6310   -0.4650 hc        1 213      0.081250
     62 H322        0.0660   -2.1270   -1.7760 hc        1 213      0.081250
     63 H351        0.2630    0.6220    0.0900 hc        1 213      0.081250
     64 H352        0.5010    0.5750   -1.4690 hc        1 213      0.081250
     65 H40        -5.7750   -3.4280    2.0940 ha        1 213      0.114500
     66 H41        -5.0510   -1.4210    3.0970 ha        1 213      0.114000
     67 H44        -2.9380   -3.0070   -0.8260 ha        1 213      0.149000
     68 H45        -4.7220   -4.2240    0.1340 ha        1 213      0.114500
     69 H62         5.3210   -3.2220    1.8040 ha        1 213      0.148000
     70 H64         7.7800   -1.0780    4.2790 ha        1 213      0.114500
     71 H65         6.2890    0.7690    4.1650 ha        1 213      0.114500
     72 H66         4.3510    0.6270    2.8090 ha        1 213      0.114000
@<TRIPOS>BOND
     1    1    6 1   
     2    1   48 1   
     3    2    3 1   
     4    2   49 1   
     5    3   50 1   
     6    4    5 1   
     7    4   19 1   
     8    5   51 1   
     9    6   52 1   
    10    7    8 1   
    11    7   53 1   
    12    8   22 1   
    13    9   10 1   
    14    9   54 1   
    15   10   55 1   
    16   11   12 1   
    17   11   31 1   
    18   12   56 1   
    19   13   18 1   
    20   13   57 1   
    21   14   15 1   
    22   14   21 1   
    23   15   58 1   
    24   16   17 1   
    25   16   59 1   
    26   18   60 1   
    27   19   20 1   
    28   19   21 1   
    29   19   22 1   
    30   20   26 1   
    31   20   30 1   
    32   21   61 1   
    33   21   62 1   
    34   22   63 1   
    35   22   64 1   
    36   23   28 1   
    37   23   65 1   
    38   24   25 1   
    39   24   66 1   
    40   26   27 1   
    41   27   67 1   
    42   28   68 1   
    43   29   30 1   
    44   31   32 1   
    45   31   33 1   
    46   31   34 1   
    47   34   35 1   
    48   34   36 1   
    49   34   37 1   
    50   38   43 1   
    51   39   40 1   
    52   39   69 1   
    53   40   44 1   
    54   41   42 1   
    55   41   70 1   
    56   42   71 1   
    57   43   72 1   
    58   44   45 1   
    59   44   46 1   
    60   44   47 1   
@<TRIPOS>SUBSTRUCTURE
     1 213         1 TEMP              0 ****  ****    0 ROOT
