@<TRIPOS>MOLECULE
213
   72    76     1     0     0
SMALL
bcc


@<TRIPOS>ATOM
      1 C1         -4.1450    3.4230    2.0320 ca        1 213     -0.138000
      2 C2         -2.9250    3.4780    2.7020 ca        1 213     -0.146500
      3 C3         -1.8210    2.7740    2.2200 ca        1 213     -0.098000
      4 C4         -1.9170    2.0070    1.0530 ca        1 213     -0.080000
      5 C5         -3.1550    1.9490    0.3910 ca        1 213     -0.098000
      6 C6         -4.2570    2.6510    0.8770 ca        1 213     -0.146500
      7 C10        -2.8890   -1.1900   -0.7730 ca        1 213     -0.045000
      8 C11        -2.4090   -0.7760    0.4870 ca        1 213     -0.338000
      9 C12        -3.2990   -0.8800    1.5790 ca        1 213     -0.045000
     10 C13        -4.5980   -1.2960    1.4280 ca        1 213     -0.275000
     11 C14        -5.1200   -1.6400    0.1340 ca        1 213      0.067000
     12 C15        -4.1870   -1.6000   -0.9580 ca        1 213     -0.275000
     13 C20         2.5570    1.7310   -0.2210 ca        1 213     -0.126500
     14 C21         1.8920    1.1300    0.8540 ca        1 213     -0.110000
     15 C22         2.6210    0.2400    1.6580 ca        1 213     -0.126500
     16 C23         3.9860    0.0490    1.4670 ca        1 213     -0.146000
     17 C24         4.6790    0.7290    0.4490 cp        1 213      0.037000
     18 C25         3.9150    1.5160   -0.4330 ca        1 213     -0.146000
     19 C30        -0.7400    1.2060    0.4920 c3        1 213      0.149000
     20 N31        -0.5660    1.5840   -0.9330 na        1 213     -0.145000
     21 C32         0.5440    1.5870    1.2860 c3        1 213     -0.122000
     22 C35        -1.0210   -0.3220    0.6940 c3        1 213     -0.046000
     23 C40        -0.2320    5.1320   -3.0550 ca        1 213     -0.176000
     24 C41        -0.1070    3.8850   -3.6470 ca        1 213     -0.062000
     25 C42        -0.2360    2.7590   -2.8280 ca        1 213     -0.131000
     26 C43        -0.4940    2.9100   -1.4070 ca        1 213     -0.025000
     27 C44        -0.6180    4.1840   -0.8350 ca        1 213     -0.105000
     28 C45        -0.4830    5.2760   -1.6760 ca        1 213     -0.129000
     29 N46        -0.1670    1.3590   -3.0660 n2        1 213     -0.116000
     30 N47        -0.3500    0.7450   -1.9730 n2        1 213      0.092000
     31 C52        -6.4370   -1.9800   -0.0410 c2        1 213     -0.111000
     32 F53        -7.4330   -2.0570    0.8790 f         1 213     -0.149500
     33 F54        -7.0970   -2.3230   -1.1780 f         1 213     -0.149500
     34 P55        -9.6160   -2.7160   -0.4660 p3        1 213      2.416000
     35 O56        -9.5300   -3.4130   -1.7660 o         1 213     -1.142667
     36 O57       -10.0030   -1.2890   -0.4410 o         1 213     -1.142667
     37 O58        -9.7700   -3.5350    0.7550 o         1 213     -1.142667
     38 C61         6.1360    0.6890    0.3530 cq        1 213     -0.123000
     39 C62         6.9070   -0.3560    0.9030 ca        1 213     -0.039000
     40 C63         8.2900   -0.3130    0.8550 ca        1 213     -0.552000
     41 C64         8.9410    0.7400    0.2280 ca        1 213     -0.069000
     42 C65         8.2010    1.7820   -0.3350 ca        1 213     -0.201000
     43 C66         6.8110    1.7610   -0.2620 ca        1 213     -0.153000
     44 P71         9.3460   -1.5240    1.6160 p5        1 213      1.622500
     45 O72         9.5420   -0.9720    3.0110 o         1 213     -0.950833
     46 O73        10.5950   -1.4710    0.7580 o         1 213     -0.950833
     47 O74         8.5590   -2.8100    1.5410 o         1 213     -0.950833
     48 H1         -5.0160    3.9670    2.4210 ha        1 213      0.109000
     49 H2         -2.8290    4.0690    3.6230 ha        1 213      0.123000
     50 H3         -0.8880    2.8320    2.7990 ha        1 213      0.151500
     51 H5         -3.2760    1.3040   -0.4990 ha        1 213      0.151500
     52 H6         -5.2240    2.5630    0.3600 ha        1 213      0.123000
     53 H12        -2.9310   -0.6150    2.5830 ha        1 213      0.086000
     54 H13        -5.2730   -1.3710    2.2890 ha        1 213      0.106500
     55 H15        -4.5450   -1.9140   -1.9470 ha        1 213      0.106500
     56 H22         2.1100   -0.2940    2.4730 ha        1 213      0.114000
     57 H23         4.5430   -0.6260    2.1360 ha        1 213      0.137500
     58 H25         4.3990    1.9880   -1.3000 ha        1 213      0.137500
     59 H321        0.3690    1.2220    2.3360 hc        1 213      0.082000
     60 H322        0.5950    2.7140    1.3170 hc        1 213      0.082000
     61 H351       -0.3150   -0.9050    0.0460 hc        1 213      0.083500
     62 H352       -0.7280   -0.5290    1.7610 hc        1 213      0.083500
     63 H40        -0.1330    6.0370   -3.6710 ha        1 213      0.108000
     64 H41         0.0880    3.7740   -4.7210 ha        1 213      0.131000
     65 H44        -0.8240    4.2960    0.2400 ha        1 213      0.151000
     66 H45        -0.5730    6.2890   -1.2580 ha        1 213      0.113000
     67 H62         6.4370   -1.2370    1.3690 ha        1 213      0.149000
     68 H64        10.0430    0.6920    0.1910 ha        1 213      0.164000
     69 H65         8.7050    2.6240   -0.8290 ha        1 213      0.073000
     70 H66         6.2430    2.6060   -0.6750 ha        1 213      0.079000
     71 H10        -2.1990   -1.1880   -1.6300 ha        1 213      0.086000
     72 H20         2.0120    2.4070   -0.8970 ha        1 213      0.114000
@<TRIPOS>BOND
     1    1    2 1   
     2    1    6 1   
     3    1   48 1   
     4    2    3 1   
     5    2   49 1   
     6    3    4 1   
     7    3   50 1   
     8    4    5 1   
     9    4   19 1   
    10    5    6 1   
    11    5   51 1   
    12    6   52 1   
    13    7    8 1   
    14    7   12 1   
    15    7   71 1   
    16    8    9 1   
    17    8   22 1   
    18    9   10 1   
    19    9   53 1   
    20   10   11 1   
    21   10   54 1   
    22   11   12 1   
    23   11   31 1   
    24   12   55 1   
    25   13   14 1   
    26   13   18 1   
    27   13   72 1   
    28   14   15 1   
    29   14   21 1   
    30   15   16 1   
    31   15   56 1   
    32   16   17 1   
    33   16   57 1   
    34   17   18 1   
    35   17   38 1   
    36   18   58 1   
    37   19   20 1   
    38   19   21 1   
    39   19   22 1   
    40   20   26 1   
    41   20   30 1   
    42   21   59 1   
    43   21   60 1   
    44   22   61 1   
    45   22   62 1   
    46   23   24 1   
    47   23   28 1   
    48   23   63 1   
    49   24   25 1   
    50   24   64 1   
    51   25   26 1   
    52   25   29 1   
    53   26   27 1   
    54   27   28 1   
    55   27   65 1   
    56   28   66 1   
    57   29   30 1   
    58   31   32 1   
    59   31   33 1   
    60   34   35 1   
    61   34   36 1   
    62   34   37 1   
    63   38   39 1   
    64   38   43 1   
    65   39   40 1   
    66   39   67 1   
    67   40   41 1   
    68   40   44 1   
    69   41   42 1   
    70   41   68 1   
    71   42   43 1   
    72   42   69 1   
    73   43   70 1   
    74   44   45 1   
    75   44   46 1   
    76   44   47 1   
@<TRIPOS>SUBSTRUCTURE
     1 213         1 TEMP              0 ****  ****    0 ROOT
