@<TRIPOS>MOLECULE
214
   80    67     1     0     0
SMALL
bcc


@<TRIPOS>ATOM
      1 C1         -4.1010    0.2480   -5.0860 c1        1 214     -0.085800
      2 C2         -2.8000   -0.2270   -5.1120 c1        1 214     -0.085800
      3 C3         -2.0570   -0.2790   -3.9430 c1        1 214     -0.085800
      4 C4         -2.6160    0.1460   -2.7460 c1        1 214     -0.055100
      5 C5         -3.9170    0.6210   -2.7210 c1        1 214     -0.003500
      6 C6         -4.6600    0.6720   -3.8910 c1        1 214     -0.085800
      7 C10        -2.0450    3.1970   -0.4190 c1        1 214     -0.032000
      8 C11        -1.6290    2.4360   -1.5020 c1        1 214     -0.190600
      9 C12        -1.7590    2.9350   -2.7900 c1        1 214     -0.085800
     10 C13        -2.3040    4.1940   -2.9950 c1        1 214     -0.085800
     11 C14        -2.7190    4.9540   -1.9120 c1        1 214      0.093900
     12 C15        -2.5900    4.4560   -0.6250 c1        1 214     -0.219500
     13 C20         1.2850   -0.6290   -0.9420 c1        1 214     -0.085800
     14 C21         0.1130   -1.2530   -0.5410 c1        1 214     -0.190600
     15 C22         0.0740   -1.9480    0.6590 c1        1 214     -0.032000
     16 C23         1.2070   -2.0180    1.4570 c1        1 214     -0.070833
     17 C24         2.3790   -1.3950    1.0560 c1        1 214     -0.056000
     18 C25         2.4180   -0.7000   -0.1440 c1        1 214     -0.085800
     19 C30        -1.8500   -0.0300   -1.4510 c3        1 214      0.279300
     20 N31        -2.7600   -0.0660   -0.3640 n3        1 214     -0.360000
     21 C32        -1.0650   -1.3340   -1.4990 c3        1 214     -0.034300
     22 C35        -0.8920    1.1280   -1.2690 c3        1 214     -0.034300
     23 C40        -6.0820   -1.7720    1.3860 c1        1 214     -0.085800
     24 C41        -5.4250   -0.6580    1.8840 c1        1 214     -0.070833
     25 C42        -4.2990   -0.1450    1.2120 c1        1 214     -0.056000
     26 C43        -3.8540   -0.7460    0.0690 c1        1 214      0.029800
     27 C44        -4.5220   -1.8780   -0.4370 c1        1 214     -0.048500
     28 C45        -5.6310   -2.3820    0.2250 c1        1 214     -0.085800
     29 N46        -3.4790    0.9020    1.4800 n1        1 214     -0.117000
     30 N47        -2.5270    0.9520    0.5070 n1        1 214      0.091000
     31 C52        -3.3300    6.3240   -2.1380 c3        1 214      0.413500
     32 F53        -3.8820    6.3710   -3.3570 f         1 214     -0.221300
     33 F54        -4.2720    6.5500   -1.2130 f         1 214     -0.221300
     34 P55        -2.0390    7.5910   -2.0080 p5        1 214      1.049700
     35 O56        -1.1210    7.2590   -0.8580 o         1 214     -0.823167
     36 O57        -1.2440    7.6320   -3.2910 o         1 214     -0.823167
     37 O58        -2.6780    8.9380   -1.7700 o         1 214     -0.823167
     38 C61         3.7520   -1.4300    3.1680 c1        1 214     -0.070833
     39 C62         6.1850   -2.4740    5.7160 c1        1 214     -0.167500
     40 C71         8.2140   -3.8150    5.7350 c3        1 214     -0.056000
     41 C63         5.0900   -1.8950    5.1350 c1        1 214     -0.049500
     42 C64         4.8900   -2.0100    3.7680 cg        1 214     -0.103000
     43 C65         5.7930   -2.7050    2.9980 cg        1 214      0.366800
     44 N66         6.9010   -3.2900    3.5890 n1        1 214     -0.369800
     45 C67         7.0980   -3.1770    4.9350 c1        1 214     -0.056100
     46 C68         3.5440   -1.5610    1.8000 c1        1 214     -0.056000
     47 C69         4.4590   -2.2650    1.0200 c1        1 214     -0.094500
     48 C70         5.5810   -2.8380    1.6100 c1        1 214     -0.066500
     49 P79         6.9460   -3.5940    0.6760 p5        1 214      1.239000
     50 O80         8.2290   -2.8520    0.9690 o         1 214     -0.906167
     51 O81         7.0960   -5.0400    1.0850 o         1 214     -0.906167
     52 O82         6.6470   -3.5180   -0.8020 o         1 214     -0.906167
     53 H1         -4.6250    0.2840   -5.9100 ha        1 214      0.058500
     54 H2         -2.4170   -0.5560   -5.9500 ha        1 214      0.058500
     55 H3         -1.1400   -0.6140   -3.9620 ha        1 214      0.058500
     56 H5         -4.3110    0.9200   -1.8790 ha        1 214      0.125500
     57 H6         -5.5800    1.0000   -3.8710 ha        1 214      0.058500
     58 H10        -1.9540    2.8470    0.4880 ha        1 214      0.047500
     59 H12        -1.4900    2.3890   -3.5540 ha        1 214      0.058500
     60 H13        -2.3950    4.5450   -3.9010 ha        1 214      0.058500
     61 H15        -2.8830    4.9920    0.1380 ha        1 214      0.049500
     62 H20         1.3130   -0.1400   -1.7860 ha        1 214      0.058500
     63 H22        -0.7500   -2.3870    0.9420 ha        1 214      0.047500
     64 H23         1.1800   -2.5080    2.3020 ha        1 214      0.059500
     65 H25         3.2420   -0.2610   -0.4260 ha        1 214      0.058500
     66 H321       -1.6470   -2.0740   -1.2370 hc        1 214      0.044200
     67 H322       -0.7370   -1.4830   -2.4070 hc        1 214      0.044200
     68 H351       -0.1590    1.0490   -1.9100 hc        1 214      0.044200
     69 H352       -0.5330    1.1140   -0.3600 hc        1 214      0.044200
     70 H40        -6.8590   -2.1320    1.8570 ha        1 214      0.058500
     71 H41        -5.7440   -0.2280    2.7010 ha        1 214      0.059500
     72 H44        -4.2040   -2.3080   -1.2540 ha        1 214      0.094500
     73 H45        -6.0940   -3.1670   -0.1260 ha        1 214      0.058500
     74 H61         3.2380   -0.7320    3.6170 ha        1 214      0.059500
     75 H62         6.3190   -2.4050    6.6810 ha        1 214      0.032500
     76 H711        8.4940   -3.2050    6.4480 hc        1 214      0.022367
     77 H712        7.8950   -4.6540    6.1290 hc        1 214      0.022367
     78 H713        8.9740   -4.0000    5.1450 hc        1 214      0.022367
     79 H63         4.4410   -1.4160    5.6850 ha        1 214      0.038500
     80 H69         4.6730   -2.4500    0.0850 ha        1 214      0.141500
@<TRIPOS>BOND
     1    1    6 3   
     2    1   53 1   
     3    2    3 3   
     4    2   54 1   
     5    3   55 1   
     6    4    5 3   
     7    4   19 1   
     8    5   56 1   
     9    6   57 1   
    10    7    8 3   
    11    7   58 1   
    12    8   22 1   
    13    9   10 3   
    14    9   59 1   
    15   10   60 1   
    16   11   12 3   
    17   11   31 1   
    18   12   61 1   
    19   13   18 3   
    20   13   62 1   
    21   14   15 3   
    22   14   21 1   
    23   15   63 1   
    24   16   17 3   
    25   16   64 1   
    26   18   65 1   
    27   19   20 1   
    28   19   21 1   
    29   19   22 1   
    30   20   26 1   
    31   20   30 1   
    32   21   66 1   
    33   21   67 1   
    34   22   68 1   
    35   22   69 1   
    36   23   28 3   
    37   23   70 1   
    38   24   25 3   
    39   24   71 1   
    40   26   27 3   
    41   27   72 1   
    42   28   73 1   
    43   29   30 3   
    44   31   32 1   
    45   31   33 1   
    46   31   34 1   
    47   34   35 1   
    48   34   36 1   
    49   34   37 1   
    50   38   46 3   
    51   38   74 1   
    52   39   45 3   
    53   39   75 1   
    54   40   45 1   
    55   40   76 1   
    56   40   77 1   
    57   40   78 1   
    58   41   42 3   
    59   41   79 1   
    60   42   43 1   
    61   43   44 3   
    62   47   48 3   
    63   47   80 1   
    64   48   49 1   
    65   49   50 1   
    66   49   51 1   
    67   49   52 1   
@<TRIPOS>SUBSTRUCTURE
     1 214         1 TEMP              0 ****  ****    0 ROOT
