@<TRIPOS>MOLECULE
214
   80    84     1     0     0
SMALL
bcc


@<TRIPOS>ATOM
      1 C1         -4.9310    3.5490    2.0350 ca        1 214     -0.138000
      2 C2         -3.7150    3.5250    2.7120 ca        1 214     -0.146500
      3 C3         -2.6550    2.7520    2.2360 ca        1 214     -0.098000
      4 C4         -2.7930    1.9940    1.0660 ca        1 214     -0.081000
      5 C5         -4.0280    2.0170    0.3970 ca        1 214     -0.098000
      6 C6         -5.0860    2.7880    0.8780 ca        1 214     -0.146500
      7 C10        -3.9560   -1.1300   -0.7720 ca        1 214     -0.044500
      8 C11        -3.4610   -0.7500    0.4920 ca        1 214     -0.339000
      9 C12        -4.3630   -0.7970    1.5770 ca        1 214     -0.044500
     10 C13        -5.6860   -1.1240    1.4150 ca        1 214     -0.274500
     11 C14        -6.2200   -1.4290    0.1160 ca        1 214      0.066000
     12 C15        -5.2770   -1.4520   -0.9690 ca        1 214     -0.274500
     13 C20         1.6250   -0.0480    1.7030 ca        1 214     -0.132500
     14 C21         0.9540    0.8780    0.8890 ca        1 214     -0.098000
     15 C22         1.6560    1.4310   -0.1870 ca        1 214     -0.132500
     16 C23         3.0010    1.1350   -0.3910 ca        1 214     -0.134500
     17 C24         3.7100    0.3100    0.5000 ca        1 214      0.012000
     18 C25         2.9780   -0.3210    1.5200 ca        1 214     -0.134500
     19 C30        -1.6670    1.1190    0.5110 c3        1 214      0.149000
     20 N31        -1.4600    1.4850   -0.9120 na        1 214     -0.146000
     21 C32        -0.3660    1.4170    1.3130 c3        1 214     -0.125000
     22 C35        -2.0470   -0.3880    0.7110 c3        1 214     -0.046000
     23 C40        -0.8970    5.0050   -3.0330 ca        1 214     -0.176000
     24 C41        -0.8430    3.7520   -3.6230 ca        1 214     -0.061000
     25 C42        -1.0460    2.6370   -2.8050 ca        1 214     -0.131000
     26 C43        -1.3060    2.8040   -1.3860 ca        1 214     -0.026000
     27 C44        -1.3560    4.0840   -0.8160 ca        1 214     -0.106000
     28 C45        -1.1490    5.1650   -1.6570 ca        1 214     -0.128000
     29 N46        -1.0600    1.2340   -3.0420 n2        1 214     -0.116000
     30 N47        -1.2880    0.6340   -1.9500 n2        1 214      0.092000
     31 C52        -7.5550   -1.6780   -0.0710 c2        1 214     -0.110000
     32 F53        -8.5620   -1.6870    0.8410 f         1 214     -0.149500
     33 F54        -8.2280   -1.9720   -1.2140 f         1 214     -0.149500
     34 P55       -10.7740   -2.1880   -0.5230 p3        1 214      2.474000
     35 O56       -10.7250   -2.8930   -1.8220 o         1 214     -1.171667
     36 O57       -10.9970   -2.9920    0.6970 o         1 214     -1.171667
     37 O58       -11.0580   -0.7380   -0.5040 o         1 214     -1.171667
     38 C61         5.8920    1.2330   -0.1580 c2        1 214     -0.204000
     39 C62         9.4160    2.1250   -0.8700 c2        1 214     -0.219000
     40 C63         8.0510    2.2160   -0.8210 c2        1 214     -0.116000
     41 C64         7.2940    1.1680   -0.2240 c2        1 214     -0.097000
     42 C65         7.9910    0.0300    0.3250 c2        1 214      0.004000
     43 N66         9.3690   -0.0340    0.2590 n2        1 214     -0.036000
     44 C67        10.0420    0.9610   -0.3090 c2        1 214     -0.089000
     45 C68         5.1680    0.1880    0.4090 c2        1 214     -0.043000
     46 C69         5.8670   -0.9220    0.9300 c2        1 214     -0.155000
     47 C70         7.2550   -1.0400    0.9440 c1        1 214     -0.348000
     48 P79         8.2340   -2.9040    2.0580 p3        1 214      2.474000
     49 O80         8.9470   -3.6020    0.9550 o         1 214     -1.171667
     50 O81         9.0530   -2.2250    3.0990 o         1 214     -1.171667
     51 O82         6.9340   -3.4810    2.4980 o         1 214     -1.171667
     52 H1         -5.7690    4.1470    2.4200 ha        1 214      0.109000
     53 H2         -3.5870    4.1070    3.6350 ha        1 214      0.123500
     54 H3         -1.7240    2.7480    2.8200 ha        1 214      0.151500
     55 H5         -4.1850    1.3830   -0.4950 ha        1 214      0.151500
     56 H6         -6.0540    2.7620    0.3540 ha        1 214      0.123500
     57 H10        -3.2600   -1.1740   -1.6240 ha        1 214      0.086000
     58 H12        -3.9870   -0.5580    2.5850 ha        1 214      0.086000
     59 H13        -6.3720   -1.1560    2.2710 ha        1 214      0.107000
     60 H15        -5.6470   -1.7400   -1.9600 ha        1 214      0.107000
     61 H20         1.0800   -0.5460    2.5190 ha        1 214      0.116500
     62 H22         1.1570    2.1340   -0.8700 ha        1 214      0.116500
     63 H23         3.5190    1.5730   -1.2560 ha        1 214      0.142500
     64 H25         3.4930   -1.0240    2.1960 ha        1 214      0.142500
     65 H321       -0.5700    1.0620    2.3610 hc        1 214      0.083000
     66 H322       -0.2440    2.5390    1.3470 hc        1 214      0.083000
     67 H351       -1.3750   -1.0140    0.0680 hc        1 214      0.083000
     68 H352       -1.7770   -0.6120    1.7810 hc        1 214      0.083000
     69 H40        -0.7380    5.9010   -3.6490 ha        1 214      0.109000
     70 H41        -0.6460    3.6280   -4.6970 ha        1 214      0.132000
     71 H44        -1.5640    4.2100    0.2570 ha        1 214      0.151000
     72 H45        -1.1810    6.1820   -1.2390 ha        1 214      0.113000
     73 H61         5.3910    2.1300   -0.5440 ha        1 214      0.088000
     74 H62        10.0370    2.9070   -1.3210 ha        1 214      0.087000
     75 H711       11.9730    1.7880    0.1320 hc        1 214      0.061667
     76 H712       11.9410   -0.0270    0.0810 hc        1 214      0.061667
     77 H713       11.8540    0.9300   -1.4600 hc        1 214      0.061667
     78 H63         7.5220    3.0850   -1.2380 ha        1 214      0.090000
     79 H69         5.2840   -1.7540    1.3630 ha        1 214      0.148000
     80 C71        11.5350    0.9020   -0.3890 c3        1 214     -0.146000
@<TRIPOS>BOND
     1    1    2 1   
     2    1    6 1   
     3    1   52 1   
     4    2    3 1   
     5    2   53 1   
     6    3    4 1   
     7    3   54 1   
     8    4    5 1   
     9    4   19 1   
    10    5    6 1   
    11    5   55 1   
    12    6   56 1   
    13    7    8 1   
    14    7   12 1   
    15    7   57 1   
    16    8    9 1   
    17    8   22 1   
    18    9   10 1   
    19    9   58 1   
    20   10   11 1   
    21   10   59 1   
    22   11   12 1   
    23   11   31 1   
    24   12   60 1   
    25   13   14 1   
    26   13   18 1   
    27   13   61 1   
    28   14   15 1   
    29   14   21 1   
    30   15   16 1   
    31   15   62 1   
    32   16   17 1   
    33   16   63 1   
    34   17   18 1   
    35   17   45 1   
    36   18   64 1   
    37   19   20 1   
    38   19   21 1   
    39   19   22 1   
    40   20   26 1   
    41   20   30 1   
    42   21   65 1   
    43   21   66 1   
    44   22   67 1   
    45   22   68 1   
    46   23   24 1   
    47   23   28 1   
    48   23   69 1   
    49   24   25 1   
    50   24   70 1   
    51   25   26 1   
    52   25   29 1   
    53   26   27 1   
    54   27   28 1   
    55   27   71 1   
    56   28   72 1   
    57   29   30 1   
    58   31   32 1   
    59   31   33 1   
    60   34   35 1   
    61   34   36 1   
    62   34   37 1   
    63   38   41 1   
    64   38   45 1   
    65   38   73 1   
    66   39   40 1   
    67   39   44 1   
    68   39   74 1   
    69   40   41 1   
    70   40   78 1   
    71   41   42 1   
    72   42   43 1   
    73   42   47 1   
    74   43   44 1   
    75   44   80 1   
    76   45   46 1   
    77   46   47 1   
    78   46   79 1   
    79   48   49 1   
    80   48   50 1   
    81   48   51 1   
    82   75   80 1   
    83   76   80 1   
    84   77   80 1   
@<TRIPOS>SUBSTRUCTURE
     1 214         1 TEMP              0 ****  ****    0 ROOT
