@<TRIPOS>MOLECULE
214
   80   106     1     0     0
SMALL
bcc


@<TRIPOS>ATOM
      1 C1          0.0000    0.0000    0.0000 c3        1 214     -0.078000
      2 C2          1.3820    0.0000    0.0000 DU        1 214     -0.469000
      3 C3          2.0730    0.0000    1.1980 c2        1 214     -0.406000
      4 C4          1.3810    0.0000    2.3950 c2        1 214      0.143000
      5 C5         -0.0010   -0.0050    2.3940 c3        1 214     -0.339000
      6 C6         -0.6920   -0.0000    1.1960 c2        1 214     -0.423000
      7 C10         1.3860    3.0830    4.8210 c2        1 214     -0.417000
      8 C11         1.9170    2.4710    3.7020 c3        1 214      0.423000
      9 C12         1.5680    2.9140    2.4400 c3        1 214     -0.377000
     10 C13         0.6770    3.9620    2.2980 c2        1 214     -0.313000
     11 C14         0.1440    4.5730    3.4180 c2        1 214      0.215000
     12 C15         0.4990    4.1330    4.6790 c2        1 214     -0.029000
     13 C20         4.9160   -0.4400    5.3160 c2        1 214     -0.308000
     14 C21         3.8070   -1.2260    5.0580 c3        1 214      0.147000
     15 C22         3.3130   -2.0750    6.0320 c3        1 214     -0.400000
     16 C23         3.9260   -2.1430    7.2670 c2        1 214     -0.616000
     17 C24         5.0430   -1.3520    7.5330 c2        1 214     -0.018000
     18 C25         5.5330   -0.4950    6.5500 c2        1 214     -0.191000
     19 C30         2.1340    0.0010    3.7000 DU        1 214      0.114000
     20 N31         1.1900   -0.1600    4.8080 n3        1 214      0.263000
     21 C32         3.1360   -1.1570    3.7120 c3        1 214     -0.498000
     22 C35         2.8840    1.3250    3.8570 c3        1 214     -0.480000
     23 C40        -1.4310   -3.0670    6.0790 c3        1 214     -0.279000
     24 C41        -1.2540   -1.8770    6.7210 c2        1 214     -0.313000
     25 C42        -0.3390   -0.9420    6.2190 c2        1 214     -0.224000
     26 C43         0.3830   -1.2460    5.0510 c3        1 214     -0.272000
     27 C44         0.1910   -2.4680    4.4160 c3        1 214      0.020000
     28 C45        -0.7140   -3.3690    4.9290 DU        1 214     -0.321000
     29 N46         0.0400    0.2860    6.6250 n2        1 214      0.066000
     30 N47         0.9260    0.7680    5.8270 n2        1 214     -0.064000
     31 C52        -0.8230    5.7180    3.2630 c3        1 214     -0.141000
     32 F53        -1.6190    5.5060    2.1320 f         1 214     -0.164500
     33 F54        -1.6370    5.7970    4.3980 f         1 214     -0.164500
     34 P55         0.1050    7.2760    3.0700 p5        1 214      0.980500
     35 O56         1.1160    7.4550    4.3100 o         1 214     -0.540500
     36 O57         0.9420    7.2350    1.6960 o         1 214     -0.540500
     37 O58        -0.8420    8.4130    3.0380 o         1 214     -0.540500
     38 C61         5.2900   -3.4040    9.5660 c2        1 214     -0.292000
     39 C62         6.4560   -4.8820   12.7210 c3        1 214     -0.392000
     40 C63         5.8790   -4.8050   11.4860 c2        1 214      0.528000
     41 C64         5.8650   -3.5570   10.8360 c2        1 214     -0.168000
     42 C65         6.4470   -2.4370   11.4830 c2        1 214     -0.071000
     43 N66         6.9910   -2.5820   12.6960 n2        1 214      0.050000
     44 C67         7.0090   -3.7430   13.3030 DU        1 214     -0.187000
     45 C68         5.2970   -2.1610    8.9620 c3        1 214      0.167000
     46 C69         5.8750   -1.0570    9.6100 c2        1 214     -0.185000
     47 C70         6.4370   -1.1860   10.8400 c2        1 214     -0.466000
     48 P79         7.1780    0.2560   11.6530 p5        1 214      1.009500
     49 O80         6.0620    1.0050   12.5390 o         1 214     -0.430167
     50 O81         8.3840   -0.2250   12.6060 o         1 214     -0.430167
     51 O82         7.7010    1.1870   10.6280 o         1 214     -0.430167
     52 H1          0.6100   -0.2140    0.8690 DU        1 214      0.276500
     53 H2          0.4090    0.0010   -0.4760 DU        1 214      0.276500
     54 H3          1.9990   -0.0070    0.1170 DU        1 214      0.229000
     55 H5          1.0130   -0.0030    2.0110 hc        1 214     -0.058000
     56 H6         -0.6170   -0.0030    2.2770 DU        1 214      0.212000
     57 H10         0.7850    2.5000    4.1330 DU        1 214      0.163000
     58 H12         1.5980    2.8570    3.5210 hc        1 214     -0.028000
     59 H13         1.3760    3.2220    1.9270 DU        1 214      0.249000
     60 H15         0.4670    4.1900    3.5980 ha        1 214     -0.110000
     61 H20         4.1670    0.3420    5.3540 ha        1 214      0.147000
     62 H22         3.9490   -1.3380    5.5570 hc        1 214     -0.151000
     63 H23         3.1750   -2.4200    6.5370 DU        1 214      0.228000
     64 H25         4.8970   -1.2340    7.0220 ha        1 214      0.242000
     65 H321        3.8980   -0.8580    4.4210 DU        1 214      0.267000
     66 H322        3.8820   -0.9950    2.9440 hc        1 214      0.134000
     67 H351        2.7990    0.2500    3.7500 DU        1 214      0.305000
     68 H352        3.3390    1.3680    4.8390 hc        1 214      0.146000
     69 H40        -0.6860   -2.4140    5.6420 DU        1 214      0.316000
     70 H41        -1.7080   -2.8520    6.5940 DU        1 214      0.182000
     71 H44        -0.3730   -2.2400    5.3130 DU        1 214      0.279000
     72 H45         0.0270   -3.0350    4.2140 DU        1 214      0.152000
     73 H61         4.4640   -3.5450    8.8790 ha        1 214      0.259000
     74 H62         6.1430   -4.7080   11.6990 hc        1 214     -0.352000
     75 H711        7.1570   -4.6400   14.1080 DU        1 214      0.039000
     76 H712        8.0010   -4.0740   13.6700 DU        1 214      0.202000
     77 H713        8.1450   -4.6080   14.0800 DU        1 214      0.038000
     78 H63         6.7680   -4.4760   12.0100 DU        1 214      0.154000
     79 H69         5.6350   -2.0450    9.9850 DU        1 214      0.218000
     80 C71         7.6410   -3.8480   14.6660 c3        1 214     -0.168000
@<TRIPOS>BOND
     1    1    2 1   
     2    1    6 1   
     3    1   52 1   
     4    1   53 1   
     5    2    3 1   
     6    2   52 1   
     7    2   53 1   
     8    2   54 1   
     9    3    4 1   
    10    3   54 1   
    11    4    5 1   
    12    4   19 1   
    13    5    6 1   
    14    5   55 1   
    15    5   56 1   
    16    6   56 1   
    17    7    8 1   
    18    7   12 1   
    19    7   57 1   
    20    8    9 1   
    21    8   22 1   
    22    8   57 1   
    23    9   10 1   
    24    9   58 1   
    25    9   59 1   
    26   10   11 1   
    27   10   59 1   
    28   11   12 1   
    29   11   31 1   
    30   12   60 1   
    31   13   14 1   
    32   13   18 1   
    33   13   61 1   
    34   14   15 1   
    35   14   21 1   
    36   14   65 1   
    37   15   16 1   
    38   15   62 1   
    39   15   63 1   
    40   16   17 1   
    41   16   63 1   
    42   17   18 1   
    43   17   45 1   
    44   18   64 1   
    45   19   20 1   
    46   19   21 1   
    47   19   22 1   
    48   19   67 1   
    49   20   26 1   
    50   20   30 1   
    51   21   65 1   
    52   21   66 1   
    53   22   67 1   
    54   22   68 1   
    55   23   24 1   
    56   23   28 1   
    57   23   69 1   
    58   23   70 1   
    59   24   25 1   
    60   24   70 1   
    61   25   26 1   
    62   25   29 1   
    63   26   27 1   
    64   26   71 1   
    65   27   28 1   
    66   27   71 1   
    67   27   72 1   
    68   28   69 1   
    69   28   71 1   
    70   28   72 1   
    71   29   30 1   
    72   31   32 1   
    73   31   33 1   
    74   31   34 1   
    75   34   35 1   
    76   34   36 1   
    77   34   37 1   
    78   38   41 1   
    79   38   45 1   
    80   38   73 1   
    81   39   40 1   
    82   39   44 1   
    83   39   74 1   
    84   39   78 1   
    85   40   41 1   
    86   40   78 1   
    87   41   42 1   
    88   42   43 1   
    89   42   47 1   
    90   43   44 1   
    91   44   75 1   
    92   44   76 1   
    93   44   80 1   
    94   45   46 1   
    95   45   79 1   
    96   46   47 1   
    97   46   79 1   
    98   47   48 1   
    99   48   49 1   
   100   48   50 1   
   101   48   51 1   
   102   69   71 1   
   103   75   80 1   
   104   76   77 1   
   105   76   80 1   
   106   77   80 1   
@<TRIPOS>SUBSTRUCTURE
     1 214         1 TEMP              0 ****  ****    0 ROOT
