@<TRIPOS>MOLECULE
215
   62    66     1     0     0
SMALL
bcc


@<TRIPOS>ATOM
      1 C3          0.0240   -0.1190   -0.1550 cc        1 215      0.391800
      2 C5          0.6740   -0.3070    1.9480 cd        1 215      0.431000
      3 C6          0.6720   -0.4180    3.4040 ca        1 215     -0.103500
      4 C21         1.7290   -1.0330    4.0870 ca        1 215     -0.079500
      5 C23         1.6640   -0.7920    8.3030 c3        1 215      0.107400
      6 C31        -4.6320    1.3820   -3.8640 c3        1 215     -0.111700
      7 C32        -3.6510    0.3920   -4.4770 ce        1 215      0.404900
      8 O34        -2.9300   -0.9220   -6.1380 oh        1 215     -0.354500
      9 N33        -3.8230   -0.0720   -5.6840 n2        1 215     -0.433200
     10 C30        -4.1050    1.6970   -2.4550 c3        1 215     -0.039100
     11 C29        -2.8590    0.8900   -2.3040 ca        1 215     -0.074300
     12 C9         -2.0080    0.8160   -1.2150 ca        1 215     -0.098000
     13 C28        -2.6010    0.1360   -3.4760 ca        1 215     -0.150900
     14 C10        -1.4910   -0.6920   -3.5520 ca        1 215     -0.086000
     15 C11        -0.6290   -0.7650   -2.4520 ca        1 215     -0.127000
     16 C8         -0.8760   -0.0180   -1.2940 ca        1 215     -0.114500
     17 C2          1.4480   -0.1920   -0.1710 cd        1 215     -0.136600
     18 C7          2.4000   -0.1250   -1.2620 ca        1 215      0.010000
     19 C16         2.1670    0.7170   -2.3600 ca        1 215     -0.235300
     20 C15         3.1280    0.7650   -3.3860 ca        1 215      0.400200
     21 N14         4.2670    0.0460   -3.3770 nb        1 215     -0.650000
     22 C13         4.4760   -0.7620   -2.3200 ca        1 215      0.400200
     23 C12         3.5810   -0.8830   -1.2420 ca        1 215     -0.235300
     24 N4         -0.4330   -0.1870    1.1610 nc        1 215     -0.638000
     25 N1          1.8400   -0.3210    1.1650 na        1 215     -0.294900
     26 C20         1.7030   -1.1470    5.4760 ca        1 215     -0.156500
     27 C19         0.6050   -0.6400    6.1760 ca        1 215      0.083100
     28 C18        -0.4620   -0.0180    5.5120 ca        1 215     -0.156500
     29 C17        -0.4240    0.0850    4.1250 ca        1 215     -0.079500
     30 O22         0.4520   -0.7780    7.5560 os        1 215     -0.375900
     31 C24         1.3150   -0.3470    9.7280 c3        1 215      0.098800
     32 N25         0.2160   -1.1620   10.3500 nx        1 215     -0.672400
     33 C27         0.4420   -1.3450   11.8060 c3        1 215      0.081100
     34 C26        -1.1170   -0.5500   10.0960 c3        1 215      0.081100
     35 H21         2.5870   -1.4540    3.5400 ha        1 215      0.159500
     36 H231        2.4190   -0.0750    7.8820 h1        1 215      0.081200
     37 H232        2.0850   -1.8340    8.2930 h1        1 215      0.081200
     38 H311       -4.6850    2.3110   -4.4860 hc        1 215      0.069700
     39 H312       -5.6550    0.9340   -3.8160 hc        1 215      0.069700
     40 H34        -3.2410   -1.1420   -7.0410 ho        1 215      0.443000
     41 H301       -3.8880    2.7890   -2.3460 hc        1 215      0.060700
     42 H302       -4.8580    1.4160   -1.6770 hc        1 215      0.060700
     43 H9         -2.2110    1.3940   -0.3020 ha        1 215      0.146000
     44 H10        -1.2920   -1.2840   -4.4590 ha        1 215      0.159000
     45 H11         0.2550   -1.4190   -2.4990 ha        1 215      0.140000
     46 H16         1.2490    1.3190   -2.4220 ha        1 215      0.149500
     47 H15         2.9770    1.4160   -4.2670 h4        1 215      0.031100
     48 H13         5.4140   -1.3470   -2.3410 h4        1 215      0.031100
     49 H12         3.8050   -1.5740   -0.4200 ha        1 215      0.149500
     50 HN1         2.7700   -0.3570    1.4890 hn        1 215      0.305700
     51 H20         2.5330   -1.6400    6.0020 ha        1 215      0.143000
     52 H18        -1.3180    0.3690    6.0820 ha        1 215      0.143000
     53 H17        -1.2640    0.5630    3.5920 ha        1 215      0.159500
     54 H241        0.9900    0.7320    9.7210 hx        1 215      0.112700
     55 H242        2.2430   -0.4450   10.3620 hx        1 215      0.112700
     56 H271       -0.4100   -1.9340   12.2410 hx        1 215      0.107867
     57 H272        1.4030   -1.9020   11.9710 hx        1 215      0.107867
     58 H273        0.4960   -0.3420   12.3060 hx        1 215      0.107867
     59 H261       -1.9160   -1.2360   10.4870 hx        1 215      0.107867
     60 H262       -1.2480   -0.4060    8.9870 hx        1 215      0.107867
     61 H263       -1.1820    0.4410   10.6180 hx        1 215      0.107867
     62 H251        0.2230   -2.0880    9.8960 hn        1 215      0.457800
@<TRIPOS>BOND
     1    1   16 1   
     2    1   17 2   
     3    1   24 1   
     4    2    3 1   
     5    2   24 2   
     6    2   25 1   
     7    3    4 ar  
     8    3   29 ar  
     9    4   26 ar  
    10    4   35 1   
    11    5   30 1   
    12    5   31 1   
    13    5   36 1   
    14    5   37 1   
    15    6    7 1   
    16    6   10 1   
    17    6   38 1   
    18    6   39 1   
    19    7    9 2   
    20    7   13 1   
    21    8    9 1   
    22    8   40 1   
    23   10   11 1   
    24   10   41 1   
    25   10   42 1   
    26   11   12 ar  
    27   11   13 ar  
    28   12   16 ar  
    29   12   43 1   
    30   13   14 ar  
    31   14   15 ar  
    32   14   44 1   
    33   15   16 ar  
    34   15   45 1   
    35   17   18 1   
    36   17   25 1   
    37   18   19 ar  
    38   18   23 ar  
    39   19   20 ar  
    40   19   46 1   
    41   20   21 ar  
    42   20   47 1   
    43   21   22 ar  
    44   22   23 ar  
    45   22   48 1   
    46   23   49 1   
    47   25   50 1   
    48   26   27 ar  
    49   26   51 1   
    50   27   28 ar  
    51   27   30 1   
    52   28   29 ar  
    53   28   52 1   
    54   29   53 1   
    55   31   32 1   
    56   31   54 1   
    57   31   55 1   
    58   32   33 1   
    59   32   34 1   
    60   32   62 1   
    61   33   56 1   
    62   33   57 1   
    63   33   58 1   
    64   34   59 1   
    65   34   60 1   
    66   34   61 1   
@<TRIPOS>SUBSTRUCTURE
     1 215         1 TEMP              0 ****  ****    0 ROOT
