@<TRIPOS>MOLECULE
215
   61    65     1     0     0
SMALL
bcc


@<TRIPOS>ATOM
      1 C3         -1.4450   -0.2380   -0.0750 cc        1 215      0.386800
      2 C5          0.7420   -0.5400   -0.1610 cd        1 215      0.480000
      3 C6          2.1860   -0.3250   -0.2260 ca        1 215     -0.167500
      4 C21         3.0770   -1.2440    0.3380 ca        1 215     -0.070000
      5 C23         7.2050   -0.5050    0.0570 c3        1 215      0.124400
      6 C31        -5.9420    3.8710   -0.8360 c3        1 215     -0.112700
      7 C32        -6.3010    2.7340    0.1120 ce        1 215      0.413900
      8 O34        -7.7020    1.6670    1.4930 oh        1 215     -0.354500
      9 N33        -7.4710    2.6810    0.6890 n2        1 215     -0.447200
     10 C30        -4.5080    3.5960   -1.3160 c3        1 215     -0.039100
     11 C29        -4.0950    2.3320   -0.6380 ca        1 215     -0.075300
     12 C9         -2.8890    1.6610   -0.7340 ca        1 215     -0.097000
     13 C28        -5.1350    1.8390    0.1890 ca        1 215     -0.162900
     14 C10        -4.9600    0.6750    0.9210 ca        1 215     -0.086000
     15 C11        -3.7410   -0.0050    0.8230 ca        1 215     -0.133000
     16 C8         -2.7120    0.4730    0.0030 ca        1 215     -0.098500
     17 C2         -1.2300   -1.6450   -0.0810 cd        1 215     -0.162600
     18 C7         -2.1530   -2.7610   -0.0760 ca        1 215      0.026000
     19 C16        -3.3790   -2.6780   -0.7550 ca        1 215     -0.239300
     20 C15        -4.2340   -3.7930   -0.7410 ca        1 215      0.395700
     21 N14        -3.9460   -4.9490   -0.1110 nb        1 215     -0.661000
     22 C13        -2.7680   -5.0150    0.5400 ca        1 215      0.395700
     23 C12        -1.8430   -3.9590    0.5880 ca        1 215     -0.239300
     24 N4         -0.2160    0.4270   -0.1280 nc        1 215     -0.654000
     25 N1          0.1600   -1.8170   -0.1260 na        1 215     -0.303900
     26 C20         4.4520   -1.0330    0.2700 ca        1 215     -0.186500
     27 C19         4.9400    0.1160   -0.3650 ca        1 215      0.143100
     28 C18         4.0510    1.0540   -0.9280 ca        1 215     -0.186500
     29 C17         2.6840    0.8290   -0.8540 ca        1 215     -0.070000
     30 O22         6.2740    0.4340   -0.4980 os        1 215     -0.331900
     31 C24         8.6020    0.0470   -0.2570 c3        1 215      0.168800
     32 N25         9.1090    0.9530    0.7630 n3        1 215     -0.742600
     33 C27        10.5480    1.0840    0.7200 c3        1 215      0.155100
     34 C26         8.4310    2.2290    0.7870 c3        1 215      0.155100
     35 H21         2.7060   -2.1400    0.8590 ha        1 215      0.143000
     36 H231        7.0740   -1.4960   -0.4520 h1        1 215      0.050700
     37 H232        7.0230   -0.6110    1.1580 h1        1 215      0.050700
     38 H311       -6.0020    4.8530   -0.3040 hc        1 215      0.066200
     39 H312       -6.6530    3.8960   -1.6990 hc        1 215      0.066200
     40 H34        -8.6120    1.8190    1.8180 ho        1 215      0.437000
     41 H301       -3.8260    4.4390   -1.0380 hc        1 215      0.060200
     42 H302       -4.4760    3.4810   -2.4290 hc        1 215      0.060200
     43 H9         -2.0760    2.0480   -1.3670 ha        1 215      0.151000
     44 H10        -5.7630    0.2930    1.5700 ha        1 215      0.154000
     45 H11        -3.5880   -0.9300    1.4010 ha        1 215      0.141000
     46 H16        -3.6660   -1.7560   -1.2800 ha        1 215      0.150000
     47 H15        -5.2060   -3.7610   -1.2650 h4        1 215      0.025100
     48 H13        -2.5570   -5.9710    1.0530 h4        1 215      0.025100
     49 H12        -0.9080   -4.0760    1.1500 ha        1 215      0.150000
     50 HN1         0.6320   -2.6800   -0.1770 hn        1 215      0.305700
     51 H20         5.1350   -1.7650    0.7220 ha        1 215      0.148000
     52 H18         4.4520    1.9520   -1.4170 ha        1 215      0.148000
     53 H17         1.9860    1.5630   -1.2880 ha        1 215      0.143000
     54 H241        8.5680    0.5340   -1.2750 h1        1 215      0.047200
     55 H242        9.2940   -0.8400   -0.3170 h1        1 215      0.047200
     56 H271       10.8740    1.7440    1.5650 h1        1 215      0.034533
     57 H272       11.0140    0.0730    0.8550 h1        1 215      0.034533
     58 H273       10.9260    1.5260   -0.2430 h1        1 215      0.034533
     59 H261        7.3230    2.0540    0.8270 h1        1 215      0.034533
     60 H262        8.7470    2.7840    1.7090 h1        1 215      0.034533
     61 H263        8.6580    2.8660   -0.1110 h1        1 215      0.034533
@<TRIPOS>BOND
     1    1   16 1   
     2    1   17 2   
     3    1   24 1   
     4    2    3 1   
     5    2   24 2   
     6    2   25 1   
     7    3    4 ar  
     8    3   29 ar  
     9    4   26 ar  
    10    4   35 1   
    11    5   30 1   
    12    5   31 1   
    13    5   36 1   
    14    5   37 1   
    15    6    7 1   
    16    6   10 1   
    17    6   38 1   
    18    6   39 1   
    19    7    9 2   
    20    7   13 1   
    21    8    9 1   
    22    8   40 1   
    23   10   11 1   
    24   10   41 1   
    25   10   42 1   
    26   11   12 ar  
    27   11   13 ar  
    28   12   16 ar  
    29   12   43 1   
    30   13   14 ar  
    31   14   15 ar  
    32   14   44 1   
    33   15   16 ar  
    34   15   45 1   
    35   17   18 1   
    36   17   25 1   
    37   18   19 ar  
    38   18   23 ar  
    39   19   20 ar  
    40   19   46 1   
    41   20   21 ar  
    42   20   47 1   
    43   21   22 ar  
    44   22   23 ar  
    45   22   48 1   
    46   23   49 1   
    47   25   50 1   
    48   26   27 ar  
    49   26   51 1   
    50   27   28 ar  
    51   27   30 1   
    52   28   29 ar  
    53   28   52 1   
    54   29   53 1   
    55   31   32 1   
    56   31   54 1   
    57   31   55 1   
    58   32   33 1   
    59   32   34 1   
    60   33   56 1   
    61   33   57 1   
    62   33   58 1   
    63   34   59 1   
    64   34   60 1   
    65   34   61 1   
@<TRIPOS>SUBSTRUCTURE
     1 215         1 TEMP              0 ****  ****    0 ROOT
