@<TRIPOS>MOLECULE
215
   61    57     1     0     0
SMALL
bcc


@<TRIPOS>ATOM
      1 C3         -0.4210   -0.3380   -2.1410 c2        1 215     -0.050000
      2 C5          0.3250   -0.3100   -0.0880 c2        1 215      0.021000
      3 C6          0.3620   -0.2870    1.2920 c1        1 215     -0.062000
      4 C21         0.5060    0.9180    1.9600 c1        1 215     -0.131000
      5 C23         1.3890   -0.1830    6.1440 c3        1 215     -0.024000
      6 C31        -4.5550    1.2000   -6.4160 c3        1 215     -0.146000
      7 C32        -4.1050   -0.2070   -6.4690 c2        1 215     -0.035000
      8 O34        -5.4040   -0.7480   -8.2720 oh        1 215     -0.254000
      9 N33        -4.4940   -1.0860   -7.3140 n2        1 215     -0.058000
     10 C30        -3.4840    1.8790   -5.5920 c3        1 215     -0.122000
     11 C29        -2.6950    0.7850   -4.8480 c2        1 215     -0.071000
     12 C9         -1.7470    0.8530   -3.8300 c2        1 215     -0.095000
     13 C28        -3.1620   -0.4490   -5.2810 c2        1 215     -0.049000
     14 C10        -2.6860   -1.6150   -4.6990 c2        1 215     -0.088000
     15 C11        -1.7390   -1.5480   -3.6810 c1        1 215     -0.132000
     16 C8         -1.2710   -0.3110   -3.2480 c1        1 215      0.007000
     17 C2          0.9620   -0.3540   -2.1770 c2        1 215     -0.073000
     18 C7          1.7690   -0.3930   -3.3510 c1        1 215      0.026000
     19 C16         2.0930    0.7720   -3.9960 c1        1 215     -0.131000
     20 C15         2.9780    0.7510   -5.0690 c1        1 215     -0.131000
     21 N14         3.5250   -0.4320   -5.4820 n1        1 215     -0.135000
     22 C13         3.2020   -1.5950   -4.8380 c1        1 215     -0.070000
     23 C12         2.3130   -1.5740   -3.7610 c1        1 215     -0.187000
     24 N4         -0.8000   -0.3100   -0.8580 n2        1 215     -0.128000
     25 N1          1.4080   -0.3370   -0.9200 n2        1 215     -0.189000
     26 C20         0.4740    0.9510    3.3430 c1        1 215     -0.131000
     27 C19         0.3000   -0.2160    4.0560 c1        1 215      0.101000
     28 C18         0.1560   -1.4240    3.3890 c1        1 215     -0.163000
     29 C17         0.1860   -1.4590    2.0110 c1        1 215     -0.055000
     30 O22         0.1700   -0.1700    5.4660 os        1 215     -0.215000
     31 C24         1.1450    0.1040    7.6640 c3        1 215     -0.072000
     32 N25         2.4050    0.4930    8.2970 n3        1 215     -0.270000
     33 C27         2.3460    1.9180    8.6750 c3        1 215     -0.117500
     34 C26         2.6160   -0.3060    9.4750 c3        1 215     -0.117500
     35 H21         0.6290    1.7440    1.4560 ha        1 215      0.149250
     36 H231        1.9840    0.5140    5.7670 h1        1 215      0.087000
     37 H232        1.8070   -1.0550    6.0410 h1        1 215      0.087000
     38 H311       -5.4640    1.4440   -6.0840 hc        1 215      0.107000
     39 H312       -4.5630    1.5160   -7.3480 hc        1 215      0.107000
     40 H34        -5.7570   -1.4810   -8.6170 ho        1 215      0.236000
     41 H301       -2.8690    2.3700   -6.1960 hc        1 215      0.099500
     42 H302       -3.9030    2.4630   -4.9460 hc        1 215      0.099500
     43 H9         -1.4260    1.7330   -3.5090 ha        1 215      0.154000
     44 H10        -3.0220   -2.5000   -5.0090 ha        1 215      0.149000
     45 H11        -1.3640   -2.3510   -3.3250 ha        1 215      0.141000
     46 H16         1.7060    1.6080   -3.7050 ha        1 215      0.149250
     47 H15         3.2100    1.5860   -5.5300 ha        1 215      0.149250
     48 H13         3.5860   -2.4270   -5.1270 ha        1 215      0.161000
     49 H12         2.0810   -2.4090   -3.2970 ha        1 215      0.140000
     50 HN1         2.3100   -0.3420   -0.6540 DU        1 215      0.256000
     51 H20         0.5760    1.8100    3.8200 ha        1 215      0.149250
     52 H18         0.0300   -2.2620    3.9040 ha        1 215      0.155000
     53 H17         0.0860   -2.2870    1.5560 ha        1 215      0.160000
     54 H241        0.4950    0.8310    7.7600 h1        1 215      0.088500
     55 H242        0.7910   -0.7170    8.1030 h1        1 215      0.088500
     56 H271        1.5980    2.0630    9.2830 h1        1 215      0.072833
     57 H272        2.2210    2.4700    7.8640 h1        1 215      0.072833
     58 H273        3.1940    2.1750    9.1240 h1        1 215      0.072833
     59 H261        1.8370   -0.2360   10.0590 h1        1 215      0.072833
     60 H262        3.4130    0.0180    9.9530 h1        1 215      0.072833
     61 H263        2.7510   -1.2520    9.2120 h1        1 215      0.072833
@<TRIPOS>BOND
     1    1   16 1   
     2    1   17 1   
     3    1   24 1   
     4    2    3 1   
     5    2   24 1   
     6    2   25 1   
     7    3   29 1   
     8    4   26 1   
     9    4   35 1   
    10    5   30 1   
    11    5   31 1   
    12    5   36 1   
    13    5   37 1   
    14    6    7 1   
    15    6   10 1   
    16    6   38 1   
    17    6   39 1   
    18    7    9 1   
    19    7   13 1   
    20    8    9 1   
    21    8   40 1   
    22   10   11 1   
    23   10   41 1   
    24   10   42 1   
    25   11   12 1   
    26   11   13 1   
    27   12   16 1   
    28   12   43 1   
    29   13   14 1   
    30   14   15 1   
    31   14   44 1   
    32   15   45 1   
    33   17   18 1   
    34   17   25 1   
    35   18   23 1   
    36   19   20 1   
    37   19   46 1   
    38   20   47 1   
    39   21   22 1   
    40   22   48 1   
    41   23   49 1   
    42   26   51 1   
    43   27   28 1   
    44   27   30 1   
    45   28   52 1   
    46   29   53 1   
    47   31   32 1   
    48   31   54 1   
    49   31   55 1   
    50   32   33 1   
    51   32   34 1   
    52   33   56 1   
    53   33   57 1   
    54   33   58 1   
    55   34   59 1   
    56   34   60 1   
    57   34   61 1   
@<TRIPOS>SUBSTRUCTURE
     1 215         1 TEMP              0 ****  ****    0 ROOT
