@<TRIPOS>MOLECULE
215
   62    66     1     0     0
SMALL
bcc


@<TRIPOS>ATOM
      1 C3          0.0230   -0.1140   -0.1560 cc        1 215      0.391800
      2 C5          0.6730   -0.3010    1.9470 cd        1 215      0.431000
      3 C6          0.6700   -0.4140    3.4030 ca        1 215     -0.103500
      4 C21         1.7300   -1.0250    4.0860 ca        1 215     -0.079500
      5 C23         1.6620   -0.7920    8.3030 c3        1 215      0.107400
      6 C31        -4.6390    1.3660   -3.8660 c3        1 215     -0.111700
      7 C32        -3.6520    0.3820   -4.4790 ce        1 215      0.404900
      8 O34        -2.9230   -0.9250   -6.1420 oh        1 215     -0.354500
      9 N33        -3.8210   -0.0820   -5.6880 n2        1 215     -0.433200
     10 C30        -4.1150    1.6810   -2.4560 c3        1 215     -0.039100
     11 C29        -2.8640    0.8810   -2.3050 ca        1 215     -0.074300
     12 C9         -2.0140    0.8110   -1.2160 ca        1 215     -0.098000
     13 C28        -2.6010    0.1300   -3.4780 ca        1 215     -0.150900
     14 C10        -1.4860   -0.6910   -3.5540 ca        1 215     -0.086000
     15 C11        -0.6240   -0.7600   -2.4540 ca        1 215     -0.127000
     16 C8         -0.8760   -0.0160   -1.2950 ca        1 215     -0.114500
     17 C2          1.4480   -0.1780   -0.1710 cd        1 215     -0.136600
     18 C7          2.4000   -0.1040   -1.2620 ca        1 215      0.010000
     19 C16         2.1630    0.7380   -2.3580 ca        1 215     -0.235300
     20 C15         3.1240    0.7920   -3.3830 ca        1 215      0.400200
     21 N14         4.2670    0.0800   -3.3740 nb        1 215     -0.650000
     22 C13         4.4800   -0.7290   -2.3180 ca        1 215      0.400200
     23 C12         3.5860   -0.8560   -1.2410 ca        1 215     -0.235300
     24 N4         -0.4340   -0.1860    1.1600 nc        1 215     -0.638000
     25 N1          1.8390   -0.3070    1.1650 na        1 215     -0.294900
     26 C20         1.7040   -1.1410    5.4750 ca        1 215     -0.156500
     27 C19         0.6030   -0.6400    6.1750 ca        1 215      0.083100
     28 C18        -0.4670   -0.0230    5.5110 ca        1 215     -0.156500
     29 C17        -0.4290    0.0820    4.1250 ca        1 215     -0.079500
     30 O22         0.4500   -0.7810    7.5540 os        1 215     -0.375900
     31 C24         1.3100   -0.3510    9.7280 c3        1 215      0.098800
     32 N25         0.2150   -1.1730   10.3470 n4        1 215     -0.672400
     33 C27         0.4400   -1.3580   11.8030 c3        1 215      0.081100
     34 C26        -1.1220   -0.5670   10.0950 c3        1 215      0.081100
     35 H21         2.5900   -1.4410    3.5390 ha        1 215      0.159500
     36 H231        2.0870   -1.8320    8.2900 h1        1 215      0.081200
     37 H232        2.4130   -0.0710    7.8830 h1        1 215      0.081200
     38 H311       -4.6970    2.2950   -4.4860 hc        1 215      0.069700
     39 H312       -5.6600    0.9120   -3.8180 hc        1 215      0.069700
     40 H34        -3.2310   -1.1450   -7.0450 ho        1 215      0.443000
     41 H301       -4.8670    1.3950   -1.6780 hc        1 215      0.060700
     42 H302       -3.9050    2.7750   -2.3450 hc        1 215      0.060700
     43 H9         -2.2200    1.3860   -0.3020 ha        1 215      0.146000
     44 H10        -1.2830   -1.2800   -4.4620 ha        1 215      0.159000
     45 H11         0.2640   -1.4090   -2.5020 ha        1 215      0.140000
     46 H16         1.2420    1.3340   -2.4200 ha        1 215      0.149500
     47 H15         2.9700    1.4440   -4.2630 h4        1 215      0.031100
     48 H13         5.4220   -1.3080   -2.3390 h4        1 215      0.031100
     49 H12         3.8120   -1.5470   -0.4200 ha        1 215      0.149500
     50 HN1         2.7700   -0.3390    1.4900 hn        1 215      0.305700
     51 H20         2.5360   -1.6300    6.0000 ha        1 215      0.143000
     52 H18        -1.3250    0.3590    6.0810 ha        1 215      0.143000
     53 H17        -1.2700    0.5560    3.5920 ha        1 215      0.159500
     54 H241        2.2380   -0.4470   10.3620 hx        1 215      0.112700
     55 H242        0.9800    0.7270    9.7230 hx        1 215      0.112700
     56 H271       -0.4090   -1.9510   12.2370 hx        1 215      0.107867
     57 H272        1.4040   -1.9110   11.9670 hx        1 215      0.107867
     58 H273        0.4900   -0.3550   12.3060 hx        1 215      0.107867
     59 H261       -1.9170   -1.2570   10.4840 hx        1 215      0.107867
     60 H262       -1.2530   -0.4200    8.9860 hx        1 215      0.107867
     61 H263       -1.1910    0.4230   10.6190 hx        1 215      0.107867
     62 H251        0.2260   -2.0980    9.8920 hn        1 215      0.457800
@<TRIPOS>BOND
     1    1   16 1   
     2    1   17 2   
     3    1   24 1   
     4    2    3 1   
     5    2   24 2   
     6    2   25 1   
     7    3    4 ar  
     8    3   29 ar  
     9    4   26 ar  
    10    4   35 1   
    11    5   30 1   
    12    5   31 1   
    13    5   36 1   
    14    5   37 1   
    15    6    7 1   
    16    6   10 1   
    17    6   38 1   
    18    6   39 1   
    19    7    9 2   
    20    7   13 1   
    21    8    9 1   
    22    8   40 1   
    23   10   11 1   
    24   10   41 1   
    25   10   42 1   
    26   11   12 ar  
    27   11   13 ar  
    28   12   16 ar  
    29   12   43 1   
    30   13   14 ar  
    31   14   15 ar  
    32   14   44 1   
    33   15   16 ar  
    34   15   45 1   
    35   17   18 1   
    36   17   25 1   
    37   18   19 ar  
    38   18   23 ar  
    39   19   20 ar  
    40   19   46 1   
    41   20   21 ar  
    42   20   47 1   
    43   21   22 ar  
    44   22   23 ar  
    45   22   48 1   
    46   23   49 1   
    47   25   50 1   
    48   26   27 ar  
    49   26   51 1   
    50   27   28 ar  
    51   27   30 1   
    52   28   29 ar  
    53   28   52 1   
    54   29   53 1   
    55   31   32 1   
    56   31   54 1   
    57   31   55 1   
    58   32   33 1   
    59   32   34 1   
    60   32   62 1   
    61   33   56 1   
    62   33   57 1   
    63   33   58 1   
    64   34   59 1   
    65   34   60 1   
    66   34   61 1   
@<TRIPOS>SUBSTRUCTURE
     1 215         1 TEMP              0 ****  ****    0 ROOT
