@<TRIPOS>MOLECULE
215
   62    66     1     0     0
SMALL
bcc


@<TRIPOS>ATOM
      1 C3          0.0250   -0.1150   -0.1540 cc        1 215      0.391800
      2 C5          0.6750   -0.3010    1.9480 cd        1 215      0.431000
      3 C6          0.6720   -0.4140    3.4040 ca        1 215     -0.103500
      4 C21         1.7300   -1.0280    4.0870 ca        1 215     -0.079500
      5 C23         1.6620   -0.7980    8.3040 c3        1 215      0.107400
      6 C31        -4.6350    1.3670   -3.8670 c3        1 215     -0.111700
      7 C32        -3.6480    0.3810   -4.4790 ce        1 215      0.404900
      8 O34        -2.9210   -0.9290   -6.1400 oh        1 215     -0.354500
      9 N33        -3.8170   -0.0830   -5.6870 n2        1 215     -0.433200
     10 C30        -4.1110    1.6830   -2.4570 c3        1 215     -0.039100
     11 C29        -2.8610    0.8810   -2.3050 ca        1 215     -0.074300
     12 C9         -2.0110    0.8120   -1.2160 ca        1 215     -0.098000
     13 C28        -2.5980    0.1290   -3.4780 ca        1 215     -0.150900
     14 C10        -1.4840   -0.6930   -3.5530 ca        1 215     -0.086000
     15 C11        -0.6230   -0.7620   -2.4530 ca        1 215     -0.127000
     16 C8         -0.8740   -0.0170   -1.2940 ca        1 215     -0.114500
     17 C2          1.4500   -0.1800   -0.1700 cd        1 215     -0.136600
     18 C7          2.4020   -0.1080   -1.2600 ca        1 215      0.010000
     19 C16         2.1670    0.7350   -2.3570 ca        1 215     -0.235800
     20 C15         3.1280    0.7870   -3.3820 ca        1 215      0.400200
     21 N14         4.2700    0.0730   -3.3730 nb        1 215     -0.650000
     22 C13         4.4810   -0.7350   -2.3170 ca        1 215      0.400200
     23 C12         3.5860   -0.8620   -1.2400 ca        1 215     -0.235800
     24 N4         -0.4320   -0.1850    1.1610 nc        1 215     -0.638000
     25 N1          1.8410   -0.3090    1.1660 na        1 215     -0.294900
     26 C20         1.7030   -1.1440    5.4770 ca        1 215     -0.156500
     27 C19         0.6040   -0.6390    6.1760 ca        1 215      0.083100
     28 C18        -0.4640   -0.0170    5.5120 ca        1 215     -0.156500
     29 C17        -0.4250    0.0870    4.1260 ca        1 215     -0.079500
     30 O22         0.4500   -0.7780    7.5560 os        1 215     -0.375900
     31 C24         1.3130   -0.3560    9.7300 c3        1 215      0.098800
     32 N25         0.2120   -1.1720   10.3480 n4        1 215     -0.672400
     33 C27         0.4370   -1.3610   11.8040 c3        1 215      0.081100
     34 C26        -1.1200   -0.5580   10.0960 c3        1 215      0.081100
     35 H21         2.5880   -1.4480    3.5400 ha        1 215      0.159500
     36 H231        2.0810   -1.8400    8.2900 h1        1 215      0.081200
     37 H232        2.4180   -0.0800    7.8850 h1        1 215      0.081200
     38 H311       -5.6560    0.9130   -3.8190 hc        1 215      0.069700
     39 H312       -4.6920    2.2950   -4.4880 hc        1 215      0.069700
     40 H34        -3.2290   -1.1490   -7.0430 ho        1 215      0.443000
     41 H301       -3.9000    2.7760   -2.3470 hc        1 215      0.060700
     42 H302       -4.8630    1.3970   -1.6790 hc        1 215      0.060700
     43 H9         -2.2170    1.3880   -0.3020 ha        1 215      0.146000
     44 H10        -1.2820   -1.2830   -4.4600 ha        1 215      0.159000
     45 H11         0.2650   -1.4120   -2.4990 ha        1 215      0.140000
     46 H16         1.2460    1.3320   -2.4180 ha        1 215      0.149500
     47 H15         2.9750    1.4400   -4.2620 h4        1 215      0.031100
     48 H13         5.4220   -1.3160   -2.3380 h4        1 215      0.031100
     49 H12         3.8120   -1.5530   -0.4190 ha        1 215      0.149500
     50 HN1         2.7710   -0.3420    1.4910 hn        1 215      0.305700
     51 H20         2.5330   -1.6360    6.0010 ha        1 215      0.142500
     52 H18        -1.3200    0.3680    6.0820 ha        1 215      0.142500
     53 H17        -1.2650    0.5650    3.5930 ha        1 215      0.159500
     54 H241        0.9890    0.7230    9.7260 hx        1 215      0.112700
     55 H242        2.2400   -0.4590   10.3640 hx        1 215      0.112700
     56 H271       -0.4170   -1.9490   12.2370 hx        1 215      0.107867
     57 H272        0.4930   -0.3590   12.3080 hx        1 215      0.107867
     58 H273        1.3970   -1.9190   11.9670 hx        1 215      0.107867
     59 H261       -1.2500   -0.4090    8.9870 hx        1 215      0.107867
     60 H262       -1.1840    0.4320   10.6210 hx        1 215      0.107867
     61 H263       -1.9200   -1.2440   10.4840 hx        1 215      0.107867
     62 H251        0.2180   -2.0970    9.8910 hn        1 215      0.457800
@<TRIPOS>BOND
     1    1   16 1   
     2    1   17 2   
     3    1   24 1   
     4    2    3 1   
     5    2   24 2   
     6    2   25 1   
     7    3    4 ar  
     8    3   29 ar  
     9    4   26 ar  
    10    4   35 1   
    11    5   30 1   
    12    5   31 1   
    13    5   36 1   
    14    5   37 1   
    15    6    7 1   
    16    6   10 1   
    17    6   38 1   
    18    6   39 1   
    19    7    9 2   
    20    7   13 1   
    21    8    9 1   
    22    8   40 1   
    23   10   11 1   
    24   10   41 1   
    25   10   42 1   
    26   11   12 ar  
    27   11   13 ar  
    28   12   16 ar  
    29   12   43 1   
    30   13   14 ar  
    31   14   15 ar  
    32   14   44 1   
    33   15   16 ar  
    34   15   45 1   
    35   17   18 1   
    36   17   25 1   
    37   18   19 ar  
    38   18   23 ar  
    39   19   20 ar  
    40   19   46 1   
    41   20   21 ar  
    42   20   47 1   
    43   21   22 ar  
    44   22   23 ar  
    45   22   48 1   
    46   23   49 1   
    47   25   50 1   
    48   26   27 ar  
    49   26   51 1   
    50   27   28 ar  
    51   27   30 1   
    52   28   29 ar  
    53   28   52 1   
    54   29   53 1   
    55   31   32 1   
    56   31   54 1   
    57   31   55 1   
    58   32   33 1   
    59   32   34 1   
    60   32   62 1   
    61   33   56 1   
    62   33   57 1   
    63   33   58 1   
    64   34   59 1   
    65   34   60 1   
    66   34   61 1   
@<TRIPOS>SUBSTRUCTURE
     1 215         1 TEMP              0 ****  ****    0 ROOT
