@<TRIPOS>MOLECULE
216
   60    61     1     0     0
SMALL
bcc


@<TRIPOS>ATOM
      1 O1          2.1240   -1.9780   -0.6360 o         1 216     -0.503000
      2 O4          1.8830   -4.1410    1.3370 oh        1 216     -0.271000
      3 O5          3.0040   -7.0320   -0.5530 oh        1 216     -0.271000
      4 N2          2.0750   -0.1030    0.8590 n2        1 216     -0.409000
      5 N7          2.9290    0.0540   -1.3860 n         1 216     -0.077000
      6 C1          2.3000   -0.7860   -0.2460 c2        1 216      0.274000
      7 C3          1.4880   -0.7990    1.9570 c3        1 216     -0.100000
      8 C4          2.3240   -4.8790    0.2600 c2        1 216     -0.110500
      9 C5          2.5530   -6.1940    0.4410 c2        1 216     -0.110500
     10 C6          3.7560    1.0270   -1.1300 c2        1 216      0.102000
     11 C22        -0.1000   -2.1990    5.0560 cx        1 216     -0.161000
     12 C23        -0.0890   -1.5030    6.3730 cu        1 216     -0.199500
     13 C31         6.4470    2.1320   -0.3810 c3        1 216     -0.100000
     14 C32         5.9320    2.9280    0.7680 ca        1 216     -0.099000
     15 C33         6.1320    4.3140    0.8120 ca        1 216     -0.126500
     16 C34         5.6930    5.0540    1.9080 ca        1 216     -0.123000
     17 C35         5.0540    4.4170    2.9720 ca        1 216     -0.124000
     18 C36         4.8580    3.0370    2.9380 ca        1 216     -0.123000
     19 C37         5.2980    2.2930    1.8430 ca        1 216     -0.126500
     20 C61         4.4790    1.8480   -2.1100 cx        1 216     -0.217000
     21 C62         4.5870    3.3380   -1.8310 cx        1 216     -0.083000
     22 C63         4.5060    4.2610   -2.9630 c2        1 216     -0.139000
     23 C64         5.4480    4.2710   -3.9280 c2        1 216     -0.125000
     24 C65         6.6050    3.4060   -3.8540 c2        1 216     -0.124000
     25 C66         6.8030    2.5750   -2.8110 c2        1 216     -0.139000
     26 C67         5.8260    2.4590   -1.7140 cx        1 216     -0.032000
     27 C71         2.5620   -0.3800   -2.7260 c3        1 216     -0.105000
     28 C72         3.4220   -1.5240   -3.2730 c3        1 216     -0.262000
     29 C73         3.0210   -2.0830   -4.5340 c1        1 216     -0.047000
     30 HO4         1.7280   -3.2400    1.0070 ho        1 216      0.220000
     31 HO5         3.0880   -6.5230   -1.3710 ho        1 216      0.220000
     32 H3          2.1860   -1.5580    2.4090 h1        1 216      0.067667
     33 H4          0.5380   -1.3390    1.6860 h1        1 216      0.067667
     34 H5          2.4630   -4.3400   -0.6880 h4        1 216      0.156500
     35 H6          2.4190   -6.7480    1.3800 h4        1 216      0.156500
     36 H211        5.1470    1.2020    1.8350 ha        1 216      0.138500
     37 H212       -2.2880   -1.3110    5.6680 ha        1 216      0.184500
     38 H22        -0.0370   -3.3020    5.0060 hc        1 216      0.095000
     39 H231        0.3690   -1.7290    4.1700 hc        1 216      0.095000
     40 H232        0.5220   -1.2230    7.2030 ha        1 216      0.184500
     41 H311        1.2510   -0.0240    2.7320 h1        1 216      0.067667
     42 H312        6.3090    1.0340   -0.1810 hc        1 216      0.103500
     43 H33         7.5580    2.3090   -0.4480 hc        1 216      0.103500
     44 H34         6.6400    4.8170   -0.0240 ha        1 216      0.138500
     45 H35         5.8540    6.1420    1.9340 ha        1 216      0.138500
     46 H36         4.7070    5.0020    3.8370 ha        1 216      0.136000
     47 H37         4.3540    2.5290    3.7740 ha        1 216      0.138500
     48 H611        3.9390    1.2880   -0.0560 h4        1 216      0.212000
     49 H612        4.3830    1.5360   -3.1710 hc        1 216      0.149000
     50 H63         4.1240    3.7200   -0.8950 hc        1 216      0.156000
     51 H64         3.6550    4.9590   -2.9700 ha        1 216      0.144000
     52 H65         5.3880    4.9630   -4.7820 ha        1 216      0.141000
     53 H66         7.3420    3.4800   -4.6690 ha        1 216      0.141000
     54 H67         7.7130    1.9620   -2.7250 ha        1 216      0.143000
     55 H711        2.6020    0.4970   -3.4310 h1        1 216      0.118500
     56 H712        1.4910   -0.7370   -2.6650 h1        1 216      0.118500
     57 H72         4.5050   -1.2190   -3.3310 hc        1 216      0.173500
     58 H731        3.3760   -2.4020   -2.5440 hc        1 216      0.173500
     59 H732        2.0480   -1.7760   -4.9460 ha        1 216      0.047000
     60 C21        -1.2460   -1.5400    5.7410 cu        1 216     -0.199500
@<TRIPOS>BOND
     1    1    6 1   
     2    2    8 1   
     3    2   30 1   
     4    3    9 1   
     5    3   31 1   
     6    4    6 1   
     7    4    7 1   
     8    5    6 1   
     9    5   10 1   
    10    5   27 1   
    11    7   32 1   
    12    7   33 1   
    13    7   41 1   
    14    8    9 1   
    15    8   34 1   
    16    9   35 1   
    17   10   20 1   
    18   10   48 1   
    19   11   12 1   
    20   11   38 1   
    21   11   39 1   
    22   11   60 1   
    23   12   40 1   
    24   12   60 1   
    25   13   14 1   
    26   13   26 1   
    27   13   42 1   
    28   13   43 1   
    29   14   15 1   
    30   14   19 1   
    31   15   16 1   
    32   15   44 1   
    33   16   17 1   
    34   16   45 1   
    35   17   18 1   
    36   17   46 1   
    37   18   19 1   
    38   18   47 1   
    39   19   36 1   
    40   20   21 1   
    41   20   26 1   
    42   20   49 1   
    43   21   22 1   
    44   21   26 1   
    45   21   50 1   
    46   22   23 1   
    47   22   51 1   
    48   23   24 1   
    49   23   52 1   
    50   24   25 1   
    51   24   53 1   
    52   25   26 1   
    53   25   54 1   
    54   27   28 1   
    55   27   55 1   
    56   27   56 1   
    57   28   29 1   
    58   28   57 1   
    59   28   58 1   
    60   29   59 1   
    61   37   60 1   
@<TRIPOS>SUBSTRUCTURE
     1 216         1 TEMP              0 ****  ****    0 ROOT
