@<TRIPOS>MOLECULE
216
   60    82     1     0     0
SMALL
bcc


@<TRIPOS>ATOM
      1 O1          0.0000    0.0000    0.0000 o         1 216     -0.365000
      2 O4          4.9810   -1.8140    1.0660 oh        1 216     -0.365000
      3 O5          3.9960   -1.8350   -1.8580 oh        1 216     -0.298000
      4 N2          1.8150    0.0000    1.1790 nx        1 216      0.742000
      5 N7          1.8240    0.0000   -1.1970 n         1 216      0.127000
      6 C1          1.2150    0.0000    0.0000 c2        1 216      0.090000
      7 C3          3.2510   -0.1600    1.3710 DU        1 216     -0.327000
      8 C4          3.8020   -1.2740    0.4700 DU        1 216      0.249000
      9 C5          4.1410   -0.7650   -0.9220 DU        1 216     -0.148000
     10 C6          3.2310    0.3790   -1.3340 DU        1 216     -0.422000
     11 C22         0.5270   -1.1790    2.8660 c3        1 216     -0.394000
     12 C23         0.8480   -1.5760    4.0720 c2        1 216     -0.147000
     13 C31         3.9560    1.1520    1.0240 c3        1 216     -0.326000
     14 C32         4.6650    1.6800    2.2440 c2        1 216     -0.092000
     15 C33         5.9740    1.3130    2.4960 c3        1 216     -0.121000
     16 C34         6.6240    1.7980    3.6160 c3        1 216     -0.199000
     17 C35         5.9670    2.6490    4.4830 c3        1 216     -0.141000
     18 C36         4.6590    3.0170    4.2300 c3        1 216     -0.323000
     19 C37         4.0090    2.5360    3.1080 c2        1 216     -0.274000
     20 C61         3.5100    0.7450   -2.7930 c3        1 216     -0.427000
     21 C62         4.9050    1.3030   -2.9120 c3        1 216     -0.100000
     22 C63         5.9510    0.4760   -3.2730 c3        1 216     -0.112000
     23 C64         7.2310    0.9880   -3.3820 c3        1 216     -0.209000
     24 C65         7.4630    2.3260   -3.1310 c3        1 216     -0.157000
     25 C66         6.4170    3.1540   -2.7710 c3        1 216     -0.334000
     26 C67         5.1370    2.6440   -2.6660 c2        1 216     -0.283000
     27 C71         1.0640   -0.3840   -2.3890 DU        1 216     -0.130000
     28 C72         1.0740   -1.8850   -2.5290 c3        1 216     -0.380000
     29 C73        -0.0540   -2.5510   -2.5200 c2        1 216     -0.174000
     30 HO4         4.1580   -1.4540    1.3520 DU        1 216      0.305000
     31 HO5         4.2410   -2.0920   -0.9850 ho        1 216      0.257000
     32 H3          3.6380   -0.7500    0.5500 hx        1 216     -0.326000
     33 H4          3.6230   -0.8410    1.4470 DU        1 216      0.070000
     34 H5          3.5880   -1.4210   -0.2600 DU        1 216      0.169000
     35 H6          4.2150   -0.0240   -1.1290 DU        1 216      0.168000
     36 H211        1.6330    0.4550    1.5550 DU        1 216      0.037000
     37 H212       -0.0400    0.5190    2.2770 hx        1 216      0.176000
     38 H22         1.0090   -0.2420    3.1190 DU        1 216      0.241000
     39 H231        0.4040   -1.7150    3.0940 DU        1 216      0.164000
     40 H232        1.3800   -0.9080    4.7390 ha        1 216      0.119000
     41 H311        3.3580    0.4800    1.6270 DU        1 216      0.154000
     42 H312        4.6780    0.9760    0.2350 hc        1 216      0.115000
     43 H33         5.0820    1.4970    1.9100 hc        1 216      0.294000
     44 H34         6.5580    1.2140    2.7050 DU        1 216      0.187000
     45 H35         6.8200    2.0730    4.1450 DU        1 216      0.194000
     46 H36         5.5780    3.0230    4.8030 DU        1 216      0.188000
     47 H37         4.0760    3.1190    4.0190 DU        1 216      0.228000
     48 H611        3.4160    1.1150   -1.7790 DU        1 216      0.315000
     49 H612        3.4220   -0.1400   -3.4100 hc        1 216      0.106000
     50 H63         4.9210    0.8080   -3.2250 DU        1 216      0.304000
     51 H64         6.4920    0.1970   -3.4270 DU        1 216      0.185000
     52 H65         7.7620    1.3210   -3.4020 DU        1 216      0.198000
     53 H66         7.4540    2.9390   -2.9950 DU        1 216      0.192000
     54 H67         5.8760    3.4350   -2.6200 DU        1 216      0.236000
     55 H711        1.7810    0.4280   -2.3880 ha        1 216      0.196500
     56 H712        0.0420   -0.0370   -2.2940 ha        1 216      0.196500
     57 H72         1.3000   -0.8940   -2.9050 DU        1 216      0.262000
     58 H731        1.0240   -2.4810   -2.4370 DU        1 216      0.219000
     59 H732       -1.0450   -2.1420   -2.6770 ha        1 216      0.122000
     60 C21         0.9810    0.1710    2.3720 DU        1 216     -0.230000
@<TRIPOS>BOND
     1    1    6 1   
     2    2    8 1   
     3    2   30 1   
     4    3    9 1   
     5    3   31 1   
     6    4    6 1   
     7    4    7 1   
     8    4   36 1   
     9    4   60 1   
    10    5    6 1   
    11    5   10 1   
    12    5   27 1   
    13    7    8 1   
    14    7   13 1   
    15    7   32 1   
    16    7   33 1   
    17    7   41 1   
    18    8    9 1   
    19    8   30 1   
    20    8   33 1   
    21    8   34 1   
    22    9   10 1   
    23    9   34 1   
    24    9   35 1   
    25   10   20 1   
    26   10   35 1   
    27   10   48 1   
    28   11   12 1   
    29   11   38 1   
    30   11   39 1   
    31   11   60 1   
    32   12   39 1   
    33   12   40 1   
    34   13   14 1   
    35   13   41 1   
    36   13   42 1   
    37   14   15 1   
    38   14   19 1   
    39   15   16 1   
    40   15   43 1   
    41   15   44 1   
    42   16   17 1   
    43   16   44 1   
    44   16   45 1   
    45   17   18 1   
    46   17   45 1   
    47   17   46 1   
    48   18   19 1   
    49   18   46 1   
    50   18   47 1   
    51   19   47 1   
    52   20   21 1   
    53   20   48 1   
    54   20   49 1   
    55   21   22 1   
    56   21   26 1   
    57   21   50 1   
    58   22   23 1   
    59   22   50 1   
    60   22   51 1   
    61   23   24 1   
    62   23   51 1   
    63   23   52 1   
    64   24   25 1   
    65   24   52 1   
    66   24   53 1   
    67   25   26 1   
    68   25   53 1   
    69   25   54 1   
    70   26   54 1   
    71   27   28 1   
    72   27   55 1   
    73   27   56 1   
    74   27   57 1   
    75   28   29 1   
    76   28   57 1   
    77   28   58 1   
    78   29   58 1   
    79   29   59 1   
    80   36   60 1   
    81   37   60 1   
    82   38   60 1   
@<TRIPOS>SUBSTRUCTURE
     1 216         1 TEMP              0 ****  ****    0 ROOT
