@<TRIPOS>MOLECULE
216
   60    62     1     0     0
SMALL
bcc


@<TRIPOS>ATOM
      1 O1          2.9510   -1.2170    1.4780 o         1 216     -0.665500
      2 O4          0.0620    2.8660    0.0530 oh        1 216     -0.605300
      3 O5          1.3310    1.7820   -2.2280 oh        1 216     -0.605300
      4 N2          0.7340   -0.5330    1.4610 n         1 216     -0.444300
      5 N7          2.0650   -0.8350   -0.6070 n         1 216     -0.444300
      6 C1          1.9690   -0.8260    0.8000 c         1 216      0.782500
      7 C3          0.0220    0.7060    1.1750 c3        1 216      0.095200
      8 C4          0.6850    1.5870    0.0890 c3        1 216      0.105600
      9 C5          0.5240    1.0290   -1.3350 c3        1 216      0.105600
     10 C6          0.9240   -0.4670   -1.4170 c3        1 216      0.095200
     11 C22         1.4440   -0.0810    3.8260 c2        1 216     -0.203200
     12 C23         0.9040    0.4290    4.9290 c2        1 216     -0.212000
     13 C31        -1.4630    0.4780    0.8150 c3        1 216     -0.041600
     14 C32        -2.3230    0.2750    2.0110 ca        1 216     -0.084300
     15 C33        -2.6660    1.3640    2.8220 ca        1 216     -0.126750
     16 C34        -3.4990    1.1880    3.9250 ca        1 216     -0.129750
     17 C35        -4.0010   -0.0790    4.2260 ca        1 216     -0.129500
     18 C36        -3.6660   -1.1670    3.4220 ca        1 216     -0.129750
     19 C37        -2.8300   -0.9930    2.3190 ca        1 216     -0.126750
     20 C61         1.0440   -0.8860   -2.8960 c3        1 216     -0.041600
     21 C62        -0.2870   -0.8640   -3.5650 ca        1 216     -0.084300
     22 C63        -0.7190    0.2840   -4.2410 ca        1 216     -0.126750
     23 C64        -1.9490    0.2920   -4.8960 ca        1 216     -0.129750
     24 C65        -2.7590   -0.8440   -4.8790 ca        1 216     -0.129500
     25 C66        -2.3360   -1.9880   -4.2040 ca        1 216     -0.129750
     26 C67        -1.1040   -2.0000   -3.5500 ca        1 216     -0.126750
     27 C71         3.4010   -0.8570   -1.1690 c3        1 216      0.113200
     28 C72         4.0530    0.4770   -1.3720 c2        1 216     -0.203200
     29 C73         5.2970    0.7360   -0.9780 c2        1 216     -0.212000
     30 HO4         0.2100    3.2790    0.9130 ho        1 216      0.414500
     31 HO5         1.0680    2.7060   -2.1200 ho        1 216      0.414500
     32 H3          0.0290    1.3380    2.1230 h1        1 216      0.063200
     33 H4          1.7810    1.7250    0.3190 h1        1 216      0.065200
     34 H5         -0.5540    1.1180   -1.6560 h1        1 216      0.065200
     35 H6          0.0380   -1.0430   -0.9970 h1        1 216      0.063200
     36 H211       -0.4080   -0.9780    3.1390 h1        1 216      0.072700
     37 H212        1.1110   -1.9830    2.9230 h1        1 216      0.072700
     38 H22         2.5100    0.0590    3.5770 ha        1 216      0.145000
     39 H231        1.4910    1.0130    5.6500 ha        1 216      0.112250
     40 H232       -0.1530    0.2930    5.1960 ha        1 216      0.112250
     41 H311       -1.8160    1.3970    0.2690 hc        1 216      0.068200
     42 H312       -1.5690   -0.3930    0.1150 hc        1 216      0.068200
     43 H33        -2.2770    2.3650    2.5810 ha        1 216      0.135750
     44 H34        -3.7650    2.0490    4.5550 ha        1 216      0.132250
     45 H35        -4.6610   -0.2170    5.0950 ha        1 216      0.132000
     46 H36        -4.0610   -2.1670    3.6560 ha        1 216      0.132250
     47 H37        -2.5680   -1.8550    1.6870 ha        1 216      0.135750
     48 H611        1.7520   -0.1910   -3.4220 hc        1 216      0.068200
     49 H612        1.4620   -1.9270   -2.9590 hc        1 216      0.068200
     50 H63        -0.0770    1.1800   -4.2430 ha        1 216      0.135750
     51 H64        -2.2810    1.1960   -5.4280 ha        1 216      0.132250
     52 H65        -3.7290   -0.8370   -5.3970 ha        1 216      0.132000
     53 H66        -2.9720   -2.8850   -4.1890 ha        1 216      0.132250
     54 H67        -0.7710   -2.9060   -3.0220 ha        1 216      0.135750
     55 H711        4.0450   -1.4980   -0.4940 h1        1 216      0.072700
     56 H712        3.3480   -1.3700   -2.1730 h1        1 216      0.072700
     57 H72         3.4420    1.2290   -1.9020 ha        1 216      0.145000
     58 H731        5.7810    1.7020   -1.1710 ha        1 216      0.112250
     59 H732        5.9170    0.0070   -0.4380 ha        1 216      0.112250
     60 C21         0.6860   -0.9380    2.8600 c3        1 216      0.113200
@<TRIPOS>BOND
     1    1    6 2   
     2    2    8 1   
     3    2   30 1   
     4    3    9 1   
     5    3   31 1   
     6    4    6 1   
     7    4    7 1   
     8    4   60 1   
     9    5    6 1   
    10    5   10 1   
    11    5   27 1   
    12    7    8 1   
    13    7   13 1   
    14    7   32 1   
    15    8    9 1   
    16    8   33 1   
    17    9   10 1   
    18    9   34 1   
    19   10   20 1   
    20   10   35 1   
    21   11   12 2   
    22   11   38 1   
    23   11   60 1   
    24   12   39 1   
    25   12   40 1   
    26   13   14 1   
    27   13   41 1   
    28   13   42 1   
    29   14   15 ar  
    30   14   19 ar  
    31   15   16 ar  
    32   15   43 1   
    33   16   17 ar  
    34   16   44 1   
    35   17   18 ar  
    36   17   45 1   
    37   18   19 ar  
    38   18   46 1   
    39   19   47 1   
    40   20   21 1   
    41   20   48 1   
    42   20   49 1   
    43   21   22 ar  
    44   21   26 ar  
    45   22   23 ar  
    46   22   50 1   
    47   23   24 ar  
    48   23   51 1   
    49   24   25 ar  
    50   24   52 1   
    51   25   26 ar  
    52   25   53 1   
    53   26   54 1   
    54   27   28 1   
    55   27   55 1   
    56   27   56 1   
    57   28   29 2   
    58   28   57 1   
    59   29   58 1   
    60   29   59 1   
    61   36   60 1   
    62   37   60 1   
@<TRIPOS>SUBSTRUCTURE
     1 216         1 TEMP              0 ****  ****    0 ROOT
