@<TRIPOS>MOLECULE
216
   60    56     1     0     0
SMALL
bcc


@<TRIPOS>ATOM
      1 O1         -1.2760    0.2970   -0.2220 o         1 216     -0.277000
      2 O4         -1.5040   -1.6380    1.6700 oh        1 216     -0.317000
      3 O5         -2.4600   -0.3530   -1.2290 oh        1 216     -0.317000
      4 N2          0.4790    0.2870    0.6910 n         1 216     -0.323000
      5 N7          0.4770   -0.2800   -0.9600 n         1 216     -0.323000
      6 C1         -0.0610    0.2920   -0.2250 c2        1 216      0.365000
      7 C3         -0.2570    0.2630    1.5750 c3        1 216     -0.020500
      8 C4         -1.6060   -0.7280    1.1970 c3        1 216     -0.021000
      9 C5         -1.7810   -1.0270   -0.8410 c3        1 216     -0.021000
     10 C6         -0.2660   -0.8370   -1.6410 c3        1 216     -0.020500
     11 C21         1.9080    0.5870    0.8130 c3        1 216     -0.019500
     12 C22         2.0940    1.9150    1.5740 c2        1 216     -0.183000
     13 C23         3.2860    2.1890    2.1960 c1        1 216     -0.220500
     14 C31         0.4810   -0.3240    2.8580 c3        1 216     -0.136500
     15 C32        -0.1310    0.2990    4.1320 c2        1 216     -0.079500
     16 C33        -0.7290   -0.5180    5.0850 c2        1 216     -0.125000
     17 C34        -1.1780    0.0250    6.2830 c1        1 216     -0.129000
     18 C35        -1.0310    1.3810    6.5270 c1        1 216     -0.128750
     19 C36        -0.4340    2.1970    5.5760 c1        1 216     -0.128750
     20 C37         0.0160    1.6530    4.3770 c1        1 216     -0.126000
     21 C61        -0.4800   -0.0060   -2.9750 c3        1 216     -0.136500
     22 C62        -1.0950   -0.9190   -4.0550 c2        1 216     -0.079500
     23 C63        -2.2790   -0.5550   -4.6800 c2        1 216     -0.125000
     24 C64        -2.8170   -1.3640   -5.6760 c1        1 216     -0.129000
     25 C65        -2.1710   -2.5330   -6.0440 c1        1 216     -0.128750
     26 C66        -0.9860   -2.8970   -5.4190 c1        1 216     -0.128750
     27 C67        -0.4480   -2.0900   -4.4240 c1        1 216     -0.126000
     28 C71         1.8920   -0.1240   -1.2470 c3        1 216     -0.019500
     29 C72         2.1450    1.2780   -1.8520 c2        1 216     -0.183000
     30 C73         3.2950    1.5240   -2.5480 c1        1 216     -0.220500
     31 HO4        -1.2750   -2.2590    1.0740 ho        1 216      0.207500
     32 HO5        -2.0450    0.4040   -1.4240 ho        1 216      0.207500
     33 H3         -0.5610    1.1620    1.7630 h1        1 216      0.115000
     34 H4         -2.4260   -0.2890    1.5260 h1        1 216      0.140500
     35 H5         -2.1120   -1.9400   -1.0010 h1        1 216      0.140500
     36 H6          0.0970   -1.7210   -1.8640 h1        1 216      0.115000
     37 H211        2.2980    0.6640   -0.0700 h1        1 216      0.094750
     38 H212        2.3520   -0.1350    1.3030 h1        1 216      0.094750
     39 H22         1.3670    2.5580    1.6130 ha        1 216      0.146500
     40 H231        4.0200    1.5400    2.1570 DU        1 216      0.109500
     41 H232        3.4050    3.0440    2.6860 ha        1 216      0.118000
     42 H311        1.4350   -0.1080    2.8140 hc        1 216      0.108250
     43 H312        0.3670   -1.2960    2.8830 hc        1 216      0.108250
     44 H33        -0.8330   -1.4750    4.9130 ha        1 216      0.143000
     45 H34        -1.5990   -0.5490    6.9540 ha        1 216      0.132500
     46 H35        -1.3500    1.7660    7.3780 ha        1 216      0.131250
     47 H36        -0.3310    3.1420    5.7460 ha        1 216      0.131250
     48 H37         0.4340    2.2260    3.7100 ha        1 216      0.132000
     49 H611       -1.0810    0.7430   -2.8000 hc        1 216      0.108250
     50 H612        0.3880    0.3370   -3.2900 hc        1 216      0.108250
     51 H63        -2.7370    0.2730   -4.4200 ha        1 216      0.143000
     52 H64        -3.6540   -1.1060   -6.1180 ha        1 216      0.132500
     53 H65        -2.5510   -3.1060   -6.7490 ha        1 216      0.131250
     54 H66        -0.5350   -3.7150   -5.6760 ha        1 216      0.131250
     55 H67         0.3770   -2.3440   -3.9880 ha        1 216      0.132000
     56 H711        2.1710   -0.8070   -1.8840 h1        1 216      0.094750
     57 H712        2.4030   -0.2200   -0.4240 h1        1 216      0.094750
     58 H72         1.4800    1.9900   -1.7350 ha        1 216      0.146500
     59 H731        3.9580    0.8130   -2.6640 DU        1 216      0.109500
     60 H732        3.4550    2.4090   -2.9300 ha        1 216      0.118000
@<TRIPOS>BOND
     1    1    6 1   
     2    2    8 1   
     3    2   31 1   
     4    3    9 1   
     5    3   32 1   
     6    4    6 1   
     7    4    7 1   
     8    4   11 1   
     9    5    6 1   
    10    5   10 1   
    11    5   28 1   
    12    7    8 1   
    13    7   14 1   
    14    7   33 1   
    15    8    9 1   
    16    8   34 1   
    17    9   10 1   
    18    9   35 1   
    19   10   21 1   
    20   10   36 1   
    21   11   12 1   
    22   11   37 1   
    23   11   38 1   
    24   12   13 1   
    25   12   39 1   
    26   13   41 1   
    27   14   15 1   
    28   14   42 1   
    29   14   43 1   
    30   15   16 1   
    31   15   20 1   
    32   16   17 1   
    33   16   44 1   
    34   17   45 1   
    35   18   19 1   
    36   18   46 1   
    37   19   47 1   
    38   20   48 1   
    39   21   22 1   
    40   21   49 1   
    41   21   50 1   
    42   22   23 1   
    43   22   27 1   
    44   23   24 1   
    45   23   51 1   
    46   24   52 1   
    47   25   26 1   
    48   25   53 1   
    49   26   54 1   
    50   27   55 1   
    51   28   29 1   
    52   28   56 1   
    53   28   57 1   
    54   29   30 1   
    55   29   58 1   
    56   30   60 1   
@<TRIPOS>SUBSTRUCTURE
     1 216         1 TEMP              0 ****  ****    0 ROOT
