@<TRIPOS>MOLECULE
217
   20    19     1     0     0
SMALL
bcc


@<TRIPOS>ATOM
      1 C1          2.2310    0.4500    0.3840 c3        1 217      0.096400
      2 C2          1.0020   -0.3740   -0.0280 c3        1 217      0.135100
      3 C3         -0.2830    0.3630    0.3260 c3        1 217     -0.106400
      4 C4         -1.4970   -0.3630   -0.2170 c3        1 217     -0.052200
      5 C5         -2.7600    0.2680    0.2370 c2        1 217     -0.165200
      6 C6         -3.7890    0.5310   -0.5640 c2        1 217     -0.222000
      7 O1          2.3150    1.5480   -0.5080 oh        1 217     -0.596800
      8 O2          1.0740   -1.6540    0.5770 oh        1 217     -0.593800
      9 H11         3.1510   -0.1890    0.3110 h1        1 217      0.028700
     10 H12         2.1220    0.8190    1.4380 h1        1 217      0.028700
     11 H2          1.0440   -0.5860   -1.1330 h1        1 217      0.092700
     12 H31        -0.3640    0.4620    1.4400 hc        1 217      0.054200
     13 H32        -0.2240    1.3970   -0.1050 hc        1 217      0.054200
     14 H41        -1.4460   -0.3880   -1.3380 hc        1 217      0.054200
     15 H42        -1.4710   -1.4310    0.1380 hc        1 217      0.054200
     16 H5         -2.8040    0.5010    1.3140 ha        1 217      0.116000
     17 H61        -3.7760    0.3150   -1.6410 ha        1 217      0.111500
     18 H62        -4.7180    0.9830   -0.1940 ha        1 217      0.111500
     19 HO1         3.1380    2.0060   -0.3010 ho        1 217      0.403000
     20 HO2         0.9230   -1.5350    1.5230 ho        1 217      0.396000
@<TRIPOS>BOND
     1    1    2 1   
     2    1    7 1   
     3    1    9 1   
     4    1   10 1   
     5    2    3 1   
     6    2    8 1   
     7    2   11 1   
     8    3    4 1   
     9    3   12 1   
    10    3   13 1   
    11    4    5 1   
    12    4   14 1   
    13    4   15 1   
    14    5    6 2   
    15    5   16 1   
    16    6   17 1   
    17    6   18 1   
    18    7   19 1   
    19    8   20 1   
@<TRIPOS>SUBSTRUCTURE
     1 217         1 TEMP              0 ****  ****    0 ROOT
