@<TRIPOS>MOLECULE
217
   20    19     1     0     0
SMALL
bcc


@<TRIPOS>ATOM
      1 C1          0.0180   -0.0590   -0.0350 c3        1 217      0.090400
      2 C2          1.5510   -0.0140   -0.0160 c3        1 217      0.144100
      3 C3          2.0590   -0.0170    1.4210 c3        1 217     -0.073400
      4 C4          3.5580   -0.2400    1.4660 c3        1 217     -0.051200
      5 C5          4.0770   -0.1670    2.8530 c2        1 217     -0.163200
      6 C6          4.9130   -1.0560    3.3820 c2        1 217     -0.227000
      7 O1         -0.3620   -0.0270   -1.4020 oh        1 217     -0.612800
      8 O2          2.0170    1.1770   -0.6320 oh        1 217     -0.602800
      9 H11        -0.3520   -1.0030    0.4450 h1        1 217      0.034700
     10 H12        -0.4030    0.8290    0.5060 h1        1 217      0.034700
     11 H2          1.9510   -0.9030   -0.5810 h1        1 217      0.046700
     12 H31         1.8080    0.9650    1.9010 hc        1 217      0.050700
     13 H32         1.5330   -0.8270    1.9880 hc        1 217      0.050700
     14 H41         3.8040   -1.2320    1.0000 hc        1 217      0.056200
     15 H42         4.0590    0.5530    0.8440 hc        1 217      0.056200
     16 H5          3.7310    0.7050    3.4330 ha        1 217      0.119000
     17 H61         5.2750   -1.9350    2.8320 ha        1 217      0.110500
     18 H62         5.2950   -0.9630    4.4070 ha        1 217      0.110500
     19 HO1        -1.3230    0.0490   -1.4230 ho        1 217      0.408000
     20 HO2         1.6150    1.2070   -1.5100 ho        1 217      0.417000
@<TRIPOS>BOND
     1    1    2 1   
     2    1    7 1   
     3    1    9 1   
     4    1   10 1   
     5    2    3 1   
     6    2    8 1   
     7    2   11 1   
     8    3    4 1   
     9    3   12 1   
    10    3   13 1   
    11    4    5 1   
    12    4   14 1   
    13    4   15 1   
    14    5    6 2   
    15    5   16 1   
    16    6   17 1   
    17    6   18 1   
    18    7   19 1   
    19    8   20 1   
@<TRIPOS>SUBSTRUCTURE
     1 217         1 TEMP              0 ****  ****    0 ROOT
