@<TRIPOS>MOLECULE
217
   20    19     1     0     0
SMALL
bcc


@<TRIPOS>ATOM
      1 C1          0.0250   -0.0590   -0.0500 c3        1 217      0.090400
      2 C2          1.5590   -0.0250   -0.0220 c3        1 217      0.144100
      3 C3          2.0580   -0.0090    1.4170 c3        1 217     -0.073400
      4 C4          3.5540   -0.2430    1.4760 c3        1 217     -0.051200
      5 C5          4.0650   -0.1520    2.8650 c2        1 217     -0.163200
      6 C6          4.8900   -1.0410    3.4140 c2        1 217     -0.227000
      7 O1         -0.3450   -0.0450   -1.4200 oh        1 217     -0.612800
      8 O2          2.0370    1.1540   -0.6530 oh        1 217     -0.602800
      9 H11        -0.3930    0.8400    0.4750 h1        1 217      0.034700
     10 H12        -0.3530   -0.9930    0.4410 h1        1 217      0.034700
     11 H2          1.9560   -0.9240   -0.5710 h1        1 217      0.046700
     12 H31         1.8120    0.9820    1.8810 hc        1 217      0.050700
     13 H32         1.5220   -0.8070    1.9930 hc        1 217      0.050700
     14 H41         4.0660    0.5360    0.8450 hc        1 217      0.056200
     15 H42         3.7970   -1.2440    1.0270 hc        1 217      0.056200
     16 H5          3.7230    0.7320    3.4290 ha        1 217      0.119000
     17 H61         5.2480   -1.9310    2.8800 ha        1 217      0.110500
     18 H62         5.2660   -0.9350    4.4390 ha        1 217      0.110500
     19 HO1        -1.3050    0.0370   -1.4490 ho        1 217      0.408000
     20 HO2         1.6410    1.1740   -1.5340 ho        1 217      0.417000
@<TRIPOS>BOND
     1    1    2 1   
     2    1    7 1   
     3    1    9 1   
     4    1   10 1   
     5    2    3 1   
     6    2    8 1   
     7    2   11 1   
     8    3    4 1   
     9    3   12 1   
    10    3   13 1   
    11    4    5 1   
    12    4   14 1   
    13    4   15 1   
    14    5    6 2   
    15    5   16 1   
    16    6   17 1   
    17    6   18 1   
    18    7   19 1   
    19    8   20 1   
@<TRIPOS>SUBSTRUCTURE
     1 217         1 TEMP              0 ****  ****    0 ROOT
