@<TRIPOS>MOLECULE
217
   20    18     1     0     0
SMALL
bcc


@<TRIPOS>ATOM
      1 C1         -2.2580    0.2200   -1.0250 c3        1 217     -0.060000
      2 C2         -0.7460    0.2200   -1.0250 c3        1 217      0.033000
      3 C3         -0.2430    0.2200    0.4000 c3        1 217     -0.152000
      4 C4          1.1710   -0.3190    0.4350 c3        1 217     -0.134000
      5 C5          1.6810   -0.3020    1.8590 c2        1 217     -0.159000
      6 C6          2.9070   -0.7860    2.1410 c1        1 217     -0.227000
      7 O1         -2.7280    0.2940   -2.3530 oh        1 217     -0.340000
      8 O2         -0.2770    1.3700   -1.6890 oh        1 217     -0.330000
      9 H11        -2.5840   -0.6010   -0.6100 h1        1 217      0.074000
     10 H12        -2.5840    0.9910   -0.5220 h1        1 217      0.074000
     11 H2         -0.4210   -0.5770   -1.4860 h1        1 217      0.086000
     12 H31        -0.2520    1.1320    0.7480 hc        1 217      0.090000
     13 H32        -0.8200   -0.3440    0.9490 hc        1 217      0.090000
     14 H41         1.7460    0.2380   -0.1230 hc        1 217      0.095500
     15 H42         1.1780   -1.2350    0.0980 hc        1 217      0.095500
     16 H5          1.1230    0.0590    2.5740 ha        1 217      0.119000
     17 H61         3.4650   -1.1470    1.4270 DU        1 217      0.110000
     18 H62         3.2370   -0.7750    3.0600 ha        1 217      0.111000
     19 HO1        -3.6100    0.1940   -2.3610 ho        1 217      0.207000
     20 HO2         0.0160    1.1460   -2.4960 ho        1 217      0.216000
@<TRIPOS>BOND
     1    1    2 1   
     2    1    7 1   
     3    1    9 1   
     4    1   10 1   
     5    2    3 1   
     6    2    8 1   
     7    2   11 1   
     8    3    4 1   
     9    3   12 1   
    10    3   13 1   
    11    4    5 1   
    12    4   14 1   
    13    4   15 1   
    14    5    6 1   
    15    5   16 1   
    16    6   18 1   
    17    7   19 1   
    18    8   20 1   
@<TRIPOS>SUBSTRUCTURE
     1 217         1 TEMP              0 ****  ****    0 ROOT
