@<TRIPOS>MOLECULE
218
   39    40     1     0     0
SMALL
bcc


@<TRIPOS>ATOM
      1 CM2        -0.1950   -0.2080   -0.2410 c3        1 218     -0.163400
      2 C2A         1.2840    0.0450   -0.3440 ca        1 218      0.756300
      3 N1A         1.7480    1.3280   -0.1360 nb        1 218     -0.626000
      4 C6A         3.0600    1.5400   -0.2300 ca        1 218      0.484200
      5 C5A         4.0100    0.5180   -0.5290 ca        1 218     -0.360900
      6 C7A         5.4780    0.7630   -0.6530 c3        1 218      0.058600
      7 N3          5.9540    2.1020   -0.3010 na        1 218     -0.002100
      8 C2          6.1840    2.9950   -1.3250 ca        1 218     -0.049300
      9 C1          6.7310    4.2500   -1.0840 ca        1 218     -0.123000
     10 C6          7.0740    4.6090    0.2260 ca        1 218      0.000000
     11 C5          6.8410    3.7130    1.2750 ca        1 218     -0.066300
     12 CM6         7.2490    4.0940    2.6570 c3        1 218     -0.065100
     13 CM7         8.7030    3.7300    2.9500 c3        1 218      0.133400
     14 OM7         8.8190    2.3170    2.8960 oh        1 218     -0.641800
     15 C4          6.2450    2.4500    1.0050 ca        1 218      0.066400
     16 CM4         5.9500    1.5330    2.1410 c3        1 218     -0.106800
     17 C4A         3.4360   -0.7600   -0.7340 ca        1 218      0.529200
     18 N4A         4.2740   -1.9350   -1.0740 n4        1 218     -0.834300
     19 N3A         2.1060   -1.0100   -0.6450 nb        1 218     -0.688000
     20 HM21       -0.4450   -1.2860   -0.4030 hc        1 218      0.108367
     21 HM22       -0.5550    0.1040    0.7750 hc        1 218      0.108367
     22 HM23       -0.7280    0.4120   -1.0090 hc        1 218      0.108367
     23 H6A         3.3760    2.5900   -0.0600 h4        1 218      0.063100
     24 H7A1        5.7800    0.5740   -1.7300 h1        1 218      0.095200
     25 H7A2        6.0470    0.0260   -0.0080 h1        1 218      0.095200
     26 H2          5.9250    2.6710   -2.3540 h4        1 218      0.204000
     27 H1          6.8980    4.9440   -1.9300 ha        1 218      0.214000
     28 H6          7.5320    5.5980    0.4280 ha        1 218      0.204000
     29 HM61        6.5880    3.6070    3.4230 hc        1 218      0.092200
     30 HM62        7.1410    5.2070    2.7830 hc        1 218      0.092200
     31 HM71        9.3870    4.1880    2.1860 h1        1 218      0.060200
     32 HM72        8.9750    4.1130    3.9710 h1        1 218      0.060200
     33 HOM7        9.6440    2.0820    3.3410 ho        1 218      0.440000
     34 HM41        5.3040    2.0680    2.8880 hc        1 218      0.102367
     35 HM42        6.9200    1.2660    2.6520 hc        1 218      0.102367
     36 HM43        5.4210    0.5940    1.8530 hc        1 218      0.102367
     37 H4A1        4.9060   -2.1410   -0.2910 hn        1 218      0.483467
     38 H4A2        4.8180   -1.7330   -1.9200 hn        1 218      0.483467
     39 H4A3        3.6810   -2.7670   -1.2490 hn        1 218      0.483467
@<TRIPOS>BOND
     1    1    2 1   
     2    1   20 1   
     3    1   21 1   
     4    1   22 1   
     5    2    3 ar  
     6    2   19 ar  
     7    3    4 ar  
     8    4    5 ar  
     9    4   23 1   
    10    5    6 1   
    11    5   17 ar  
    12    6    7 1   
    13    6   24 1   
    14    6   25 1   
    15    7    8 1   
    16    7   15 2   
    17    8    9 ar  
    18    8   26 1   
    19    9   10 ar  
    20    9   27 1   
    21   10   11 ar  
    22   10   28 1   
    23   11   12 1   
    24   11   15 ar  
    25   12   13 1   
    26   12   29 1   
    27   12   30 1   
    28   13   14 1   
    29   13   31 1   
    30   13   32 1   
    31   14   33 1   
    32   15   16 1   
    33   16   34 1   
    34   16   35 1   
    35   16   36 1   
    36   17   18 1   
    37   17   19 ar  
    38   18   37 1   
    39   18   38 1   
    40   18   39 1   
@<TRIPOS>SUBSTRUCTURE
     1 218         1 TEMP              0 ****  ****    0 ROOT
