@<TRIPOS>MOLECULE
218
   38    39     1     0     0
SMALL
bcc


@<TRIPOS>ATOM
      1 CM2         4.8180    2.0410    1.1780 c3        1 218     -0.149400
      2 C2A         3.7320    1.3080    0.4310 ca        1 218      0.723300
      3 N1A         3.1200    1.9790   -0.6100 nb        1 218     -0.704000
      4 C6A         2.1540    1.3270   -1.2580 ca        1 218      0.485200
      5 C5A         1.7430    0.0130   -0.9290 ca        1 218     -0.455900
      6 C7A         0.6470   -0.6410   -1.6840 c3        1 218      0.083600
      7 N3         -0.5160   -1.0310   -0.8570 na        1 218      0.032900
      8 C2         -0.7330   -2.3680   -0.6400 ca        1 218     -0.031300
      9 C1         -1.7960   -2.8240    0.1360 ca        1 218     -0.141000
     10 C6         -2.6640   -1.8930    0.7130 ca        1 218     -0.023000
     11 C5         -2.4620   -0.5270    0.4920 ca        1 218     -0.085300
     12 CM6        -3.4080    0.4490    1.1010 c3        1 218     -0.087100
     13 CM7        -4.6250    0.7130    0.2120 c3        1 218      0.129400
     14 OM7        -4.3400    1.7020   -0.7550 oh        1 218     -0.603800
     15 C4         -1.3670   -0.0990   -0.3080 ca        1 218      0.067400
     16 CM4        -1.1830    1.3630   -0.5380 c3        1 218     -0.101800
     17 C4A         2.4550   -0.6300    0.1310 ca        1 218      0.680200
     18 N4A         2.0890   -1.9270    0.5310 nh        1 218     -0.924500
     19 N3A         3.4450    0.0340    0.8140 nb        1 218     -0.741000
     20 HM21        4.4230    3.0220    1.5440 hc        1 218      0.081367
     21 HM22        5.1880    1.4480    2.0500 hc        1 218      0.081367
     22 HM23        5.6720    2.2360    0.4820 hc        1 218      0.081367
     23 H6A         1.6820    1.8750   -2.0980 h4        1 218      0.035100
     24 H7A1        0.2640    0.0420   -2.5000 h1        1 218      0.093700
     25 H7A2        1.0350   -1.5780   -2.1840 h1        1 218      0.093700
     26 H2         -0.0280   -3.0810   -1.1130 h4        1 218      0.193000
     27 H1         -1.9360   -3.9070    0.2850 ha        1 218      0.193000
     28 H6         -3.5080   -2.2360    1.3380 ha        1 218      0.183000
     29 HM61       -3.7690    0.0350    2.0830 hc        1 218      0.079700
     30 HM62       -2.8910    1.4210    1.3230 hc        1 218      0.079700
     31 HM71       -4.8970   -0.2060   -0.3750 h1        1 218      0.065700
     32 HM72       -5.4950    1.0110    0.8550 h1        1 218      0.065700
     33 HOM7       -4.5670    2.5600   -0.3760 ho        1 218      0.417000
     34 HM41       -0.9080    1.8520    0.4330 hc        1 218      0.097033
     35 HM42       -0.3920    1.6130   -1.2850 hc        1 218      0.097033
     36 HM43       -2.1570    1.7960   -0.8990 hc        1 218      0.097033
     37 H4A1        2.0570   -2.5650   -0.2370 hn        1 218      0.408300
     38 H4A2        2.6150   -2.2910    1.3020 hn        1 218      0.408300
@<TRIPOS>BOND
     1    1    2 1   
     2    1   20 1   
     3    1   21 1   
     4    1   22 1   
     5    2    3 ar  
     6    2   19 ar  
     7    3    4 ar  
     8    4    5 ar  
     9    4   23 1   
    10    5    6 1   
    11    5   17 ar  
    12    6    7 1   
    13    6   24 1   
    14    6   25 1   
    15    7    8 1   
    16    7   15 2   
    17    8    9 ar  
    18    8   26 1   
    19    9   10 ar  
    20    9   27 1   
    21   10   11 ar  
    22   10   28 1   
    23   11   12 1   
    24   11   15 ar  
    25   12   13 1   
    26   12   29 1   
    27   12   30 1   
    28   13   14 1   
    29   13   31 1   
    30   13   32 1   
    31   14   33 1   
    32   15   16 1   
    33   16   34 1   
    34   16   35 1   
    35   16   36 1   
    36   17   18 1   
    37   17   19 ar  
    38   18   37 1   
    39   18   38 1   
@<TRIPOS>SUBSTRUCTURE
     1 218         1 TEMP              0 ****  ****    0 ROOT
