@<TRIPOS>MOLECULE
218
   38    39     1     0     0
SMALL
bcc


@<TRIPOS>ATOM
      1 CM2        -0.0610   -0.0110    0.2990 c3        1 218     -0.149400
      2 C2A         1.4440   -0.0480    0.2180 ca        1 218      0.723300
      3 N1A         2.1210   -0.5580    1.3090 nb        1 218     -0.704000
      4 C6A         3.4530   -0.5770    1.2340 ca        1 218      0.486200
      5 C5A         4.1770   -0.1060    0.1120 ca        1 218     -0.455900
      6 C7A         5.6600   -0.1420    0.1090 c3        1 218      0.083600
      7 N3          6.3020    1.1810   -0.0480 na        1 218      0.030900
      8 C2          6.9460    1.4500   -1.2290 ca        1 218     -0.032300
      9 C1          7.5660    2.6740   -1.4670 ca        1 218     -0.142000
     10 C6          7.5290    3.6590   -0.4750 ca        1 218     -0.024000
     11 C5          6.8860    3.3960    0.7370 ca        1 218     -0.084300
     12 CM6         6.8670    4.4520    1.7880 c3        1 218     -0.056100
     13 CM7         8.1430    4.4650    2.6260 c3        1 218      0.134400
     14 OM7         8.1570    3.2880    3.4160 oh        1 218     -0.624800
     15 C4          6.2650    2.1330    0.9470 ca        1 218      0.073400
     16 CM4         5.5990    1.8740    2.2560 c3        1 218     -0.100800
     17 C4A         3.4030    0.3650   -0.9930 ca        1 218      0.680200
     18 N4A         4.0510    0.8710   -2.1340 nh        1 218     -0.924500
     19 N3A         2.0320    0.3990   -0.9250 nb        1 218     -0.741000
     20 HM21       -0.5070    0.4890   -0.5950 hc        1 218      0.081033
     21 HM22       -0.4490   -1.0590    0.3620 hc        1 218      0.081033
     22 HM23       -0.3720    0.5420    1.2210 hc        1 218      0.081033
     23 H6A         3.9800   -1.0000    2.1120 h4        1 218      0.035100
     24 H7A1        6.0480   -0.5920    1.0710 h1        1 218      0.093200
     25 H7A2        6.0230   -0.7950   -0.7400 h1        1 218      0.093200
     26 H2          6.9590    0.6480   -1.9940 h4        1 218      0.192000
     27 H1          8.0740    2.8490   -2.4300 ha        1 218      0.192000
     28 H6          8.0100    4.6380   -0.6480 ha        1 218      0.182000
     29 HM61        5.9830    4.3280    2.4680 hc        1 218      0.083700
     30 HM62        6.7710    5.4570    1.2940 hc        1 218      0.083700
     31 HM71        9.0500    4.4840    1.9640 h1        1 218      0.045700
     32 HM72        8.1420    5.3770    3.2810 h1        1 218      0.045700
     33 HOM7        8.8480    3.4000    4.0800 ho        1 218      0.428000
     34 HM41        4.7000    2.5390    2.3450 hc        1 218      0.098367
     35 HM42        6.3170    2.1260    3.0850 hc        1 218      0.098367
     36 HM43        5.2610    0.8190    2.3970 hc        1 218      0.098367
     37 H4A1        4.7350    0.2370   -2.4940 hn        1 218      0.408300
     38 H4A2        3.4360    1.2100   -2.8490 hn        1 218      0.408300
@<TRIPOS>BOND
     1    1    2 1   
     2    1   20 1   
     3    1   21 1   
     4    1   22 1   
     5    2    3 ar  
     6    2   19 ar  
     7    3    4 ar  
     8    4    5 ar  
     9    4   23 1   
    10    5    6 1   
    11    5   17 ar  
    12    6    7 1   
    13    6   24 1   
    14    6   25 1   
    15    7    8 1   
    16    7   15 2   
    17    8    9 ar  
    18    8   26 1   
    19    9   10 ar  
    20    9   27 1   
    21   10   11 ar  
    22   10   28 1   
    23   11   12 1   
    24   11   15 ar  
    25   12   13 1   
    26   12   29 1   
    27   12   30 1   
    28   13   14 1   
    29   13   31 1   
    30   13   32 1   
    31   14   33 1   
    32   15   16 1   
    33   16   34 1   
    34   16   35 1   
    35   16   36 1   
    36   17   18 1   
    37   17   19 ar  
    38   18   37 1   
    39   18   38 1   
@<TRIPOS>SUBSTRUCTURE
     1 218         1 TEMP              0 ****  ****    0 ROOT
