@<TRIPOS>MOLECULE
218
   38    39     1     0     0
SMALL
bcc


@<TRIPOS>ATOM
      1 CM2        -0.0540   -0.0330    0.3020 c3        1 218     -0.149400
      2 C2A         1.4510   -0.0640    0.2190 ca        1 218      0.723300
      3 N1A         2.1310   -0.5740    1.3080 nb        1 218     -0.704000
      4 C6A         3.4630   -0.5860    1.2310 ca        1 218      0.486200
      5 C5A         4.1840   -0.1100    0.1100 ca        1 218     -0.455900
      6 C7A         5.6670   -0.1390    0.1050 c3        1 218      0.083600
      7 N3          6.3030    1.1870   -0.0500 na        1 218      0.030900
      8 C2          6.9440    1.4610   -1.2310 ca        1 218     -0.032300
      9 C1          7.5590    2.6880   -1.4670 ca        1 218     -0.142000
     10 C6          7.5190    3.6700   -0.4730 ca        1 218     -0.024000
     11 C5          6.8780    3.4020    0.7390 ca        1 218     -0.084300
     12 CM6         6.8570    4.4550    1.7930 c3        1 218     -0.056100
     13 CM7         8.1330    4.4720    2.6280 c3        1 218      0.134400
     14 OM7         8.1530    3.2930    3.4160 oh        1 218     -0.624800
     15 C4          6.2630    2.1360    0.9470 ca        1 218      0.073400
     16 CM4         5.6000    1.8710    2.2560 c3        1 218     -0.100800
     17 C4A         3.4060    0.3600   -0.9940 ca        1 218      0.680200
     18 N4A         4.0510    0.8710   -2.1340 nv        1 218     -0.924500
     19 N3A         2.0350    0.3880   -0.9230 nb        1 218     -0.741000
     20 HM21       -0.4380   -1.0830    0.3690 hc        1 218      0.081033
     21 HM22       -0.3660    0.5210    1.2230 hc        1 218      0.081033
     22 HM23       -0.5040    0.4620   -0.5930 hc        1 218      0.081033
     23 H6A         3.9930   -1.0090    2.1080 h4        1 218      0.035100
     24 H7A1        6.0320   -0.7890   -0.7460 h1        1 218      0.093200
     25 H7A2        6.0590   -0.5890    1.0650 h1        1 218      0.093200
     26 H2          6.9600    0.6610   -1.9980 h4        1 218      0.192000
     27 H1          8.0650    2.8670   -2.4300 ha        1 218      0.192000
     28 H6          7.9950    4.6520   -0.6440 ha        1 218      0.182000
     29 HM61        6.7550    5.4620    1.3000 hc        1 218      0.083700
     30 HM62        5.9740    4.3270    2.4740 hc        1 218      0.083700
     31 HM71        8.1290    5.3830    3.2860 h1        1 218      0.045700
     32 HM72        9.0400    4.4970    1.9660 h1        1 218      0.045700
     33 HOM7        8.8450    3.4070    4.0800 ho        1 218      0.428000
     34 HM41        6.3180    2.1250    3.0840 hc        1 218      0.098367
     35 HM42        5.2670    0.8150    2.3950 hc        1 218      0.098367
     36 HM43        4.6980    2.5320    2.3480 hc        1 218      0.098367
     37 H4A1        3.4340    1.2090   -2.8480 hn        1 218      0.408300
     38 H4A2        4.7370    0.2410   -2.4960 hn        1 218      0.408300
@<TRIPOS>BOND
     1    1    2 1   
     2    1   20 1   
     3    1   21 1   
     4    1   22 1   
     5    2    3 ar  
     6    2   19 ar  
     7    3    4 ar  
     8    4    5 ar  
     9    4   23 1   
    10    5    6 1   
    11    5   17 ar  
    12    6    7 1   
    13    6   24 1   
    14    6   25 1   
    15    7    8 1   
    16    7   15 2   
    17    8    9 ar  
    18    8   26 1   
    19    9   10 ar  
    20    9   27 1   
    21   10   11 ar  
    22   10   28 1   
    23   11   12 1   
    24   11   15 ar  
    25   12   13 1   
    26   12   29 1   
    27   12   30 1   
    28   13   14 1   
    29   13   31 1   
    30   13   32 1   
    31   14   33 1   
    32   15   16 1   
    33   16   34 1   
    34   16   35 1   
    35   16   36 1   
    36   17   18 1   
    37   17   19 ar  
    38   18   37 1   
    39   18   38 1   
@<TRIPOS>SUBSTRUCTURE
     1 218         1 TEMP              0 ****  ****    0 ROOT
