@<TRIPOS>MOLECULE
218
   38    35     1     0     0
SMALL
bcc


@<TRIPOS>ATOM
      1 CM2        -5.4970    1.1920   -1.5920 c3        1 218     -0.174000
      2 C2A        -4.0270    1.0190   -1.5660 c2        1 218      0.112000
      3 N1A        -3.4230    0.5820   -0.4430 n2        1 218     -0.186000
      4 C6A        -2.0870    0.4130   -0.4190 c1        1 218      0.034000
      5 C5A        -1.3490    0.6820   -1.5260 c1        1 218     -0.357000
      6 C7A         0.1020    0.4060   -1.5310 c3        1 218      0.019000
      7 N3          0.6100    0.4610   -0.1700 n3        1 218     -0.044000
      8 C2          0.5920    1.6450    0.5200 c1        1 218      0.003000
      9 C1          1.1570    1.7140    1.7900 c1        1 218     -0.086500
     10 C6          1.7340    0.5920    2.3530 c1        1 218     -0.086500
     11 C5          1.7500   -0.5990    1.6550 c1        1 218     -0.075000
     12 CM6         2.3450   -1.8510    2.3000 c3        1 218     -0.173000
     13 CM7         3.7280   -1.5380    2.8220 c3        1 218     -0.021000
     14 OM7         3.9560   -2.2610    4.0650 oh        1 218     -0.331000
     15 C4          1.1950   -0.6730    0.4030 c2        1 218      0.067000
     16 CM4         1.3030   -1.9620   -0.3970 c3        1 218     -0.230000
     17 C4A        -1.9710    1.1290   -2.6760 c1        1 218      0.178000
     18 N4A        -1.1990    1.2470   -3.9350 n2        1 218     -0.329000
     19 N3A        -3.2790    1.2930   -2.6940 n2        1 218     -0.224000
     20 HM21       -5.8710    0.9030   -0.7400 hc        1 218      0.121333
     21 HM22       -5.8900    0.6360   -2.3400 hc        1 218      0.121333
     22 HM23       -5.7030    2.0970   -1.7330 hc        1 218      0.121333
     23 H6A        -1.6570    0.1010    0.3790 ha        1 218      0.172000
     24 H7A1        0.2690   -0.5330   -1.9240 h1        1 218      0.131000
     25 H7A2        0.5470    1.0530   -2.0570 h1        1 218      0.131000
     26 H2          0.1720    2.4660    0.1090 ha        1 218      0.218000
     27 H1          1.1460    2.5650    2.2910 ha        1 218      0.189000
     28 H6          2.1420    0.6410    3.2720 ha        1 218      0.189000
     29 HM61        2.4030   -2.5620    1.6350 hc        1 218      0.118500
     30 HM62        1.7500   -2.1520    3.0720 hc        1 218      0.118500
     31 HM71        4.4130   -1.8170    2.1410 h1        1 218      0.105000
     32 HM72        3.8040   -0.5940    2.9850 h1        1 218      0.105000
     33 HOM7        4.8030   -2.1170    4.3410 ho        1 218      0.216000
     34 HM41        0.3710   -2.2800   -0.6620 hc        1 218      0.135333
     35 HM42        1.8630   -1.7920   -1.2480 hc        1 218      0.135333
     36 HM43        1.7520   -2.6700    0.1670 hc        1 218      0.135333
     37 H4A1       -1.6350    1.2980   -4.7350 hn        1 218      0.221500
     38 H4A2       -0.3180    1.2660   -3.9120 hn        1 218      0.221500
@<TRIPOS>BOND
     1    1    2 1   
     2    1   20 1   
     3    1   21 1   
     4    1   22 1   
     5    2    3 1   
     6    2   19 1   
     7    3    4 1   
     8    4   23 1   
     9    5    6 1   
    10    5   17 1   
    11    6    7 1   
    12    6   24 1   
    13    6   25 1   
    14    7    8 1   
    15    7   15 1   
    16    8   26 1   
    17    9   10 1   
    18    9   27 1   
    19   10   28 1   
    20   11   12 1   
    21   11   15 1   
    22   12   13 1   
    23   12   29 1   
    24   12   30 1   
    25   13   14 1   
    26   13   31 1   
    27   13   32 1   
    28   14   33 1   
    29   15   16 1   
    30   16   34 1   
    31   16   35 1   
    32   16   36 1   
    33   17   19 1   
    34   18   37 1   
    35   18   38 1   
@<TRIPOS>SUBSTRUCTURE
     1 218         1 TEMP              0 ****  ****    0 ROOT
