@<TRIPOS>MOLECULE
219
   38    39     1     0     0
SMALL
bcc


@<TRIPOS>ATOM
      1 C1         -1.3020   -0.0060    0.9780 ca        1 219     -0.092000
      2 C2         -0.2300    0.8810    0.8330 ca        1 219     -0.208000
      3 C3          0.7290    0.9670    1.8340 ca        1 219     -0.059000
      4 C4          0.6430    0.1780    2.9870 ca        1 219     -0.258600
      5 C5         -0.4470   -0.7140    3.1400 ca        1 219      0.277100
      6 C6         -1.4210   -0.7910    2.1140 ca        1 219     -0.198000
      7 C7          1.6910    0.2480    4.0190 c         1 219      0.579500
      8 O8         -0.6430   -1.3820    4.2860 os        1 219     -0.496500
      9 P9         -0.0260   -2.9290    4.5860 p5        1 219      1.438800
     10 O10        -0.7270   -3.0700    6.0590 os        1 219     -0.562200
     11 O11         1.4200   -2.7470    4.7660 o         1 219     -0.808500
     12 C12        -2.0980   -3.3300    6.0960 c3        1 219      0.190400
     13 O17         2.4990    1.1840    4.0880 o         1 219     -0.596100
     14 O19        -0.7220   -3.8250    3.6500 o         1 219     -0.808500
     15 C21        -2.8570   -2.1650    6.7420 c3        1 219     -0.091700
     16 C24        -2.4590   -2.0110    8.2000 c3        1 219     -0.069900
     17 C25        -3.2360   -0.8950    8.8660 c3        1 219     -0.074900
     18 C26        -4.7300   -1.1110    8.7350 c3        1 219     -0.073400
     19 C27        -5.1340   -1.2780    7.2850 c3        1 219     -0.074900
     20 C28        -4.3550   -2.3920    6.6170 c3        1 219     -0.069900
     21 H1         -2.0580   -0.0810    0.1820 ha        1 219      0.111000
     22 H2         -0.1480    1.5020   -0.0680 ha        1 219      0.113000
     23 H3          1.5790    1.6610    1.7380 ha        1 219      0.133000
     24 H6         -2.2570   -1.4950    2.2310 ha        1 219      0.148000
     25 H7          1.7140   -0.6220    4.7230 h4        1 219      0.076200
     26 H12        -2.2570   -4.2580    6.7170 h1        1 219      0.032700
     27 H12A       -2.4870   -3.5120    5.0540 h1        1 219      0.032700
     28 H21        -2.5840   -1.2180    6.1960 hc        1 219      0.071700
     29 H24        -1.3580   -1.8040    8.2510 hc        1 219      0.040950
     30 H24A       -2.6460   -2.9740    8.7430 hc        1 219      0.040950
     31 H25        -2.9590   -0.8370    9.9510 hc        1 219      0.030700
     32 H25A       -2.9580    0.0850    8.3950 hc        1 219      0.030700
     33 H26        -5.2790   -0.2400    9.1810 hc        1 219      0.025200
     34 H26A       -5.0260   -2.0260    9.3120 hc        1 219      0.025200
     35 H27        -6.2320   -1.4980    7.2240 hc        1 219      0.030700
     36 H27A       -4.9520   -0.3170    6.7350 hc        1 219      0.030700
     37 H28        -4.6360   -2.4490    5.5330 hc        1 219      0.040950
     38 H28A       -4.6250   -3.3740    7.0870 hc        1 219      0.040950
@<TRIPOS>BOND
     1    1    2 ar  
     2    1    6 ar  
     3    1   21 1   
     4    2    3 ar  
     5    2   22 1   
     6    3    4 ar  
     7    3   23 1   
     8    4    5 ar  
     9    4    7 1   
    10    5    6 ar  
    11    5    8 1   
    12    6   24 1   
    13    7   13 2   
    14    7   25 1   
    15    8    9 1   
    16    9   10 1   
    17    9   11 1   
    18    9   14 1   
    19   10   12 1   
    20   12   15 1   
    21   12   26 1   
    22   12   27 1   
    23   15   16 1   
    24   15   20 1   
    25   15   28 1   
    26   16   17 1   
    27   16   29 1   
    28   16   30 1   
    29   17   18 1   
    30   17   31 1   
    31   17   32 1   
    32   18   19 1   
    33   18   33 1   
    34   18   34 1   
    35   19   20 1   
    36   19   35 1   
    37   19   36 1   
    38   20   37 1   
    39   20   38 1   
@<TRIPOS>SUBSTRUCTURE
     1 219         1 TEMP              0 ****  ****    0 ROOT
