@<TRIPOS>MOLECULE
219
   38    36     1     0     0
SMALL
bcc


@<TRIPOS>ATOM
      1 C1          3.4600   -0.4500    4.5070 c1        1 219     -0.080250
      2 C2          2.7090   -1.4710    5.0640 c1        1 219     -0.080250
      3 C3          1.5000   -1.8350    4.4890 c1        1 219     -0.080250
      4 C4          1.0450   -1.1790    3.3600 cg        1 219     -0.212200
      5 C5          1.7960   -0.1580    2.8030 c1        1 219      0.262600
      6 C6          3.0060    0.2060    3.3790 c1        1 219     -0.080250
      7 C7         -0.2530   -1.5980    2.7170 c         1 219      0.524100
      8 O8          1.2720    0.5960    1.7070 os        1 219     -0.482000
      9 P9          1.8930    0.3600    0.2540 p5        1 219      1.439800
     10 O10         1.1220    1.2900   -0.8220 os        1 219     -0.567200
     11 O11         3.3520    0.7150    0.2700 o         1 219     -0.809500
     12 C12         0.3270    0.6440   -1.8530 c3        1 219      0.193400
     13 O17        -0.6550   -1.0170    1.7170 o         1 219     -0.596100
     14 O19         1.7330   -1.0850   -0.1310 o         1 219     -0.809500
     15 C21        -0.7980    1.5740   -2.2900 c3        1 219     -0.083700
     16 C24        -1.9670    1.4090   -1.3450 c3        1 219     -0.072900
     17 C25        -2.6450    0.0560   -1.4890 c3        1 219     -0.076900
     18 C26        -3.0170   -0.2610   -2.9340 c3        1 219     -0.072400
     19 C27        -1.8440   -0.0940   -3.8860 c3        1 219     -0.076900
     20 C28        -1.1720    1.2540   -3.7450 c3        1 219     -0.072900
     21 H1          4.3070   -0.1940    4.9110 ha        1 219      0.069500
     22 H2          3.0030   -1.8970    5.8910 ha        1 219      0.069500
     23 H3          0.9760   -2.5470    4.8770 ha        1 219      0.069500
     24 H6          3.5370    0.9260    2.9870 ha        1 219      0.069500
     25 H7         -0.7330   -2.3770    3.0530 h4        1 219      0.075200
     26 H121        0.8920    0.4390   -2.6160 h1        1 219      0.031700
     27 H122       -0.0550   -0.1870   -1.4970 h1        1 219      0.031700
     28 H21        -0.4840    2.4900   -2.2420 hc        1 219      0.062700
     29 H241       -1.6480    1.5060   -0.4290 hc        1 219      0.038450
     30 H242       -2.6230    2.1120   -1.5260 hc        1 219      0.038450
     31 H251       -3.4500    0.0500   -0.9490 hc        1 219      0.037450
     32 H252       -2.0300   -0.6470   -1.1560 hc        1 219      0.037450
     33 H261       -3.3370   -1.1910   -2.9830 hc        1 219      0.025200
     34 H262       -3.7370    0.3350   -3.2120 hc        1 219      0.025200
     35 H271       -1.1930   -0.7880   -3.7050 hc        1 219      0.037450
     36 H272       -2.1640   -0.1920   -4.8010 hc        1 219      0.037450
     37 H281       -0.3450    1.2600   -4.2990 hc        1 219      0.038450
     38 H282       -1.7810    1.9480   -4.0760 hc        1 219      0.038450
@<TRIPOS>BOND
     1    1    6 3   
     2    1   21 1   
     3    2    3 3   
     4    2   22 1   
     5    3   23 1   
     6    4    5 3   
     7    4    7 1   
     8    5    8 1   
     9    6   24 1   
    10    7   13 2   
    11    7   25 1   
    12    8    9 1   
    13    9   10 1   
    14    9   11 1   
    15    9   14 1   
    16   10   12 1   
    17   12   15 1   
    18   12   26 1   
    19   12   27 1   
    20   15   16 1   
    21   15   20 1   
    22   15   28 1   
    23   16   17 1   
    24   16   29 1   
    25   16   30 1   
    26   17   18 1   
    27   17   31 1   
    28   17   32 1   
    29   18   19 1   
    30   18   33 1   
    31   18   34 1   
    32   19   20 1   
    33   19   35 1   
    34   19   36 1   
    35   20   37 1   
    36   20   38 1   
@<TRIPOS>SUBSTRUCTURE
     1 219         1 TEMP              0 ****  ****    0 ROOT
