@<TRIPOS>MOLECULE
219
   38    39     1     0     0
SMALL
bcc


@<TRIPOS>ATOM
      1 C1         17.8150   25.1690   20.9290 ca        1 219     -0.074000
      2 C2         18.1270   23.9790   20.2570 ca        1 219     -0.225000
      3 C3         17.6480   23.7800   18.9720 ca        1 219     -0.049000
      4 C4         16.8570   24.7470   18.3350 ca        1 219     -0.285600
      5 C5         16.5400   25.9570   19.0120 ca        1 219      0.318100
      6 C6         17.0360   26.1420   20.3310 ca        1 219     -0.233000
      7 C7         16.3510   24.5100   16.9840 c         1 219      0.594500
      8 O8         15.7300   26.8110   18.3860 os        1 219     -0.494500
      9 P9         15.6280   28.4980   18.4430 p5        1 219      1.443800
     10 O10        16.8900   28.7910   17.4380 os        1 219     -0.570200
     11 O11        16.0250   28.8950   19.8000 o         1 219     -0.804000
     12 C12        16.5790   28.5990   16.0870 c3        1 219      0.177400
     13 O17        16.5750   23.4790   16.3330 o         1 219     -0.601100
     14 O19        14.3800   28.7980   17.7300 o         1 219     -0.804000
     15 C21        17.7300   28.9650   15.1540 c3        1 219     -0.058700
     16 C24        18.9660   28.1040   15.3610 c3        1 219     -0.056400
     17 C25        19.8000   28.5310   16.5500 c3        1 219     -0.077400
     18 C26        20.1680   29.9980   16.4650 c3        1 219     -0.064400
     19 C27        18.9140   30.8420   16.3780 c3        1 219     -0.077400
     20 C28        18.0680   30.4480   15.1860 c3        1 219     -0.056400
     21 H1         18.1940   25.3300   21.9490 ha        1 219      0.114000
     22 H2         18.7450   23.2160   20.7460 ha        1 219      0.113000
     23 H3         17.8790   22.8530   18.4230 ha        1 219      0.131000
     24 H6         16.8010   27.0890   20.8510 ha        1 219      0.191000
     25 H7         15.7300   25.3330   16.5580 h4        1 219      0.021200
     26 H121       16.3120   27.5120   15.9470 h1        1 219      0.031200
     27 H122       15.6740   29.2230   15.8360 h1        1 219      0.031200
     28 H21        17.3400   28.7390   14.1160 hc        1 219      0.025700
     29 H241       18.6500   27.0370   15.4980 hc        1 219      0.025200
     30 H242       19.5960   28.1550   14.4330 hc        1 219      0.025200
     31 H251       19.2110   28.3540   17.4900 hc        1 219      0.049450
     32 H252       20.7300   27.9080   16.5980 hc        1 219      0.049450
     33 H261       20.7590   30.2920   17.3700 hc        1 219      0.020200
     34 H262       20.8140   30.1790   15.5660 hc        1 219      0.020200
     35 H271       18.3110   30.7000   17.3160 hc        1 219      0.049450
     36 H272       19.1890   31.9260   16.3000 hc        1 219      0.049450
     37 H281       18.6190   30.7090   14.2430 hc        1 219      0.025200
     38 H282       17.1160   31.0410   15.1980 hc        1 219      0.025200
@<TRIPOS>BOND
     1    1    2 ar  
     2    1    6 ar  
     3    1   21 1   
     4    2    3 ar  
     5    2   22 1   
     6    3    4 ar  
     7    3   23 1   
     8    4    5 ar  
     9    4    7 1   
    10    5    6 ar  
    11    5    8 1   
    12    6   24 1   
    13    7   13 2   
    14    7   25 1   
    15    8    9 1   
    16    9   10 1   
    17    9   11 1   
    18    9   14 1   
    19   10   12 1   
    20   12   15 1   
    21   12   26 1   
    22   12   27 1   
    23   15   16 1   
    24   15   20 1   
    25   15   28 1   
    26   16   17 1   
    27   16   29 1   
    28   16   30 1   
    29   17   18 1   
    30   17   31 1   
    31   17   32 1   
    32   18   19 1   
    33   18   33 1   
    34   18   34 1   
    35   19   20 1   
    36   19   35 1   
    37   19   36 1   
    38   20   37 1   
    39   20   38 1   
@<TRIPOS>SUBSTRUCTURE
     1 219         1 TEMP              0 ****  ****    0 ROOT
