@<TRIPOS>MOLECULE
219
   38    39     1     0     0
SMALL
bcc


@<TRIPOS>ATOM
      1 C1          0.5000    0.5770    0.0070 ca        1 219     -0.074000
      2 C2          1.8710    0.2990   -0.0580 ca        1 219     -0.225000
      3 C3          2.5460   -0.0690    1.0950 ca        1 219     -0.049000
      4 C4          1.8780   -0.1670    2.3240 ca        1 219     -0.285600
      5 C5          0.4850    0.1110    2.3950 ca        1 219      0.318100
      6 C6         -0.1890    0.4920    1.2030 ca        1 219     -0.233000
      7 C7          2.6110   -0.5450    3.5320 c         1 219      0.594500
      8 O8         -0.0840    0.0680    3.6000 os        1 219     -0.494500
      9 P9         -1.6570   -0.3330    4.0770 p5        1 219      1.443800
     10 O10        -1.4650   -1.9580    3.9910 os        1 219     -0.570200
     11 O11        -2.5440    0.0800    2.9820 o         1 219     -0.804000
     12 C12        -0.7630   -2.4930    5.0780 c3        1 219      0.177400
     13 O17         3.8250   -0.7940    3.5530 o         1 219     -0.601100
     14 O19        -1.7040    0.0600    5.4920 o         1 219     -0.804000
     15 C21        -0.6740   -4.0170    5.0360 c3        1 219     -0.058700
     16 C24         0.0890   -4.5380    3.8290 c3        1 219     -0.056400
     17 C25        -0.7390   -4.5580    2.5620 c3        1 219     -0.077400
     18 C26        -2.0300   -5.3220    2.7600 c3        1 219     -0.064400
     19 C27        -2.8270   -4.7090    3.8930 c3        1 219     -0.077400
     20 C28        -2.0290   -4.6930    5.1790 c3        1 219     -0.056400
     21 H1         -0.0380    0.8700   -0.9070 ha        1 219      0.114000
     22 H2          2.4030    0.3730   -1.0150 ha        1 219      0.113000
     23 H3          3.6240   -0.2920    1.0700 ha        1 219      0.131000
     24 H6         -1.2740    0.6940    1.2570 ha        1 219      0.191000
     25 H7          1.9990   -0.5970    4.4630 h4        1 219      0.021200
     26 H121        0.2750   -2.0540    5.0670 h1        1 219      0.031200
     27 H122       -1.2770   -2.1690    6.0280 h1        1 219      0.031200
     28 H21        -0.0700   -4.2920    5.9530 hc        1 219      0.025700
     29 H241        0.9970   -3.9010    3.6650 hc        1 219      0.025200
     30 H242        0.4420   -5.5800    4.0530 hc        1 219      0.025200
     31 H251       -0.1440   -5.0240    1.7340 hc        1 219      0.049450
     32 H252       -0.9790   -3.5000    2.2680 hc        1 219      0.049450
     33 H261       -2.6340   -5.2950    1.8170 hc        1 219      0.020200
     34 H262       -1.8080   -6.3980    2.9890 hc        1 219      0.020200
     35 H271       -3.0990   -3.6540    3.6200 hc        1 219      0.049450
     36 H272       -3.7750   -5.2860    4.0480 hc        1 219      0.049450
     37 H281       -2.6200   -4.1650    5.9730 hc        1 219      0.025200
     38 H282       -1.8650   -5.7490    5.5230 hc        1 219      0.025200
@<TRIPOS>BOND
     1    1    2 ar  
     2    1    6 ar  
     3    1   21 1   
     4    2    3 ar  
     5    2   22 1   
     6    3    4 ar  
     7    3   23 1   
     8    4    5 ar  
     9    4    7 1   
    10    5    6 ar  
    11    5    8 1   
    12    6   24 1   
    13    7   13 2   
    14    7   25 1   
    15    8    9 1   
    16    9   10 1   
    17    9   11 1   
    18    9   14 1   
    19   10   12 1   
    20   12   15 1   
    21   12   26 1   
    22   12   27 1   
    23   15   16 1   
    24   15   20 1   
    25   15   28 1   
    26   16   17 1   
    27   16   29 1   
    28   16   30 1   
    29   17   18 1   
    30   17   31 1   
    31   17   32 1   
    32   18   19 1   
    33   18   33 1   
    34   18   34 1   
    35   19   20 1   
    36   19   35 1   
    37   19   36 1   
    38   20   37 1   
    39   20   38 1   
@<TRIPOS>SUBSTRUCTURE
     1 219         1 TEMP              0 ****  ****    0 ROOT
