@<TRIPOS>MOLECULE
21A
   38    41     1     0     0
SMALL
bcc


@<TRIPOS>ATOM
      1 O01         0.0770    0.0020    0.2280 oh        1 21A     -0.634300
      2 C02         1.4490    0.0190    0.0880 ca        1 21A      0.563600
      3 C03         2.1910    0.0320    1.3050 ca        1 21A      0.010800
      4 O04         1.6090    0.0400    2.5460 oh        1 21A     -0.483100
      5 C05         3.5830    0.0350    1.2200 ca        1 21A     -0.099000
      6 C06         4.1940    0.0290   -0.0460 cp        1 21A     -0.146300
      7 C07         5.6540   -0.0040   -0.1080 cp        1 21A     -0.010000
      8 C08         6.4050    0.9060    0.6510 ca        1 21A     -0.118500
      9 C09         7.7950    0.8650    0.6320 ca        1 21A     -0.095500
     10 C10         8.4590   -0.0980   -0.1410 ca        1 21A     -0.138500
     11 C11         9.9100   -0.1630   -0.1720 cc        1 21A      0.451000
     12 N12        10.7870    0.3840    0.7910 na        1 21A     -0.182400
     13 N13        12.0430    0.1110    0.4130 nc        1 21A     -0.192800
     14 N14        11.9840   -0.5480   -0.6870 nd        1 21A     -0.046000
     15 N15        10.7360   -0.7510   -1.0990 nd        1 21A     -0.369000
     16 C16         7.7140   -1.0100   -0.9030 ca        1 21A     -0.095500
     17 C17         6.3220   -0.9610   -0.8840 ca        1 21A     -0.118500
     18 C18         3.3740    0.0390   -1.2020 cq        1 21A      0.476800
     19 N19         2.0170    0.0240   -1.1360 nb        1 21A     -0.696000
     20 C20         3.9610    0.0810   -2.5580 cq        1 21A     -0.162500
     21 C21         3.7520   -0.9840   -3.4430 ca        1 21A     -0.079000
     22 C22         4.2820   -0.9450   -4.7290 ca        1 21A     -0.169000
     23 C23         5.0210    0.1810   -5.1400 ca        1 21A      0.136900
     24 F24         5.5370    0.2280   -6.3900 f         1 21A     -0.136900
     25 C25         5.2220    1.2590   -4.2570 ca        1 21A     -0.169000
     26 C26         4.6880    1.2020   -2.9740 ca        1 21A     -0.079000
     27 H2          0.6450    0.0200    2.4240 ho        1 21A      0.444000
     28 H3          4.1880    0.0330    2.1390 ha        1 21A      0.164000
     29 H4          5.8880    1.6630    1.2610 ha        1 21A      0.147500
     30 H5          8.3590    1.6020    1.2210 ha        1 21A      0.147500
     31 H6         10.5710    0.8820    1.6220 hn        1 21A      0.333700
     32 H7          8.2260   -1.7670   -1.5190 ha        1 21A      0.147500
     33 H8          5.7400   -1.6750   -1.4880 ha        1 21A      0.147500
     34 H9          3.1600   -1.8550   -3.1230 ha        1 21A      0.145000
     35 H10         4.1250   -1.7780   -5.4280 ha        1 21A      0.152500
     36 H11         5.7960    2.1350   -4.5900 ha        1 21A      0.152500
     37 H12         4.8400    2.0460   -2.2830 ha        1 21A      0.145000
     38 H13        -0.3380    0.0030   -0.6500 ho        1 21A      0.454000
@<TRIPOS>BOND
     1    1    2 1   
     2    1   38 1   
     3    2    3 ar  
     4    2   19 ar  
     5    3    4 1   
     6    3    5 ar  
     7    4   27 1   
     8    5    6 ar  
     9    5   28 1   
    10    6    7 1   
    11    6   18 2   
    12    7    8 ar  
    13    7   17 ar  
    14    8    9 ar  
    15    8   29 1   
    16    9   10 ar  
    17    9   30 1   
    18   10   11 1   
    19   10   16 ar  
    20   11   12 1   
    21   11   15 2   
    22   12   13 1   
    23   12   31 1   
    24   13   14 2   
    25   14   15 1   
    26   16   17 ar  
    27   16   32 1   
    28   17   33 1   
    29   18   19 1   
    30   18   20 1   
    31   20   21 1   
    32   20   26 2   
    33   21   22 ar  
    34   21   34 1   
    35   22   23 ar  
    36   22   35 1   
    37   23   24 1   
    38   23   25 ar  
    39   25   26 ar  
    40   25   36 1   
    41   26   37 1   
@<TRIPOS>SUBSTRUCTURE
     1 21A         1 TEMP              0 ****  ****    0 ROOT
