@<TRIPOS>MOLECULE
21A
   38    41     1     0     0
SMALL
bcc


@<TRIPOS>ATOM
      1 O01        -5.6230   -1.2610   -0.0050 oh        1 21A     -0.634300
      2 C02        -4.2490   -1.1440    0.0030 ca        1 21A      0.563600
      3 C03        -3.5270   -2.3730   -0.0570 ca        1 21A      0.010800
      4 O04        -4.1300   -3.6020   -0.1080 oh        1 21A     -0.483100
      5 C05        -2.1340   -2.3100   -0.0640 ca        1 21A     -0.099000
      6 C06        -1.5020   -1.0550   -0.0090 cp        1 21A     -0.146300
      7 C07        -0.0420   -1.0150   -0.0550 cp        1 21A     -0.010000
      8 C08         0.7050   -1.8340    0.8060 ca        1 21A     -0.118500
      9 C09         2.0950   -1.8350    0.7500 ca        1 21A     -0.095500
     10 C10         2.7620   -1.0220   -0.1780 ca        1 21A     -0.138500
     11 C11         4.2130   -1.0110   -0.2560 cc        1 21A      0.451000
     12 N12         5.0790   -2.0160    0.2290 na        1 21A     -0.182400
     13 N13         6.3390   -1.6440   -0.0370 nc        1 21A     -0.192800
     14 N14         6.2910   -0.5100   -0.6370 nd        1 21A     -0.046000
     15 N15         5.0480   -0.0680   -0.8030 nd        1 21A     -0.369000
     16 C16         2.0210   -0.2010   -1.0400 ca        1 21A     -0.095500
     17 C17         0.6300   -0.2000   -0.9760 ca        1 21A     -0.118500
     18 C18        -2.3030    0.1120    0.0710 cq        1 21A      0.476800
     19 N19        -3.6610    0.0680    0.0680 nb        1 21A     -0.696000
     20 C20        -1.6920    1.4530    0.1790 cq        1 21A     -0.162500
     21 C21        -1.8970    2.3970   -0.8350 ca        1 21A     -0.079000
     22 C22        -1.3460    3.6700   -0.7330 ca        1 21A     -0.169000
     23 C23        -0.5890    4.0090    0.4050 ca        1 21A      0.136900
     24 F24        -0.0520    5.2470    0.5130 f         1 21A     -0.136900
     25 C25        -0.3930    3.0670    1.4330 ca        1 21A     -0.169000
     26 C26        -0.9480    1.7980    1.3140 ca        1 21A     -0.079000
     27 H2         -5.0910   -3.4640   -0.1110 ho        1 21A      0.444000
     28 H3         -1.5440   -3.2370   -0.1210 ha        1 21A      0.164000
     29 H4          0.1860   -2.4760    1.5340 ha        1 21A      0.147500
     30 H5          2.6570   -2.4720    1.4490 ha        1 21A      0.147500
     31 H6          4.8540   -2.8690    0.6840 hn        1 21A      0.333700
     32 H7          2.5360    0.4470   -1.7680 ha        1 21A      0.147500
     33 H8          0.0510    0.4510   -1.6500 ha        1 21A      0.147500
     34 H9         -2.5020    2.1340   -1.7160 ha        1 21A      0.145000
     35 H10        -1.4980    4.4150   -1.5270 ha        1 21A      0.152500
     36 H11         0.1950    3.3430    2.3200 ha        1 21A      0.152500
     37 H12        -0.8000    1.0610    2.1180 ha        1 21A      0.145000
     38 H13        -6.0240   -0.3780    0.0460 ho        1 21A      0.454000
@<TRIPOS>BOND
     1    1    2 1   
     2    1   38 1   
     3    2    3 ar  
     4    2   19 ar  
     5    3    4 1   
     6    3    5 ar  
     7    4   27 1   
     8    5    6 ar  
     9    5   28 1   
    10    6    7 1   
    11    6   18 2   
    12    7    8 ar  
    13    7   17 ar  
    14    8    9 ar  
    15    8   29 1   
    16    9   10 ar  
    17    9   30 1   
    18   10   11 1   
    19   10   16 ar  
    20   11   12 1   
    21   11   15 2   
    22   12   13 1   
    23   12   31 1   
    24   13   14 2   
    25   14   15 1   
    26   16   17 ar  
    27   16   32 1   
    28   17   33 1   
    29   18   19 1   
    30   18   20 1   
    31   20   21 1   
    32   20   26 2   
    33   21   22 ar  
    34   21   34 1   
    35   22   23 ar  
    36   22   35 1   
    37   23   24 1   
    38   23   25 ar  
    39   25   26 ar  
    40   25   36 1   
    41   26   37 1   
@<TRIPOS>SUBSTRUCTURE
     1 21A         1 TEMP              0 ****  ****    0 ROOT
