@<TRIPOS>MOLECULE
21A
   38    41     1     0     0
SMALL
bcc


@<TRIPOS>ATOM
      1 O01         0.0740    0.0070    0.2140 oh        1 21A     -0.634300
      2 C02         1.4460    0.0220    0.0770 ca        1 21A      0.563600
      3 C03         2.1850    0.0330    1.2970 ca        1 21A      0.010800
      4 O04         1.5990    0.0420    2.5360 oh        1 21A     -0.483100
      5 C05         3.5770    0.0360    1.2150 ca        1 21A     -0.099000
      6 C06         4.1920    0.0300   -0.0500 cp        1 21A     -0.146300
      7 C07         5.6520   -0.0050   -0.1080 cp        1 21A     -0.010000
      8 C08         6.4010    0.9050    0.6530 ca        1 21A     -0.118500
      9 C09         7.7920    0.8610    0.6380 ca        1 21A     -0.095500
     10 C10         8.4570   -0.1020   -0.1340 ca        1 21A     -0.138500
     11 C11         9.9080   -0.1680   -0.1610 cc        1 21A      0.451000
     12 N12        10.7830    0.3790    0.8030 na        1 21A     -0.182400
     13 N13        12.0400    0.1040    0.4290 nc        1 21A     -0.192800
     14 N14        11.9820   -0.5560   -0.6710 nd        1 21A     -0.046000
     15 N15        10.7350   -0.7580   -1.0850 nd        1 21A     -0.369000
     16 C16         7.7130   -1.0130   -0.8980 ca        1 21A     -0.095500
     17 C17         6.3210   -0.9620   -0.8820 ca        1 21A     -0.118500
     18 C18         3.3750    0.0410   -1.2080 cq        1 21A      0.476800
     19 N19         2.0170    0.0270   -1.1440 nb        1 21A     -0.696000
     20 C20         3.9650    0.0830   -2.5610 cq        1 21A     -0.162500
     21 C21         3.7570   -0.9800   -3.4480 ca        1 21A     -0.079000
     22 C22         4.2900   -0.9410   -4.7320 ca        1 21A     -0.169000
     23 C23         5.0310    0.1840   -5.1410 ca        1 21A      0.136900
     24 F24         5.5510    0.2320   -6.3900 f         1 21A     -0.136900
     25 C25         5.2310    1.2610   -4.2570 ca        1 21A     -0.169000
     26 C26         4.6950    1.2040   -2.9750 ca        1 21A     -0.079000
     27 H2          0.6370    0.0220    2.4110 ho        1 21A      0.444000
     28 H3          4.1800    0.0330    2.1350 ha        1 21A      0.164000
     29 H4          5.8840    1.6610    1.2630 ha        1 21A      0.147500
     30 H5          8.3550    1.5980    1.2290 ha        1 21A      0.147500
     31 H6         10.5650    0.8770    1.6340 hn        1 21A      0.333700
     32 H7          8.2260   -1.7700   -1.5130 ha        1 21A      0.147500
     33 H8          5.7400   -1.6750   -1.4880 ha        1 21A      0.147500
     34 H9          3.1640   -1.8510   -3.1310 ha        1 21A      0.145000
     35 H10         4.1340   -1.7740   -5.4330 ha        1 21A      0.152500
     36 H11         5.8080    2.1370   -4.5870 ha        1 21A      0.152500
     37 H12         4.8460    2.0470   -2.2840 ha        1 21A      0.145000
     38 H13        -0.3390    0.0080   -0.6650 ho        1 21A      0.454000
@<TRIPOS>BOND
     1    1    2 1   
     2    1   38 1   
     3    2    3 ar  
     4    2   19 ar  
     5    3    4 1   
     6    3    5 ar  
     7    4   27 1   
     8    5    6 ar  
     9    5   28 1   
    10    6    7 1   
    11    6   18 2   
    12    7    8 ar  
    13    7   17 ar  
    14    8    9 ar  
    15    8   29 1   
    16    9   10 ar  
    17    9   30 1   
    18   10   11 1   
    19   10   16 ar  
    20   11   12 1   
    21   11   15 2   
    22   12   13 1   
    23   12   31 1   
    24   13   14 2   
    25   14   15 1   
    26   16   17 ar  
    27   16   32 1   
    28   17   33 1   
    29   18   19 1   
    30   18   20 1   
    31   20   21 1   
    32   20   26 2   
    33   21   22 ar  
    34   21   34 1   
    35   22   23 ar  
    36   22   35 1   
    37   23   24 1   
    38   23   25 ar  
    39   25   26 ar  
    40   25   36 1   
    41   26   37 1   
@<TRIPOS>SUBSTRUCTURE
     1 21A         1 TEMP              0 ****  ****    0 ROOT
