@<TRIPOS>MOLECULE
21A
   38    29     1     0     0
SMALL
bcc


@<TRIPOS>ATOM
      1 O01        -5.6190    0.0800    0.8940 oh        1 21A     -0.263000
      2 C02        -4.2130    0.0580    0.8930 c1        1 21A      0.064000
      3 C03        -3.5190    0.0730    2.0920 c1        1 21A      0.032000
      4 O04        -4.2200    0.1340    3.3100 oh        1 21A     -0.236000
      5 C05        -2.1540    0.0680    2.0900 c1        1 21A     -0.099000
      6 C06        -1.4750    0.0480    0.9070 c1        1 21A     -0.080000
      7 C07         0.0380    0.0380    0.9030 c1        1 21A      0.011667
      8 C08         0.7390    1.2050    1.1650 c1        1 21A     -0.124333
      9 C09         2.1250    1.1860    1.2070 c1        1 21A     -0.079000
     10 C10         2.8090    0.0000    0.9870 c1        1 21A     -0.030000
     11 C11         4.3230   -0.0050    0.9580 c1        1 21A     -0.008000
     12 N12         5.1330   -0.2620    2.0000 n2        1 21A     -0.160500
     13 N13         6.4040   -0.1750    1.5700 n2        1 21A     -0.034500
     14 N14         6.3800    0.1360    0.2630 n2        1 21A     -0.034500
     15 N15         5.0940    0.2410   -0.1150 n2        1 21A     -0.160500
     16 C16         2.1070   -1.1660    0.7250 c2        1 21A     -0.112000
     17 C17         0.7220   -1.1470    0.6830 c1        1 21A     -0.111000
     18 C18        -2.1720    0.0330   -0.2920 c1        1 21A      0.040000
     19 N19        -3.5340    0.0380   -0.2880 n2        1 21A     -0.170000
     20 C20        -1.4200   -0.0100   -1.6020 c1        1 21A      0.011667
     21 C21        -1.2790   -1.2110   -2.2800 c1        1 21A     -0.126000
     22 C22        -0.6670   -1.2380   -3.5230 c1        1 21A     -0.126000
     23 C23        -0.1970   -0.0640   -4.0890 c1        1 21A      0.011667
     24 F24         0.3940   -0.0900   -5.2910 f         1 21A     -0.103000
     25 C25        -0.3380    1.1370   -3.4130 c1        1 21A     -0.124333
     26 C26        -0.9500    1.1640   -2.1690 c1        1 21A     -0.124333
     27 H2         -4.2680   -0.6800    3.6650 ho        1 21A      0.243000
     28 H3         -1.6640    0.0790    2.9340 ha        1 21A      0.166000
     29 H4          0.2580    2.0400    1.3200 ha        1 21A      0.149333
     30 H5          2.6190    2.0070    1.3920 ha        1 21A      0.164000
     31 H6          4.8660   -0.4610    2.8490 DU        1 21A      0.284000
     32 H7          2.5890   -2.0010    0.5700 ha        1 21A      0.131000
     33 H8          0.2280   -1.9690    0.4980 ha        1 21A      0.148000
     34 H9         -1.6100   -2.0380   -1.8810 ha        1 21A      0.149500
     35 H10        -0.5680   -2.0830   -4.0000 ha        1 21A      0.149500
     36 H11        -0.0070    1.9640   -3.8120 ha        1 21A      0.149333
     37 H12        -1.0490    2.0110   -1.6920 ha        1 21A      0.149333
     38 H13        -5.9040    0.8600    0.5740 ho        1 21A      0.253000
@<TRIPOS>BOND
     1    1    2 1   
     2    1   38 1   
     3    2   19 1   
     4    3    4 1   
     5    3    5 1   
     6    4   27 1   
     7    5   28 1   
     8    6   18 1   
     9    7    8 1   
    10    8   29 1   
    11    9   10 1   
    12    9   30 1   
    13   10   16 1   
    14   11   12 1   
    15   11   15 1   
    16   12   13 1   
    17   13   14 1   
    18   14   15 1   
    19   16   17 1   
    20   16   32 1   
    21   17   33 1   
    22   18   19 1   
    23   20   26 1   
    24   21   22 1   
    25   21   34 1   
    26   22   35 1   
    27   23   25 1   
    28   25   36 1   
    29   26   37 1   
@<TRIPOS>SUBSTRUCTURE
     1 21A         1 TEMP              0 ****  ****    0 ROOT
