@<TRIPOS>MOLECULE
21B
   41    43     1     0     0
SMALL
bcc


@<TRIPOS>ATOM
      1 C16         5.2390    2.6490   -1.0350 c3        1 21B      0.153100
      2 N           4.5040    1.7840   -0.1520 n3        1 21B     -0.827200
      3 C15         3.0680    1.9770   -0.2150 c3        1 21B      0.164800
      4 C14         2.2890    0.9220    0.5740 c3        1 21B     -0.058200
      5 C13         0.8380    1.2060    0.5180 c2        1 21B     -0.145200
      6 C4         -0.1410    0.2880    0.4130 ce        1 21B     -0.015400
      7 C3          0.0950   -1.1600    0.3700 ca        1 21B     -0.043300
      8 C17         0.8980   -1.7040    1.3900 ca        1 21B     -0.117000
      9 C18         1.1760   -3.0630    1.4460 ca        1 21B     -0.135000
     10 C           0.6530   -3.9130    0.4700 ca        1 21B     -0.125500
     11 C5         -1.5430    0.7250    0.3500 ca        1 21B     -0.043300
     12 C10        -2.1590    1.3550    1.4350 ca        1 21B     -0.117000
     13 C9         -3.4880    1.7680    1.3390 ca        1 21B     -0.135000
     14 C8         -4.2020    1.5590    0.1600 ca        1 21B     -0.125500
     15 C7         -3.5910    0.9350   -0.9270 ca        1 21B     -0.134000
     16 C6         -2.2620    0.5130   -0.8390 ca        1 21B     -0.058800
     17 C11        -1.5710   -0.1490   -1.9760 c3        1 21B     -0.031600
     18 C12        -1.3460   -1.6250   -1.7270 c3        1 21B     -0.031600
     19 C2         -0.4440   -2.0150   -0.6050 ca        1 21B     -0.058800
     20 C1         -0.1460   -3.3890   -0.5380 ca        1 21B     -0.134000
     21 H1          6.3340    2.4390   -0.9130 h1        1 21B      0.029033
     22 H2          4.9710    2.5250   -2.1220 h1        1 21B      0.029033
     23 H3          5.0430    3.7160   -0.7500 h1        1 21B      0.029033
     24 H4          4.7360    0.8230   -0.3230 hn        1 21B      0.357800
     25 H6          2.8500    2.9950    0.2160 h1        1 21B      0.030700
     26 H7          2.6860    1.9780   -1.2790 h1        1 21B      0.030700
     27 H8          2.5110   -0.1030    0.1700 hc        1 21B      0.059700
     28 H9          2.6210    0.9350    1.6490 hc        1 21B      0.059700
     29 H10         0.5690    2.2760    0.5690 ha        1 21B      0.129000
     30 H11         1.3070   -1.0310    2.1600 ha        1 21B      0.135000
     31 H12         1.8040   -3.4670    2.2530 ha        1 21B      0.131500
     32 H13         0.8690   -4.9910    0.5010 ha        1 21B      0.130500
     33 H14        -1.5940    1.5200    2.3640 ha        1 21B      0.135000
     34 H15        -3.9710    2.2590    2.1960 ha        1 21B      0.131500
     35 H16        -5.2490    1.8860    0.0850 ha        1 21B      0.130500
     36 H17        -4.1550    0.7740   -1.8580 ha        1 21B      0.130000
     37 H18        -2.1810   -0.0380   -2.9140 hc        1 21B      0.052450
     38 H19        -0.5840    0.3590   -2.1560 hc        1 21B      0.052450
     39 H20        -2.3440   -2.1130   -1.5440 hc        1 21B      0.052450
     40 H21        -0.9320   -2.0710   -2.6750 hc        1 21B      0.052450
     41 H22        -0.5620   -4.0620   -1.3040 ha        1 21B      0.130000
@<TRIPOS>BOND
     1    1    2 1   
     2    1   21 1   
     3    1   22 1   
     4    1   23 1   
     5    2    3 1   
     6    2   24 1   
     7    3    4 1   
     8    3   25 1   
     9    3   26 1   
    10    4    5 1   
    11    4   27 1   
    12    4   28 1   
    13    5    6 2   
    14    5   29 1   
    15    6    7 1   
    16    6   11 1   
    17    7    8 ar  
    18    7   19 ar  
    19    8    9 ar  
    20    8   30 1   
    21    9   10 ar  
    22    9   31 1   
    23   10   20 ar  
    24   10   32 1   
    25   11   12 ar  
    26   11   16 ar  
    27   12   13 ar  
    28   12   33 1   
    29   13   14 ar  
    30   13   34 1   
    31   14   15 ar  
    32   14   35 1   
    33   15   16 ar  
    34   15   36 1   
    35   16   17 1   
    36   17   18 1   
    37   17   37 1   
    38   17   38 1   
    39   18   19 1   
    40   18   39 1   
    41   18   40 1   
    42   19   20 ar  
    43   20   41 1   
@<TRIPOS>SUBSTRUCTURE
     1 21B         1 TEMP              0 ****  ****    0 ROOT
