@<TRIPOS>MOLECULE
21B
   42    44     1     0     0
SMALL
bcc


@<TRIPOS>ATOM
      1 C16        -0.1850    0.0500    0.0630 c3        1 21B      0.078100
      2 N           1.2920    0.1190    0.0030 n4        1 21B     -0.759000
      3 C15         1.9180    0.0160    1.3590 c3        1 21B      0.100800
      4 C14         3.4430    0.0880    1.2980 c3        1 21B     -0.059200
      5 C13         3.9760   -0.0800    2.6700 c2        1 21B     -0.236200
      6 C4          4.9280   -0.9610    3.0320 ce        1 21B      0.092600
      7 C3          5.6130   -1.8600    2.0960 ca        1 21B     -0.085300
      8 C17         6.2230   -1.2670    0.9740 ca        1 21B     -0.118000
      9 C18         6.9100   -2.0290    0.0390 ca        1 21B     -0.130500
     10 C           6.9970   -3.4120    0.2090 ca        1 21B     -0.107500
     11 C5          5.3420   -1.0400    4.4410 ca        1 21B     -0.085300
     12 C10         6.0030    0.0180    5.0670 ca        1 21B     -0.118000
     13 C9          6.3800   -0.0940    6.4060 ca        1 21B     -0.130500
     14 C8          6.0890   -1.2570    7.1190 ca        1 21B     -0.107500
     15 C7          5.4230   -2.3140    6.4970 ca        1 21B     -0.128500
     16 C6          5.0490   -2.2140    5.1550 ca        1 21B     -0.051300
     17 C11         4.3340   -3.3150    4.4570 c3        1 21B     -0.036600
     18 C12         5.2110   -4.0260    3.4500 c3        1 21B     -0.036600
     19 C2          5.7240   -3.2460    2.2870 ca        1 21B     -0.051300
     20 C1          6.4110   -4.0060    1.3190 ca        1 21B     -0.128500
     21 H1         -0.5760    0.8950    0.6910 hx        1 21B      0.110033
     22 H2         -0.6030    0.1290   -0.9780 hx        1 21B      0.110033
     23 H3         -0.4970   -0.9280    0.5200 hx        1 21B      0.110033
     24 H4          1.5780    1.0060   -0.4290 hn        1 21B      0.453300
     25 H6          1.5120    0.8570    1.9920 hx        1 21B      0.109700
     26 H7          1.5980   -0.9650    1.8140 hx        1 21B      0.109700
     27 H8          3.7680    1.0850    0.8920 hc        1 21B      0.071700
     28 H9          3.8440   -0.7100    0.6140 hc        1 21B      0.071700
     29 H10         3.5440    0.5970    3.4270 ha        1 21B      0.141000
     30 H11         6.1740   -0.1720    0.8570 ha        1 21B      0.132000
     31 H12         7.3950   -1.5460   -0.8220 ha        1 21B      0.143000
     32 H13         7.5400   -4.0260   -0.5250 ha        1 21B      0.146000
     33 H14         6.2350    0.9340    4.5040 ha        1 21B      0.132000
     34 H15         6.9090    0.7360    6.8970 ha        1 21B      0.143000
     35 H16         6.3870   -1.3440    8.1750 ha        1 21B      0.146000
     36 H17         5.1950   -3.2290    7.0640 ha        1 21B      0.143000
     37 H18         3.9740   -4.0730    5.2050 hc        1 21B      0.057200
     38 H19         3.4250   -2.9000    3.9430 hc        1 21B      0.057200
     39 H20         4.6320   -4.9070    3.0520 hc        1 21B      0.057200
     40 H21         6.1080   -4.4430    3.9920 hc        1 21B      0.057200
     41 H22         6.4970   -5.0960    1.4610 ha        1 21B      0.143000
     42 HN3         1.6490   -0.6450   -0.5850 hn        1 21B      0.453300
@<TRIPOS>BOND
     1    1    2 1   
     2    1   21 1   
     3    1   22 1   
     4    1   23 1   
     5    2    3 1   
     6    2   24 1   
     7    2   42 1   
     8    3    4 1   
     9    3   25 1   
    10    3   26 1   
    11    4    5 1   
    12    4   27 1   
    13    4   28 1   
    14    5    6 2   
    15    5   29 1   
    16    6    7 1   
    17    6   11 1   
    18    7    8 ar  
    19    7   19 ar  
    20    8    9 ar  
    21    8   30 1   
    22    9   10 ar  
    23    9   31 1   
    24   10   20 ar  
    25   10   32 1   
    26   11   12 ar  
    27   11   16 ar  
    28   12   13 ar  
    29   12   33 1   
    30   13   14 ar  
    31   13   34 1   
    32   14   15 ar  
    33   14   35 1   
    34   15   16 ar  
    35   15   36 1   
    36   16   17 1   
    37   17   18 1   
    38   17   37 1   
    39   17   38 1   
    40   18   19 1   
    41   18   39 1   
    42   18   40 1   
    43   19   20 ar  
    44   20   41 1   
@<TRIPOS>SUBSTRUCTURE
     1 21B         1 TEMP              0 ****  ****    0 ROOT
