@<TRIPOS>MOLECULE
21B
   41    36     1     0     0
SMALL
bcc


@<TRIPOS>ATOM
      1 C16        -3.8190    3.0010    1.8950 c3        1 21B     -0.123000
      2 N          -2.7700    3.2580    0.9320 n3        1 21B     -0.305000
      3 C15        -2.6170    2.1110    0.0700 c3        1 21B     -0.071000
      4 C14        -1.1320    1.8760   -0.2080 c3        1 21B     -0.140000
      5 C13        -0.8980    0.4000   -0.4880 c2        1 21B     -0.144000
      6 C4          0.3690   -0.1110   -0.4410 c1        1 21B     -0.035000
      7 C3          1.1190   -0.6870   -1.6480 c1        1 21B     -0.028000
      8 C17         1.4870    0.0740   -2.7750 c1        1 21B     -0.122000
      9 C18         1.6110   -0.5370   -4.0130 c1        1 21B     -0.128250
     10 C           1.3710   -1.9070   -4.1450 c1        1 21B     -0.128250
     11 C5          1.2160   -0.2290    0.8440 c2        1 21B     -0.034000
     12 C10         1.9150    0.8120    1.4770 c2        1 21B     -0.114000
     13 C9          2.2740    0.6940    2.8200 c1        1 21B     -0.134000
     14 C8          1.9390   -0.4570    3.5330 c1        1 21B     -0.128250
     15 C7          1.2480   -1.4870    2.9070 c1        1 21B     -0.128250
     16 C6          0.8850   -1.3690    1.5510 c1        1 21B     -0.057000
     17 C11         0.2720   -2.4200    0.6360 c2        1 21B     -0.120000
     18 C12         1.2320   -2.7920   -0.4800 c3        1 21B     -0.116000
     19 C2          0.8810   -2.0440   -1.7780 c1        1 21B     -0.044000
     20 C1          1.0070   -2.6610   -3.0330 c1        1 21B     -0.140000
     21 H1         -3.6850    2.1150    2.2960 h1        1 21B      0.068333
     22 H2         -3.7930    3.6910    2.6020 h1        1 21B      0.068333
     23 H3         -4.6900    3.0290    1.4440 h1        1 21B      0.068333
     24 H4         -2.9910    3.9920    0.4280 hn        1 21B      0.151000
     25 H6         -2.9960    1.3220    0.5060 h1        1 21B      0.069500
     26 H7         -3.0880    2.2740   -0.7800 h1        1 21B      0.069500
     27 H8         -0.8580    2.4040   -0.9880 hc        1 21B      0.099500
     28 H9         -0.6100    2.1460    0.5670 hc        1 21B      0.099500
     29 H10        -1.6460   -0.1680   -0.7870 ha        1 21B      0.127000
     30 H11         1.6550    1.0330   -2.6840 ha        1 21B      0.132000
     31 H12         1.8660   -0.0070   -4.7960 ha        1 21B      0.131000
     32 H13         1.4580   -2.3340   -5.0150 ha        1 21B      0.131000
     33 H14         2.1480    1.6140    0.9800 ha        1 21B      0.134000
     34 H15         2.7600    1.4190    3.2610 ha        1 21B      0.131000
     35 H16         2.1920   -0.5390    4.4760 ha        1 21B      0.131000
     36 H17         1.0130   -2.2970    3.4090 ha        1 21B      0.131000
     37 H18        -0.5520   -2.0660    0.2470 ha        1 21B      0.093500
     38 H19         0.0640   -3.2170    1.1590 ha        1 21B      0.093500
     39 H20         2.1420   -2.5610   -0.2120 hc        1 21B      0.091500
     40 H21         1.1800   -3.7530   -0.6410 hc        1 21B      0.091500
     41 H22         0.8390   -3.6230   -3.1260 ha        1 21B      0.129000
@<TRIPOS>BOND
     1    1    2 1   
     2    1   21 1   
     3    1   22 1   
     4    1   23 1   
     5    2    3 1   
     6    2   24 1   
     7    3    4 1   
     8    3   25 1   
     9    3   26 1   
    10    4    5 1   
    11    4   27 1   
    12    4   28 1   
    13    5    6 1   
    14    5   29 1   
    15    6   11 1   
    16    7    8 1   
    17    8   30 1   
    18    9   10 1   
    19    9   31 1   
    20   10   32 1   
    21   11   12 1   
    22   11   16 1   
    23   12   13 1   
    24   12   33 1   
    25   13   34 1   
    26   14   15 1   
    27   14   35 1   
    28   15   36 1   
    29   17   18 1   
    30   17   37 1   
    31   17   38 1   
    32   18   19 1   
    33   18   39 1   
    34   18   40 1   
    35   19   20 1   
    36   20   41 1   
@<TRIPOS>SUBSTRUCTURE
     1 21B         1 TEMP              0 ****  ****    0 ROOT
