@<TRIPOS>MOLECULE
21B
   42    44     1     0     0
SMALL
bcc


@<TRIPOS>ATOM
      1 C16        -0.1900    0.0400    0.0750 c3        1 21B      0.078100
      2 N           1.2860    0.1120    0.0110 ny        1 21B     -0.759000
      3 C15         1.9170    0.0100    1.3660 c3        1 21B      0.100800
      4 C14         3.4420    0.0850    1.3000 c3        1 21B     -0.059200
      5 C13         3.9790   -0.0830    2.6700 c2        1 21B     -0.236200
      6 C4          4.9340   -0.9620    3.0290 ce        1 21B      0.092600
      7 C3          5.6180   -1.8600    2.0910 ca        1 21B     -0.085300
      8 C17         6.2230   -1.2650    0.9670 ca        1 21B     -0.118000
      9 C18         6.9090   -2.0250    0.0290 ca        1 21B     -0.130500
     10 C           6.9990   -3.4090    0.1990 ca        1 21B     -0.107500
     11 C5          5.3520   -1.0410    4.4360 ca        1 21B     -0.085300
     12 C10         6.0140    0.0180    5.0620 ca        1 21B     -0.118000
     13 C9          6.3940   -0.0940    6.3990 ca        1 21B     -0.130500
     14 C8          6.1080   -1.2580    7.1120 ca        1 21B     -0.107500
     15 C7          5.4420   -2.3160    6.4920 ca        1 21B     -0.128500
     16 C6          5.0630   -2.2160    5.1520 ca        1 21B     -0.051300
     17 C11         4.3480   -3.3180    4.4550 c3        1 21B     -0.036600
     18 C12         5.2240   -4.0270    3.4450 c3        1 21B     -0.036600
     19 C2          5.7320   -3.2460    2.2810 ca        1 21B     -0.051300
     20 C1          6.4180   -4.0040    1.3110 ca        1 21B     -0.128500
     21 H1         -0.4990   -0.9380    0.5340 hx        1 21B      0.110033
     22 H2         -0.5800    0.8850    0.7040 hx        1 21B      0.110033
     23 H3         -0.6110    0.1190   -0.9640 hx        1 21B      0.110033
     24 H4          1.6440   -0.6510   -0.5780 hn        1 21B      0.453300
     25 H6          1.5120    0.8500    1.9990 hx        1 21B      0.109700
     26 H7          1.6000   -0.9720    1.8210 hx        1 21B      0.109700
     27 H8          3.7640    1.0830    0.8930 hc        1 21B      0.071700
     28 H9          3.8420   -0.7130    0.6150 hc        1 21B      0.071700
     29 H10         3.5480    0.5930    3.4280 ha        1 21B      0.141000
     30 H11         6.1720   -0.1710    0.8500 ha        1 21B      0.132000
     31 H12         7.3910   -1.5410   -0.8330 ha        1 21B      0.143000
     32 H13         7.5410   -4.0220   -0.5370 ha        1 21B      0.146000
     33 H14         6.2420    0.9340    4.4980 ha        1 21B      0.132000
     34 H15         6.9230    0.7370    6.8890 ha        1 21B      0.143000
     35 H16         6.4090   -1.3440    8.1670 ha        1 21B      0.146000
     36 H17         5.2170   -3.2320    7.0590 ha        1 21B      0.143000
     37 H18         3.9920   -4.0770    5.2040 hc        1 21B      0.057200
     38 H19         3.4370   -2.9040    3.9430 hc        1 21B      0.057200
     39 H20         4.6460   -4.9090    3.0480 hc        1 21B      0.057200
     40 H21         6.1230   -4.4430    3.9840 hc        1 21B      0.057200
     41 H22         6.5050   -5.0930    1.4520 ha        1 21B      0.143000
     42 HN3         1.5710    0.9990   -0.4220 hn        1 21B      0.453300
@<TRIPOS>BOND
     1    1    2 1   
     2    1   21 1   
     3    1   22 1   
     4    1   23 1   
     5    2    3 1   
     6    2   24 1   
     7    2   42 1   
     8    3    4 1   
     9    3   25 1   
    10    3   26 1   
    11    4    5 1   
    12    4   27 1   
    13    4   28 1   
    14    5    6 2   
    15    5   29 1   
    16    6    7 1   
    17    6   11 1   
    18    7    8 ar  
    19    7   19 ar  
    20    8    9 ar  
    21    8   30 1   
    22    9   10 ar  
    23    9   31 1   
    24   10   20 ar  
    25   10   32 1   
    26   11   12 ar  
    27   11   16 ar  
    28   12   13 ar  
    29   12   33 1   
    30   13   14 ar  
    31   13   34 1   
    32   14   15 ar  
    33   14   35 1   
    34   15   16 ar  
    35   15   36 1   
    36   16   17 1   
    37   17   18 1   
    38   17   37 1   
    39   17   38 1   
    40   18   19 1   
    41   18   39 1   
    42   18   40 1   
    43   19   20 ar  
    44   20   41 1   
@<TRIPOS>SUBSTRUCTURE
     1 21B         1 TEMP              0 ****  ****    0 ROOT
