@<TRIPOS>MOLECULE
21B
   42    44     1     0     0
SMALL
bcc


@<TRIPOS>ATOM
      1 C16        -0.1840    0.0540    0.0600 c3        1 21B      0.078100
      2 N           1.2920    0.1190    0.0010 n4        1 21B     -0.759000
      3 C15         1.9180    0.0170    1.3580 c3        1 21B      0.100800
      4 C14         3.4430    0.0860    1.2970 c3        1 21B     -0.059200
      5 C13         3.9750   -0.0810    2.6690 c2        1 21B     -0.236200
      6 C4          4.9280   -0.9620    3.0330 ce        1 21B      0.092600
      7 C3          5.6130   -1.8610    2.0970 ca        1 21B     -0.085300
      8 C17         6.2230   -1.2680    0.9740 ca        1 21B     -0.118000
      9 C18         6.9110   -2.0290    0.0400 ca        1 21B     -0.130500
     10 C           6.9990   -3.4130    0.2110 ca        1 21B     -0.107500
     11 C5          5.3410   -1.0410    4.4410 ca        1 21B     -0.085300
     12 C10         6.0010    0.0190    5.0680 ca        1 21B     -0.118000
     13 C9          6.3770   -0.0930    6.4060 ca        1 21B     -0.130500
     14 C8          6.0870   -1.2560    7.1200 ca        1 21B     -0.107500
     15 C7          5.4220   -2.3130    6.4980 ca        1 21B     -0.128500
     16 C6          5.0480   -2.2150    5.1560 ca        1 21B     -0.051300
     17 C11         4.3340   -3.3160    4.4580 c3        1 21B     -0.036600
     18 C12         5.2130   -4.0270    3.4510 c3        1 21B     -0.036600
     19 C2          5.7250   -3.2470    2.2880 ca        1 21B     -0.051300
     20 C1          6.4130   -4.0060    1.3210 ca        1 21B     -0.128500
     21 H1         -0.4990   -0.9220    0.5200 hx        1 21B      0.110033
     22 H2         -0.6020    0.1320   -0.9800 hx        1 21B      0.110033
     23 H3         -0.5740    0.9010    0.6870 hx        1 21B      0.110033
     24 H4          1.6480   -0.6460   -0.5850 hn        1 21B      0.453300
     25 H6          1.5140    0.8590    1.9890 hx        1 21B      0.109700
     26 H7          1.5950   -0.9630    1.8140 hx        1 21B      0.109700
     27 H8          3.8430   -0.7140    0.6140 hc        1 21B      0.071700
     28 H9          3.7700    1.0820    0.8900 hc        1 21B      0.071700
     29 H10         3.5420    0.5960    3.4250 ha        1 21B      0.141000
     30 H11         6.1740   -0.1730    0.8570 ha        1 21B      0.132000
     31 H12         7.3960   -1.5460   -0.8220 ha        1 21B      0.143000
     32 H13         7.5420   -4.0270   -0.5230 ha        1 21B      0.146000
     33 H14         6.2330    0.9340    4.5040 ha        1 21B      0.132000
     34 H15         6.9050    0.7380    6.8980 ha        1 21B      0.143000
     35 H16         6.3850   -1.3420    8.1760 ha        1 21B      0.146000
     36 H17         5.1940   -3.2290    7.0650 ha        1 21B      0.143000
     37 H18         3.4260   -2.9010    3.9430 hc        1 21B      0.057200
     38 H19         3.9750   -4.0740    5.2060 hc        1 21B      0.057200
     39 H20         4.6350   -4.9080    3.0530 hc        1 21B      0.057200
     40 H21         6.1090   -4.4430    3.9940 hc        1 21B      0.057200
     41 H22         6.4990   -5.0960    1.4630 ha        1 21B      0.143000
     42 HN3         1.5810    1.0050   -0.4320 hn        1 21B      0.453300
@<TRIPOS>BOND
     1    1    2 1   
     2    1   21 1   
     3    1   22 1   
     4    1   23 1   
     5    2    3 1   
     6    2   24 1   
     7    2   42 1   
     8    3    4 1   
     9    3   25 1   
    10    3   26 1   
    11    4    5 1   
    12    4   27 1   
    13    4   28 1   
    14    5    6 2   
    15    5   29 1   
    16    6    7 1   
    17    6   11 1   
    18    7    8 ar  
    19    7   19 ar  
    20    8    9 ar  
    21    8   30 1   
    22    9   10 ar  
    23    9   31 1   
    24   10   20 ar  
    25   10   32 1   
    26   11   12 ar  
    27   11   16 ar  
    28   12   13 ar  
    29   12   33 1   
    30   13   14 ar  
    31   13   34 1   
    32   14   15 ar  
    33   14   35 1   
    34   15   16 ar  
    35   15   36 1   
    36   16   17 1   
    37   17   18 1   
    38   17   37 1   
    39   17   38 1   
    40   18   19 1   
    41   18   39 1   
    42   18   40 1   
    43   19   20 ar  
    44   20   41 1   
@<TRIPOS>SUBSTRUCTURE
     1 21B         1 TEMP              0 ****  ****    0 ROOT
