@<TRIPOS>MOLECULE
21C
   46    45     1     0     0
SMALL
bcc


@<TRIPOS>ATOM
      1 C13        -0.8320    1.8480   -1.8060 c3        1 21C      0.039000
      2 C17        -2.0080    3.0470   -5.5630 c3        1 21C     -0.854000
      3 C20         0.6550    1.8520   -1.7850 c3        1 21C     -0.197500
      4 C21         1.2040    1.8420   -0.3790 c3        1 21C     -0.034000
      5 CL1         2.3330   -5.1270    7.5820 cl        1 21C      0.012000
      6 C02         2.1040   -4.3400    6.0300 c2        1 21C     -0.050000
      7 C03         1.8600   -2.9580    5.9730 c2        1 21C     -0.067000
      8 CL2         1.8280   -2.0180    7.4430 cl        1 21C      0.007000
      9 C05         1.6760   -2.3320    4.7390 c1        1 21C     -0.131000
     10 C06         1.7350   -3.0770    3.5670 c1        1 21C      0.029000
     11 N07         1.6770   -2.3900    2.2470 n3        1 21C     -0.239000
     12 C08         0.7290   -1.2470    2.0350 c3        1 21C     -0.074000
     13 C09         1.4100   -0.1720    1.1820 c2        1 21C      0.260000
     14 N10         0.6170    0.7700    0.4420 n         1 21C     -0.316000
     15 C11        -0.8380    0.7470    0.4350 c3        1 21C     -0.034000
     16 C12        -1.4030    0.7450   -0.9600 c3        1 21C     -0.197500
     17 N14        -1.2860    1.6820   -3.1700 n3        1 21C     -0.896000
     18 S15        -2.3680    2.7860   -3.8300 s6        1 21C      2.810000
     19 O16        -3.7080    2.3730   -3.6400 o         1 21C     -0.929500
     20 C18        -3.2290    3.7230   -6.2490 c3        1 21C     -0.194000
     21 O19        -2.3540    4.0290   -3.1010 o         1 21C     -0.929500
     22 O22         2.6000   -0.1040    1.1480 o         1 21C     -0.360000
     23 C23         1.9800   -4.4590    3.6270 c1        1 21C      0.053000
     24 O24         2.0250   -5.2350    2.4160 o         1 21C     -0.249000
     25 C25         2.1630   -5.0830    4.8620 c2        1 21C     -0.180000
     26 H131       -1.1510    2.6940   -1.4710 h1        1 21C      0.116000
     27 H171       -1.8300    2.2000   -5.9860 h1        1 21C      0.144500
     28 H172       -1.2250    3.6240   -5.6500 h1        1 21C      0.144500
     29 H201        0.9760    2.6520   -2.2430 hc        1 21C      0.096750
     30 H202        0.9890    1.0440   -2.2710 hc        1 21C      0.096750
     31 H211        1.0090    2.7160    0.0470 h1        1 21C      0.103750
     32 H212        2.1610    1.7200   -0.4170 h1        1 21C      0.103750
     33 H051        1.5010   -1.3450    4.6980 ha        1 21C      0.153000
     34 H071        2.2300   -2.6490    1.5760 hn        1 21C      0.218000
     35 H081        0.4800   -0.8700    2.8920 h1        1 21C      0.117000
     36 H082       -0.0620   -1.5650    1.5800 h1        1 21C      0.117000
     37 H111       -1.1660    1.5320    0.9040 h1        1 21C      0.103750
     38 H112       -1.1450   -0.0550    0.9040 h1        1 21C      0.103750
     39 H121       -2.3660    0.8510   -0.9110 hc        1 21C      0.096750
     40 H122       -1.1980   -0.1210   -1.3850 hc        1 21C      0.096750
     41 H141       -1.0080    0.9630   -3.6610 hn        1 21C      0.245000
     42 H182       -3.4220    4.5810   -5.8040 hc        1 21C      0.093667
     43 H183       -4.0070    3.1380   -6.1770 hc        1 21C      0.093667
     44 H2         -3.0250    3.8840   -7.1990 hc        1 21C      0.093667
     45 H241        1.3590   -5.8510    2.4260 ho        1 21C      0.228000
     46 H251        2.3340   -6.0480    4.9040 ha        1 21C      0.153000
@<TRIPOS>BOND
     1    1    3 1   
     2    1   16 1   
     3    1   17 1   
     4    1   26 1   
     5    2   18 1   
     6    2   20 1   
     7    2   27 1   
     8    2   28 1   
     9    3    4 1   
    10    3   29 1   
    11    3   30 1   
    12    4   14 1   
    13    4   31 1   
    14    4   32 1   
    15    5    6 1   
    16    6    7 1   
    17    6   25 1   
    18    7    8 1   
    19    7    9 1   
    20    9   33 1   
    21   10   11 1   
    22   10   23 1   
    23   11   12 1   
    24   11   34 1   
    25   12   13 1   
    26   12   35 1   
    27   12   36 1   
    28   13   14 1   
    29   13   22 1   
    30   14   15 1   
    31   15   16 1   
    32   15   37 1   
    33   15   38 1   
    34   16   39 1   
    35   16   40 1   
    36   17   18 1   
    37   17   41 1   
    38   18   19 1   
    39   18   21 1   
    40   20   42 1   
    41   20   43 1   
    42   20   44 1   
    43   23   25 1   
    44   24   45 1   
    45   25   46 1   
@<TRIPOS>SUBSTRUCTURE
     1 21C         1 TEMP              0 ****  ****    0 ROOT
