@<TRIPOS>MOLECULE
21C
   47    46     1     0     0
SMALL
bcc


@<TRIPOS>ATOM
      1 C13        -1.7410    1.7160   -0.8890 c2        1 21C     -0.341000
      2 C17        -2.9570   -1.0050   -0.3430 c2        1 21C     -1.439000
      3 C20         1.3610    1.3500    0.8950 c3        1 21C     -0.162000
      4 C21        -0.0050    1.8100    1.2130 c1        1 21C     -0.096100
      5 C02         4.1510    7.0380    6.0780 ca        1 21C      0.043400
      6 C03         2.9420    7.1980    5.3870 ca        1 21C      0.009400
      7 Cl2         2.3860    8.7350    4.9430 cl        1 21C     -0.045400
      8 C05         2.1640    6.0860    5.0540 ca        1 21C     -0.125000
      9 C06         2.5820    4.7860    5.3870 ca        1 21C      0.110600
     10 N07         1.7980    3.6530    5.0930 nu        1 21C     -0.600400
     11 C08         1.0610    3.5450    3.9460 c2        1 21C      0.141000
     12 N10        -0.3730    2.2750    2.3820 nh        1 21C     -0.295200
     13 C11        -1.7480    2.6650    2.6440 c3        1 21C      0.169100
     14 C12        -2.6200    2.7090   -1.0380 c2        1 21C     -0.178000
     15 N14        -1.5410    0.6820   -1.8800 ny        1 21C     -0.572700
     16 S15        -1.6700   -0.8720   -0.9230 s6        1 21C      1.971600
     17 O16        -0.4430   -1.0140   -0.2890 o         1 21C     -0.572800
     18 C18        -0.9780   -3.1370   -2.1640 c3        1 21C      0.140700
     19 O19        -1.5720   -1.8560   -2.2730 os        1 21C     -0.514500
     20 O22         0.6120    1.2070    4.2730 oh        1 21C     -0.485100
     21 C23         3.8130    4.6400    6.0910 ca        1 21C      0.108100
     22 O24         4.2060    3.3600    6.4090 oh        1 21C     -0.506100
     23 C25         4.5790    5.7560    6.4340 ca        1 21C     -0.174000
     24 H131       -2.7400    3.4610   -0.2440 ha        1 21C      0.133500
     25 H171       -3.8520   -1.5080   -0.7580 h4        1 21C      0.259000
     26 H172       -3.2990   -0.6280    0.6410 h4        1 21C      0.259000
     27 H201        1.7390    1.9400    0.0210 hc        1 21C      0.078700
     28 H202       -0.9140    1.7190    0.1300 hx        1 21C      0.336000
     29 H211        1.2970    0.2700    0.5930 hc        1 21C      0.078700
     30 H212        2.1000    1.4430    1.7310 hc        1 21C      0.078700
     31 H051        1.2040    6.2470    4.5370 ha        1 21C      0.154000
     32 H071        1.3120    0.6720    3.8620 ho        1 21C      0.410000
     33 H081        0.9070    4.4780    3.3680 h4        1 21C      0.165000
     34 H082        2.0220    2.8180    5.5980 hn        1 21C      0.467800
     35 H111       -2.1450    2.0510    3.4970 h1        1 21C      0.071367
     36 H112       -1.7720    3.7500    2.9300 h1        1 21C      0.071367
     37 H121       -3.2670    2.8630   -1.9150 ha        1 21C      0.133500
     38 H122       -2.3780    2.5020    1.7300 h1        1 21C      0.071367
     39 H141       -2.2140    0.7360   -2.6450 hn        1 21C      0.436800
     40 H182       -1.6760   -3.8250   -1.6250 h1        1 21C      0.077033
     41 H183        0.0110   -3.0660   -1.6440 h1        1 21C      0.077033
     42 H2         -0.8430   -3.4670   -3.2280 h1        1 21C      0.077033
     43 H241        4.9940    3.4150    6.9720 ho        1 21C      0.442000
     44 H251        5.5250    5.6220    6.9830 ha        1 21C      0.165000
     45 C09         0.5020    2.3650    3.5210 c2        1 21C     -0.032900
     46 H142       -0.6150    0.8160   -2.2890 hn        1 21C      0.436800
     47 Cl1         5.1080    8.3660    6.4970 cl        1 21C     -0.033400
@<TRIPOS>BOND
     1    1   14 2   
     2    1   15 1   
     3    1   28 1   
     4    2   16 2   
     5    2   25 1   
     6    2   26 1   
     7    3    4 1   
     8    3   27 1   
     9    3   29 1   
    10    3   30 1   
    11    4   12 3   
    12    5    6 ar  
    13    5   23 ar  
    14    5   47 1   
    15    6    7 1   
    16    6    8 ar  
    17    8    9 ar  
    18    8   31 1   
    19    9   10 1   
    20    9   21 ar  
    21   10   11 1   
    22   10   34 1   
    23   11   33 1   
    24   11   45 2   
    25   12   13 1   
    26   12   45 1   
    27   13   35 1   
    28   13   36 1   
    29   13   38 1   
    30   14   24 1   
    31   14   37 1   
    32   15   16 1   
    33   15   39 1   
    34   15   46 1   
    35   16   17 2   
    36   16   19 1   
    37   18   19 1   
    38   18   40 1   
    39   18   41 1   
    40   18   42 1   
    41   20   32 1   
    42   20   45 1   
    43   21   22 1   
    44   21   23 ar  
    45   22   43 1   
    46   23   44 1   
@<TRIPOS>SUBSTRUCTURE
     1 21C         1 TEMP              0 ****  ****    0 ROOT
