@<TRIPOS>MOLECULE
21C
   46    47     1     0     0
SMALL
bcc


@<TRIPOS>ATOM
      1 C13        -3.8850   -0.4880    0.1660 c3        1 21C      0.236500
      2 C17        -6.0450    2.2600   -0.2140 c3        1 21C     -0.313600
      3 C20        -3.4640   -1.9480   -0.0800 c3        1 21C     -0.119400
      4 C21        -2.3200   -2.3380    0.8570 c3        1 21C      0.081500
      5 C02         6.1490    0.0920    0.2360 ca        1 21C     -0.007600
      6 C03         5.0180    0.8850    0.4670 ca        1 21C      0.043400
      7 CL2         5.1690    2.4630    1.0750 cl        1 21C     -0.070400
      8 C05         3.7370    0.3960    0.2030 ca        1 21C     -0.172000
      9 C06         3.5500   -0.9080   -0.2980 ca        1 21C      0.124600
     10 N07         2.2870   -1.4010   -0.6580 nh        1 21C     -0.716600
     11 C08         1.1280   -0.8450   -0.0000 c3        1 21C      0.117800
     12 N10        -1.1820   -1.4380    0.8000 n         1 21C     -0.454800
     13 C11        -1.5370   -0.0450    0.9480 c3        1 21C      0.081500
     14 C12        -2.6480    0.4140    0.0010 c3        1 21C     -0.119400
     15 N14        -4.9880   -0.0800   -0.6660 n3        1 21C     -0.923100
     16 S15        -6.3640    0.5680   -0.1190 s6        1 21C      1.454900
     17 O16        -6.5640    0.2340    1.2360 o         1 21C     -0.648800
     18 C18        -7.2190    3.0510    0.3010 c3        1 21C     -0.076100
     19 O19        -7.4010    0.2680   -1.0260 o         1 21C     -0.648800
     20 O22         0.1470   -3.0610   -0.1190 o         1 21C     -0.597100
     21 C23         4.7150   -1.6940   -0.5400 ca        1 21C      0.050100
     22 O24         4.6060   -3.0080   -0.9580 oh        1 21C     -0.508100
     23 C25         5.9910   -1.2000   -0.2760 ca        1 21C     -0.096000
     24 H131       -4.2290   -0.4090    1.2460 h1        1 21C      0.078700
     25 H171       -5.1360    2.5450    0.3770 h1        1 21C      0.103700
     26 H172       -5.8350    2.5810   -1.2680 h1        1 21C      0.103700
     27 H201       -4.3260   -2.6350    0.1180 hc        1 21C      0.058200
     28 H202       -3.1520   -2.0840   -1.1470 hc        1 21C      0.058200
     29 H211       -2.6970   -2.3300    1.9200 h1        1 21C      0.066700
     30 H212       -1.9840   -3.3850    0.6080 h1        1 21C      0.066700
     31 H051        2.8710    1.0520    0.3830 ha        1 21C      0.149000
     32 H071        2.2600   -2.4060   -0.7240 hn        1 21C      0.431800
     33 H081        1.3830   -0.4210    1.0160 h1        1 21C      0.068200
     34 H082        0.7520   -0.0060   -0.6560 h1        1 21C      0.068200
     35 H111       -1.8930    0.0930    2.0120 h1        1 21C      0.066700
     36 H112       -0.6410    0.6180    0.8050 h1        1 21C      0.066700
     37 H121       -2.2900    0.3880   -1.0600 hc        1 21C      0.058200
     38 H122       -2.9050    1.4760    0.2510 hc        1 21C      0.058200
     39 H141       -4.8560   -0.2850   -1.6280 hn        1 21C      0.449800
     40 H182       -8.1310    2.8390   -0.3110 hc        1 21C      0.054700
     41 H183       -7.4300    2.7880    1.3670 hc        1 21C      0.054700
     42 H2         -7.0070    4.1450    0.2450 hc        1 21C      0.054700
     43 H241        4.2870   -2.9830   -1.8730 ho        1 21C      0.421000
     44 H251        6.8660   -1.8430   -0.4640 ha        1 21C      0.167000
     45 C09        -0.0060   -1.8630    0.1910 c         1 21C      0.643100
     46 CL1         7.7120    0.6640    0.5580 cl        1 21C     -0.065400
@<TRIPOS>BOND
     1    1    3 1   
     2    1   14 1   
     3    1   15 1   
     4    1   24 1   
     5    2   16 1   
     6    2   18 1   
     7    2   25 1   
     8    2   26 1   
     9    3    4 1   
    10    3   27 1   
    11    3   28 1   
    12    4   12 1   
    13    4   29 1   
    14    4   30 1   
    15    5    6 ar  
    16    5   23 ar  
    17    5   46 1   
    18    6    7 1   
    19    6    8 ar  
    20    8    9 ar  
    21    8   31 1   
    22    9   10 1   
    23    9   21 ar  
    24   10   11 1   
    25   10   32 1   
    26   11   33 1   
    27   11   34 1   
    28   11   45 1   
    29   12   13 1   
    30   12   45 1   
    31   13   14 1   
    32   13   35 1   
    33   13   36 1   
    34   14   37 1   
    35   14   38 1   
    36   15   16 1   
    37   15   39 1   
    38   16   17 2   
    39   16   19 2   
    40   18   40 1   
    41   18   41 1   
    42   18   42 1   
    43   20   45 2   
    44   21   22 1   
    45   21   23 ar  
    46   22   43 1   
    47   23   44 1   
@<TRIPOS>SUBSTRUCTURE
     1 21C         1 TEMP              0 ****  ****    0 ROOT
