@<TRIPOS>MOLECULE
21C
   48    47     1     0     0
SMALL
bcc


@<TRIPOS>ATOM
      1 C13      -227.0140 -276.8400 -298.7930 c2        1 21C     -0.148000
      2 C17      -228.1340 -274.4600 -296.5010 c2        1 21C     -1.440000
      3 C20       138.8760  171.5000  185.6100 c3        1 21C     -0.189000
      4 C21       138.5520  170.0830  185.7710 c1        1 21C     -0.023100
      5 C02       135.4210  165.9800  179.0020 ca        1 21C      0.094400
      6 C03       135.1270  166.1690  180.3700 ca        1 21C     -0.011600
      7 CL2       134.0540  165.1470  181.1780 cl        1 21C     -0.003400
      8 C05       135.7260  167.2100  181.0780 ca        1 21C     -0.055000
      9 C06       136.6210  168.0790  180.4340 ca        1 21C     -0.086400
     10 N07       137.2370  169.1910  181.1630 n4        1 21C     -0.462200
     11 C08       137.6870  168.8200  182.4910 c2        1 21C     -0.256000
     12 N10       137.9690  169.2770  184.9070 nh        1 21C     -0.390200
     13 C11       137.8210  167.8690  185.2560 c3        1 21C      0.198100
     14 C12      -226.5390 -277.9820 -298.2860 c2        1 21C     -0.112000
     15 N14      -226.5830 -275.5180 -298.4030 n4        1 21C     -0.576700
     16 S15      -228.0930 -274.4480 -297.9100 s6        1 21C      1.944600
     17 O16      -229.0710 -274.8120 -298.8130 o         1 21C     -0.541800
     18 C18      -228.2210 -272.0640 -299.0990 c3        1 21C      0.134700
     19 O19      -227.4090 -273.0470 -298.4730 os        1 21C     -0.501500
     20 O22       136.8730  170.8200  183.3780 oh        1 21C     -0.519100
     21 C23       136.9150  167.8860  179.0620 ca        1 21C      0.172100
     22 O24       137.7950  168.7650  178.4860 oh        1 21C     -0.514100
     23 C25       136.3120  166.8380  178.3560 ca        1 21C     -0.188000
     24 H131     -226.9420 -278.9500 -298.6300 ha        1 21C      0.164500
     25 H171     -227.6730 -273.7530 -295.7780 h4        1 21C      0.274000
     26 H172     -228.6690 -275.1720 -295.8350 h4        1 21C      0.274000
     27 H201      139.9580  171.6190  185.8950 hc        1 21C      0.081367
     28 H202     -227.7900 -276.8140 -299.5900 hx        1 21C      0.206000
     29 H211      138.2740  172.0810  186.3580 hc        1 21C      0.081367
     30 H212      138.7310  171.9450  184.5930 hc        1 21C      0.081367
     31 H051      135.4940  167.3460  182.1500 ha        1 21C      0.174000
     32 H071      136.7040  171.2830  184.2190 ho        1 21C      0.477000
     33 H081      138.2030  167.8460  182.5400 hx        1 21C      0.212000
     34 H082      138.0530  169.5250  180.6230 hn        1 21C      0.466800
     35 H111      136.7910  167.5200  184.9860 h1        1 21C      0.073367
     36 H112      138.5870  167.2610  184.7060 h1        1 21C      0.073367
     37 H121     -225.7510 -278.0490 -297.5200 ha        1 21C      0.164500
     38 H122      137.9840  167.7540  186.3620 h1        1 21C      0.073367
     39 H141     -225.9280 -275.5740 -297.6230 hn        1 21C      0.447800
     40 H182     -228.8060 -271.5160 -298.3180 h1        1 21C      0.088033
     41 H183     -228.8890 -272.5360 -299.8630 h1        1 21C      0.088033
     42 H2       -227.4760 -271.3790 -299.5890 h1        1 21C      0.088033
     43 H241      137.9330  168.5150  177.5560 ho        1 21C      0.471000
     44 H251      136.5460  166.6950  177.2870 ha        1 21C      0.184000
     45 C09       137.5130  169.6220  183.5900 c2        1 21C      0.300100
     46 H072      136.5510  169.9600  181.2220 hn        1 21C      0.466800
     47 H142     -226.0810 -275.0960 -299.1870 hn        1 21C      0.447800
     48 CL1       134.7110  164.7300  178.1290 cl        1 21C      0.015600
@<TRIPOS>BOND
     1    1   14 2   
     2    1   15 1   
     3    1   28 1   
     4    2   16 2   
     5    2   25 1   
     6    2   26 1   
     7    3    4 1   
     8    3   27 1   
     9    3   29 1   
    10    3   30 1   
    11    4   12 3   
    12    5    6 ar  
    13    5   23 ar  
    14    5   48 1   
    15    6    7 1   
    16    6    8 ar  
    17    8    9 ar  
    18    8   31 1   
    19    9   10 1   
    20    9   21 ar  
    21   10   11 1   
    22   10   34 1   
    23   10   46 1   
    24   11   33 1   
    25   11   45 2   
    26   12   13 1   
    27   12   45 1   
    28   13   35 1   
    29   13   36 1   
    30   13   38 1   
    31   14   24 1   
    32   14   37 1   
    33   15   16 1   
    34   15   39 1   
    35   15   47 1   
    36   16   17 2   
    37   16   19 1   
    38   18   19 1   
    39   18   40 1   
    40   18   41 1   
    41   18   42 1   
    42   20   32 1   
    43   20   45 1   
    44   21   22 1   
    45   21   23 ar  
    46   22   43 1   
    47   23   44 1   
@<TRIPOS>SUBSTRUCTURE
     1 21C         1 TEMP              0 ****  ****    0 ROOT
