@<TRIPOS>MOLECULE
21C
   47    46     1     0     0
SMALL
bcc


@<TRIPOS>ATOM
      1 C13        -1.2860    0.5140   -2.9330 ce        1 21C     -0.192100
      2 C17        -1.3460   -1.5630   -1.3410 c3        1 21C     -0.313600
      3 C20         1.4760    2.1970    1.6170 c3        1 21C     -0.210400
      4 C21         0.0000    2.2410    1.5870 c2        1 21C      0.322200
      5 C02         4.3570    6.2760    6.5930 ca        1 21C      0.051400
      6 C03         3.1760    6.2840    7.3550 ca        1 21C      0.011400
      7 CL2         3.0460    7.2290    8.7500 cl        1 21C     -0.025400
      8 C05         2.0850    5.5070    6.9670 ca        1 21C     -0.109000
      9 C06         2.1440    4.6960    5.8150 ca        1 21C      0.093600
     10 N07         1.0300    3.8930    5.4900 nh        1 21C     -0.589400
     11 C08         0.6620    3.6030    4.2170 c2        1 21C      0.186000
     12 N10        -0.8230    2.4660    2.5860 nh        1 21C     -0.002300
     13 C11        -2.2700    2.4010    2.3850 c3        1 21C     -0.046400
     14 C12        -2.3980    1.1770   -3.3120 c2        1 21C     -0.114000
     15 N14        -0.3150    0.0170   -3.8310 nh        1 21C     -0.779600
     16 S15        -1.0240    0.0930   -1.3070 sy        1 21C      1.347900
     17 O16        -1.9420    0.7880   -0.4770 o         1 21C     -0.693300
     18 C18        -1.1750   -2.2020    0.0130 c3        1 21C     -0.078100
     19 O19         0.3010    0.3840   -0.9170 o         1 21C     -0.693300
     20 O22        -1.2440    2.3140    4.9140 oh        1 21C     -0.477100
     21 C23         3.3430    4.6980    5.0570 ca        1 21C      0.112100
     22 O24         3.3950    3.9200    3.9180 oh        1 21C     -0.528100
     23 C25         4.4330    5.4850    5.4460 ca        1 21C     -0.174000
     24 H131       -3.1810    1.4450   -2.5840 ha        1 21C      0.147000
     25 H171       -0.6760   -2.1010   -2.0720 h1        1 21C      0.141200
     26 H172       -2.3880   -1.7800   -1.7060 h1        1 21C      0.141200
     27 H201        1.8870    3.1760    1.2520 hc        1 21C      0.104033
     28 H202       -0.4640    2.0380    0.5860 h4        1 21C      0.085800
     29 H211        1.9020    1.9920    2.6320 hc        1 21C      0.104033
     30 H212        1.8070    1.3940    0.8990 hc        1 21C      0.104033
     31 H051        1.1670    5.5300    7.5800 ha        1 21C      0.168000
     32 H071       -0.9530    1.4140    5.1420 ho        1 21C      0.419000
     33 H081        1.2710    4.0610    3.4080 h4        1 21C      0.187000
     34 H082        0.4450    3.6010    6.2470 hn        1 21C      0.467800
     35 H111       -2.7180    1.7490    3.1830 h1        1 21C      0.105700
     36 H112       -2.6880    3.4380    2.4860 h1        1 21C      0.105700
     37 H121       -2.5090    1.9760    1.3690 h1        1 21C      0.105700
     38 H122       -2.6020    1.4720   -4.3510 ha        1 21C      0.147000
     39 H141       -0.5760    0.1440   -4.7890 hn        1 21C      0.387300
     40 H182       -1.8830   -1.7530    0.7530 hc        1 21C      0.058367
     41 H183       -0.1270   -2.0710    0.3800 hc        1 21C      0.058367
     42 H2         -1.3860   -3.2980   -0.0490 hc        1 21C      0.058367
     43 H241        4.3150    3.9010    3.6100 ho        1 21C      0.444000
     44 H251        5.3570    5.4720    4.8450 ha        1 21C      0.167000
     45 C09        -0.3980    2.7660    3.9170 c2        1 21C     -0.171000
     46 H142        0.5870    0.4220   -3.6570 hn        1 21C      0.387300
     47 CL1         5.6930    7.2080    7.0360 cl        1 21C     -0.019400
@<TRIPOS>BOND
     1    1   14 2   
     2    1   15 1   
     3    1   16 1   
     4    2   16 1   
     5    2   18 1   
     6    2   25 1   
     7    2   26 1   
     8    3    4 1   
     9    3   27 1   
    10    3   29 1   
    11    3   30 1   
    12    4   12 2   
    13    4   28 1   
    14    5    6 ar  
    15    5   23 ar  
    16    5   47 1   
    17    6    7 1   
    18    6    8 ar  
    19    8    9 ar  
    20    8   31 1   
    21    9   10 1   
    22    9   21 ar  
    23   10   11 1   
    24   10   34 1   
    25   11   33 1   
    26   11   45 2   
    27   12   13 1   
    28   12   45 1   
    29   13   35 1   
    30   13   36 1   
    31   13   37 1   
    32   14   24 1   
    33   14   38 1   
    34   15   39 1   
    35   15   46 1   
    36   16   17 2   
    37   16   19 2   
    38   18   40 1   
    39   18   41 1   
    40   18   42 1   
    41   20   32 1   
    42   20   45 1   
    43   21   22 1   
    44   21   23 ar  
    45   22   43 1   
    46   23   44 1   
@<TRIPOS>SUBSTRUCTURE
     1 21C         1 TEMP              0 ****  ****    0 ROOT
