@<TRIPOS>MOLECULE
21D
   24    25     1     0     0
SMALL
bcc


@<TRIPOS>ATOM
      1 OAE         0.1570   -0.2300   -0.5990 o         1 21D     -0.754867
      2 SAQ         1.4330   -0.0220   -0.0010 s6        1 21D      1.450100
      3 OAA         1.3590    0.0990    1.4110 o         1 21D     -0.754867
      4 OAB         2.3870   -0.9910   -0.4090 o         1 21D     -0.754867
      5 CAM         1.9900    1.5350   -0.6190 ca        1 21D     -0.264500
      6 CAI         1.1720    2.2170   -1.4900 ca        1 21D     -0.070000
      7 CAH         1.5440    3.4690   -2.0300 ca        1 21D     -0.175000
      8 CAL         2.7440    4.0400   -1.6930 ca        1 21D     -0.088000
      9 CAP         3.6320    3.3800   -0.7960 ca        1 21D      0.020000
     10 CAO         3.2410    2.1200   -0.2620 ca        1 21D      0.020000
     11 CAK         4.1290    1.4600    0.6350 ca        1 21D     -0.088000
     12 CAG         5.3300    2.0300    0.9720 ca        1 21D     -0.175000
     13 CAJ         5.7010    3.2830    0.4320 ca        1 21D     -0.070000
     14 CAN         4.8830    3.9650   -0.4390 ca        1 21D     -0.264500
     15 SAR         5.4410    5.5220   -1.0570 s6        1 21D      1.450100
     16 OAF         5.5150    5.4000   -2.4690 o         1 21D     -0.754867
     17 OAD         4.4870    6.4900   -0.6490 o         1 21D     -0.754867
     18 OAC         6.7170    5.7290   -0.4600 o         1 21D     -0.754867
     19 H1          0.2010    1.7780   -1.7760 ha        1 21D      0.139000
     20 H2          0.8590    3.9780   -2.7220 ha        1 21D      0.100000
     21 H3          3.0500    5.0170   -2.1060 ha        1 21D      0.151000
     22 H4          3.8240    0.4820    1.0480 ha        1 21D      0.151000
     23 H5          6.0150    1.5210    1.6640 ha        1 21D      0.100000
     24 H6          6.6730    3.7210    0.7180 ha        1 21D      0.139000
@<TRIPOS>BOND
     1    1    2 1   
     2    2    3 1   
     3    2    4 1   
     4    2    5 1   
     5    5    6 ar  
     6    5   10 ar  
     7    6    7 ar  
     8    6   19 1   
     9    7    8 ar  
    10    7   20 1   
    11    8    9 ar  
    12    8   21 1   
    13    9   10 ar  
    14    9   14 ar  
    15   10   11 ar  
    16   11   12 ar  
    17   11   22 1   
    18   12   13 ar  
    19   12   23 1   
    20   13   14 ar  
    21   13   24 1   
    22   14   15 1   
    23   15   16 1   
    24   15   17 1   
    25   15   18 1   
@<TRIPOS>SUBSTRUCTURE
     1 21D         1 TEMP              0 ****  ****    0 ROOT
