@<TRIPOS>MOLECULE
21E
   42    44     1     0     0
SMALL
bcc


@<TRIPOS>ATOM
      1 CAI        -1.4360   -0.1880   -1.5320 ca        1 21E     -0.230300
      2 CAL        -2.7830   -0.4120   -1.6430 ca        1 21E     -0.088000
      3 CAT        -3.5670   -0.5780   -0.4660 ca        1 21E     -0.145300
      4 CAJ        -4.9650   -0.8110   -0.5150 ca        1 21E     -0.114000
      5 CAG        -5.6850   -0.9650    0.6440 ca        1 21E     -0.124000
      6 CAH        -5.0380   -0.8920    1.9000 ca        1 21E     -0.126000
      7 CAK        -3.6870   -0.6690    1.9870 ca        1 21E     -0.160300
      8 CAU        -2.9040   -0.5040    0.7980 ca        1 21E      0.390600
      9 NAM        -1.5440   -0.2850    0.9040 nb        1 21E     -0.631000
     10 CAQ        -0.8500   -0.1320   -0.2190 ca        1 21E      0.386300
     11 CAR         0.6050    0.0810   -0.1430 cc        1 21E      0.301300
     12 NAN         1.4510   -0.8490    0.3700 nd        1 21E     -0.483800
     13 NAV         2.7060   -0.3640    0.2770 na        1 21E      0.062400
     14 CAW         3.8910   -1.1410    0.7090 c3        1 21E      0.088700
     15 CAB         3.4830   -2.4370    1.4360 c3        1 21E     -0.103100
     16 CAC         4.7460   -1.5530   -0.5010 c3        1 21E     -0.103100
     17 CAA         4.7640   -0.3310    1.6830 c3        1 21E     -0.103100
     18 CAP         2.7140    0.9210   -0.3190 cd        1 21E      0.205300
     19 NAE         3.8010    1.7530   -0.4810 nh        1 21E     -0.814200
     20 CAS         1.3450    1.2350   -0.6040 cc        1 21E     -0.390900
     21 CAO         0.9070    2.4750   -1.2260 c         1 21E      0.721700
     22 OAF         1.7170    3.2720   -1.7670 o         1 21E     -0.671100
     23 NAD        -0.4330    2.7800   -1.2440 n         1 21E     -0.664000
     24 H1         -0.7900   -0.0520   -2.4110 ha        1 21E      0.158000
     25 H2         -3.2740   -0.4690   -2.6260 ha        1 21E      0.142000
     26 H3         -5.4560   -0.8660   -1.4990 ha        1 21E      0.135000
     27 H4         -6.7690   -1.1460    0.6110 ha        1 21E      0.135000
     28 H5         -5.6380   -1.0200    2.8140 ha        1 21E      0.137000
     29 H6         -3.1850   -0.6150    2.9660 ha        1 21E      0.153000
     30 H7          2.8840   -3.1020    0.7690 hc        1 21E      0.050478
     31 H8          4.4110   -2.9810    1.7360 hc        1 21E      0.050478
     32 H9          2.8870   -2.2070    2.3510 hc        1 21E      0.050478
     33 H10         5.1110   -0.6720   -1.0770 hc        1 21E      0.050478
     34 H11         5.6330   -2.1190   -0.1300 hc        1 21E      0.050478
     35 H12         4.1620   -2.2120   -1.1880 hc        1 21E      0.050478
     36 H13         4.1400    0.1840    2.4520 hc        1 21E      0.050478
     37 H14         5.4600   -1.0320    2.2050 hc        1 21E      0.050478
     38 H15         5.3820    0.4280    1.1510 hc        1 21E      0.050478
     39 H16         4.6720    1.3170   -0.6860 hn        1 21E      0.428800
     40 H17         3.5930    2.5710   -1.0240 hn        1 21E      0.428800
     41 H18        -1.0840    2.2400   -0.7350 hn        1 21E      0.313000
     42 H19        -0.7170    3.6550   -1.6080 hn        1 21E      0.313000
@<TRIPOS>BOND
     1    1    2 ar  
     2    1   10 ar  
     3    1   24 1   
     4    2    3 ar  
     5    2   25 1   
     6    3    4 ar  
     7    3    8 ar  
     8    4    5 ar  
     9    4   26 1   
    10    5    6 ar  
    11    5   27 1   
    12    6    7 ar  
    13    6   28 1   
    14    7    8 ar  
    15    7   29 1   
    16    8    9 ar  
    17    9   10 ar  
    18   10   11 1   
    19   11   12 2   
    20   11   20 1   
    21   12   13 1   
    22   13   14 1   
    23   13   18 1   
    24   14   15 1   
    25   14   16 1   
    26   14   17 1   
    27   15   30 1   
    28   15   31 1   
    29   15   32 1   
    30   16   33 1   
    31   16   34 1   
    32   16   35 1   
    33   17   36 1   
    34   17   37 1   
    35   17   38 1   
    36   18   19 1   
    37   18   20 2   
    38   19   39 1   
    39   19   40 1   
    40   20   21 1   
    41   21   22 2   
    42   21   23 1   
    43   23   41 1   
    44   23   42 1   
@<TRIPOS>SUBSTRUCTURE
     1 21E         1 TEMP              0 ****  ****    0 ROOT
