@<TRIPOS>MOLECULE
21E
   43    45     1     0     0
SMALL
bcc


@<TRIPOS>ATOM
      1 CAI        -0.2600    1.1480    0.5510 ca        1 21E     -0.222300
      2 CAL         1.1120    1.2130    0.4750 ca        1 21E     -0.051000
      3 CAT         1.9080    0.4810    1.3960 ca        1 21E     -0.134300
      4 CAJ         3.3260    0.5000    1.3580 ca        1 21E     -0.097000
      5 CAG         4.0550   -0.2230    2.2690 ca        1 21E     -0.110000
      6 CAH         3.3970   -0.9990    3.2560 ca        1 21E     -0.086000
      7 CAK         2.0280   -1.0400    3.3260 ca        1 21E     -0.200300
      8 CAU         1.2360   -0.2960    2.3910 ca        1 21E      0.408600
      9 NAM        -0.1370   -0.3460    2.4590 nb        1 21E     -0.764000
     10 CAQ        -0.8620    0.3360    1.5690 ca        1 21E      0.407300
     11 CAR        -2.3340    0.2220    1.5910 cc        1 21E      0.321300
     12 NAN        -3.0360    0.4200    0.4510 nd        1 21E     -0.450800
     13 NAV        -4.3500    0.2420    0.6930 na        1 21E      0.059400
     14 CAW        -5.3830    0.3750   -0.3780 c3        1 21E      0.083700
     15 CAB        -4.7420    0.7540   -1.7260 c3        1 21E     -0.110433
     16 CAC        -6.1240   -0.9530   -0.5860 c3        1 21E     -0.110433
     17 CAA        -6.3900    1.4790   -0.0270 c3        1 21E     -0.110433
     18 CAP        -4.5710   -0.1020    2.0410 cd        1 21E      0.299300
     19 NAE        -5.7530   -0.3500    2.6420 nv        1 21E     -0.827200
     20 CAS        -3.2510   -0.1220    2.6760 cc        1 21E     -0.448900
     21 CAO        -3.1120   -0.4500    4.0410 c         1 21E      0.608700
     22 OAF        -3.9940   -0.7810    4.8460 o         1 21E     -0.547100
     23 NAD        -1.7460   -0.4090    4.6600 nz        1 21E     -0.764400
     24 H1         -0.8890    1.7080   -0.1570 ha        1 21E      0.174000
     25 H2          1.6070    1.8270   -0.2950 ha        1 21E      0.163000
     26 H3          3.8260    1.1030    0.5830 ha        1 21E      0.154000
     27 H4          5.1560   -0.2140    2.2430 ha        1 21E      0.158000
     28 H5          4.0070   -1.5770    3.9700 ha        1 21E      0.154000
     29 H6          1.5280   -1.6600    4.0860 ha        1 21E      0.135000
     30 H7         -5.5550    0.8410   -2.4880 hc        1 21E      0.060367
     31 H8         -4.2140    1.7350   -1.6590 hc        1 21E      0.060367
     32 H9         -4.0220   -0.0280   -2.0650 hc        1 21E      0.060367
     33 H10        -6.8060   -0.8380   -1.4660 hc        1 21E      0.060367
     34 H11        -6.7490   -1.2370    0.2910 hc        1 21E      0.060367
     35 H12        -5.4080   -1.7820   -0.8040 hc        1 21E      0.060367
     36 H13        -5.8710    2.4450    0.1790 hc        1 21E      0.060367
     37 H14        -7.0660    1.6250   -0.9060 hc        1 21E      0.060367
     38 H15        -7.0260    1.2160    0.8480 hc        1 21E      0.060367
     39 H16        -5.7580   -0.6040    3.6070 hn        1 21E      0.474300
     40 H17        -6.6090   -0.3300    2.1400 hn        1 21E      0.474300
     41 H18        -1.5140    0.5550    4.9040 hn        1 21E      0.472800
     42 H19        -1.7370   -0.9800    5.5090 hn        1 21E      0.472800
     43 HAD3       -1.0300   -0.7590    3.9680 hn        1 21E      0.472800
@<TRIPOS>BOND
     1    1    2 ar  
     2    1   10 ar  
     3    1   24 1   
     4    2    3 ar  
     5    2   25 1   
     6    3    4 ar  
     7    3    8 ar  
     8    4    5 ar  
     9    4   26 1   
    10    5    6 ar  
    11    5   27 1   
    12    6    7 ar  
    13    6   28 1   
    14    7    8 ar  
    15    7   29 1   
    16    8    9 ar  
    17    9   10 ar  
    18   10   11 1   
    19   11   12 2   
    20   11   20 1   
    21   12   13 1   
    22   13   14 1   
    23   13   18 1   
    24   14   15 1   
    25   14   16 1   
    26   14   17 1   
    27   15   30 1   
    28   15   31 1   
    29   15   32 1   
    30   16   33 1   
    31   16   34 1   
    32   16   35 1   
    33   17   36 1   
    34   17   37 1   
    35   17   38 1   
    36   18   19 1   
    37   18   20 2   
    38   19   39 1   
    39   19   40 1   
    40   20   21 1   
    41   21   22 2   
    42   21   23 1   
    43   23   41 1   
    44   23   42 1   
    45   23   43 1   
@<TRIPOS>SUBSTRUCTURE
     1 21E         1 TEMP              0 ****  ****    0 ROOT
