@<TRIPOS>MOLECULE
21E
   43    45     1     0     0
SMALL
bcc


@<TRIPOS>ATOM
      1 CAI        -0.2440    1.1090    0.5340 ca        1 21E     -0.222300
      2 CAL         1.1280    1.1560    0.4630 ca        1 21E     -0.051000
      3 CAT         1.9110    0.4370    1.4040 ca        1 21E     -0.134300
      4 CAJ         3.3300    0.4390    1.3730 ca        1 21E     -0.097000
      5 CAG         4.0450   -0.2710    2.3050 ca        1 21E     -0.110000
      6 CAH         3.3740   -1.0150    3.3070 ca        1 21E     -0.086000
      7 CAK         2.0040   -1.0400    3.3710 ca        1 21E     -0.200300
      8 CAU         1.2250   -0.3080    2.4150 ca        1 21E      0.407600
      9 NAM        -0.1480   -0.3410    2.4770 nb        1 21E     -0.764000
     10 CAQ        -0.8610    0.3280    1.5680 ca        1 21E      0.407300
     11 CAR        -2.3340    0.2320    1.5850 cc        1 21E      0.321300
     12 NAN        -3.0290    0.4100    0.4370 nd        1 21E     -0.450800
     13 NAV        -4.3460    0.2540    0.6770 na        1 21E      0.059400
     14 CAW        -5.3720    0.3710   -0.4020 c3        1 21E      0.083700
     15 CAB        -4.7200    0.7100   -1.7560 c3        1 21E     -0.110433
     16 CAC        -6.1280   -0.9530   -0.5810 c3        1 21E     -0.110433
     17 CAA        -6.3680    1.4960   -0.0840 c3        1 21E     -0.110433
     18 CAP        -4.5770   -0.0550    2.0320 cd        1 21E      0.299300
     19 NAE        -5.7640   -0.2740    2.6330 nh        1 21E     -0.827200
     20 CAS        -3.2600   -0.0750    2.6740 cc        1 21E     -0.448900
     21 CAO        -3.1310   -0.3700    4.0470 c         1 21E      0.608700
     22 OAF        -4.0220   -0.6710    4.8560 o         1 21E     -0.547100
     23 NAD        -1.7670   -0.3310    4.6710 n4        1 21E     -0.764400
     24 H1         -0.8640    1.6590   -0.1900 ha        1 21E      0.174000
     25 H2          1.6340    1.7450   -0.3190 ha        1 21E      0.163000
     26 H3          3.8400    1.0170    0.5870 ha        1 21E      0.154000
     27 H4          5.1470   -0.2760    2.2840 ha        1 21E      0.158000
     28 H5          3.9740   -1.5830    4.0370 ha        1 21E      0.154000
     29 H6          1.4930   -1.6350    4.1430 ha        1 21E      0.135000
     30 H7         -4.0080   -0.0890   -2.0720 hc        1 21E      0.060367
     31 H8         -4.1810    1.6860   -1.7110 hc        1 21E      0.060367
     32 H9         -5.5290    0.7870   -2.5230 hc        1 21E      0.060367
     33 H10        -5.4210   -1.7950   -0.7750 hc        1 21E      0.060367
     34 H11        -6.8040   -0.8510   -1.4660 hc        1 21E      0.060367
     35 H12        -6.7600   -1.2070    0.3000 hc        1 21E      0.060367
     36 H13        -7.0390    1.6270   -0.9700 hc        1 21E      0.060367
     37 H14        -5.8380    2.4610    0.1010 hc        1 21E      0.060367
     38 H15        -7.0110    1.2620    0.7950 hc        1 21E      0.060367
     39 H16        -6.6180   -0.2560    2.1270 hn        1 21E      0.474300
     40 H17        -5.7770   -0.5030    3.6040 hn        1 21E      0.474300
     41 H18        -1.5250    0.6360    4.8930 hn        1 21E      0.472800
     42 H19        -1.0530   -0.7060    3.9920 hn        1 21E      0.472800
     43 HAD3       -1.7700   -0.8800    5.5340 hn        1 21E      0.472800
@<TRIPOS>BOND
     1    1    2 ar  
     2    1   10 ar  
     3    1   24 1   
     4    2    3 ar  
     5    2   25 1   
     6    3    4 ar  
     7    3    8 ar  
     8    4    5 ar  
     9    4   26 1   
    10    5    6 ar  
    11    5   27 1   
    12    6    7 ar  
    13    6   28 1   
    14    7    8 ar  
    15    7   29 1   
    16    8    9 ar  
    17    9   10 ar  
    18   10   11 1   
    19   11   12 2   
    20   11   20 1   
    21   12   13 1   
    22   13   14 1   
    23   13   18 1   
    24   14   15 1   
    25   14   16 1   
    26   14   17 1   
    27   15   30 1   
    28   15   31 1   
    29   15   32 1   
    30   16   33 1   
    31   16   34 1   
    32   16   35 1   
    33   17   36 1   
    34   17   37 1   
    35   17   38 1   
    36   18   19 1   
    37   18   20 2   
    38   19   39 1   
    39   19   40 1   
    40   20   21 1   
    41   21   22 2   
    42   21   23 1   
    43   23   41 1   
    44   23   42 1   
    45   23   43 1   
@<TRIPOS>SUBSTRUCTURE
     1 21E         1 TEMP              0 ****  ****    0 ROOT
