@<TRIPOS>MOLECULE
21E
   42    36     1     0     0
SMALL
bcc


@<TRIPOS>ATOM
      1 CAI         2.0250   -1.3970    0.2670 c1        1 21E     -0.114250
      2 CAL         3.3830   -1.5410    0.3430 c1        1 21E     -0.114250
      3 CAT         4.1930   -0.4220    0.4660 c1        1 21E     -0.077000
      4 CAJ         5.5880   -0.5710    0.5900 c2        1 21E     -0.112000
      5 CAG         6.3930    0.5470    0.7590 c1        1 21E     -0.127000
      6 CAH         5.8230    1.8160    0.8060 c1        1 21E     -0.114250
      7 CAK         4.4480    1.9650    0.6830 c1        1 21E     -0.114250
      8 CAU         3.6300    0.8310    0.5120 c1        1 21E      0.003000
      9 NAM         2.2530    0.9750    0.4350 n1        1 21E     -0.108000
     10 CAQ         1.4560   -0.1270    0.3130 c1        1 21E      0.077000
     11 CAR        -0.0400   -0.0450    0.1040 c2        1 21E     -0.013000
     12 NAN        -0.6720    0.0160   -1.0870 n2        1 21E     -0.042000
     13 NAV        -2.0240    0.0020   -0.8530 n2        1 21E     -0.141000
     14 CAW        -3.0420   -0.0140   -1.8440 c2        1 21E      0.105000
     15 CAB        -2.4120    0.0830   -3.2160 c3        1 21E     -0.221667
     16 CAC        -3.8270   -1.3040   -1.7400 c3        1 21E     -0.221667
     17 CAA        -3.9720    1.1610   -1.6320 c3        1 21E     -0.221667
     18 CAP        -2.2160   -0.0670    0.4810 c1        1 21E      0.084000
     19 NAE        -3.4700   -0.1560    1.1400 n2        1 21E     -0.304000
     20 CAS        -0.9910   -0.0960    1.0830 c1        1 21E     -0.276000
     21 CAO        -0.7320   -0.1150    2.5750 c1        1 21E      0.372000
     22 OAF         0.4080   -0.0820    2.9940 o         1 21E     -0.362000
     23 NAD        -1.8180   -0.2130    3.4820 n3        1 21E     -0.437000
     24 H1          1.4540   -2.1850    0.1800 ha        1 21E      0.141750
     25 H2          3.7820   -2.4320    0.3100 ha        1 21E      0.141750
     26 H3          5.9880   -1.4610    0.5580 ha        1 21E      0.133000
     27 H4          7.3620    0.4430    0.8450 ha        1 21E      0.132000
     28 H5          6.3900    2.6020    0.9240 ha        1 21E      0.141750
     29 H6          4.0480    2.8550    0.7160 ha        1 21E      0.141750
     30 H7         -1.8630   -0.7130   -3.3810 hc        1 21E      0.090444
     31 H8         -3.1160    0.1420   -3.8950 hc        1 21E      0.090444
     32 H9         -1.8480    0.8840   -3.2600 hc        1 21E      0.090444
     33 H10        -3.2240   -2.0340   -1.4860 hc        1 21E      0.090444
     34 H11        -4.2380   -1.5070   -2.6060 hc        1 21E      0.090444
     35 H12        -4.5260   -1.2070   -1.0620 hc        1 21E      0.090444
     36 H13        -4.4110    1.3870   -2.4770 hc        1 21E      0.090444
     37 H14        -3.4570    1.9320   -1.3140 hc        1 21E      0.090444
     38 H15        -4.6500    0.9240   -0.9650 hc        1 21E      0.090444
     39 H16        -3.5970    0.2660    1.9410 hn        1 21E      0.198000
     40 H17        -4.1550   -0.6230    0.7560 hn        1 21E      0.198000
     41 H18        -1.6980   -0.0020    4.3630 hn        1 21E      0.219500
     42 H19        -2.6280   -0.5180    3.1920 hn        1 21E      0.219500
@<TRIPOS>BOND
     1    1    2 1   
     2    1   24 1   
     3    2   25 1   
     4    3    4 1   
     5    3    8 1   
     6    4    5 1   
     7    4   26 1   
     8    5   27 1   
     9    6    7 1   
    10    6   28 1   
    11    7   29 1   
    12    9   10 1   
    13   10   11 1   
    14   11   12 1   
    15   11   20 1   
    16   12   13 1   
    17   13   18 1   
    18   14   15 1   
    19   14   16 1   
    20   14   17 1   
    21   15   30 1   
    22   15   31 1   
    23   15   32 1   
    24   16   33 1   
    25   16   34 1   
    26   16   35 1   
    27   17   36 1   
    28   17   37 1   
    29   17   38 1   
    30   18   20 1   
    31   19   39 1   
    32   19   40 1   
    33   21   22 1   
    34   21   23 1   
    35   23   41 1   
    36   23   42 1   
@<TRIPOS>SUBSTRUCTURE
     1 21E         1 TEMP              0 ****  ****    0 ROOT
