@<TRIPOS>MOLECULE
21E
   44    46     1     0     0
SMALL
bcc


@<TRIPOS>ATOM
      1 CAI        -0.2590    1.5270    1.0560 ca        1 21E     -0.166000
      2 CAL         1.1260    1.6400    1.0660 ca        1 21E      0.044000
      3 CAT         1.9130    0.6450    1.6860 ca        1 21E     -0.076000
      4 CAJ         3.3330    0.7090    1.7230 ca        1 21E     -0.070000
      5 CAG         4.0620   -0.2850    2.3310 ca        1 21E     -0.093000
      6 CAH         3.4090   -1.3890    2.9320 ca        1 21E     -0.015000
      7 CAK         2.0340   -1.4940    2.9240 ca        1 21E     -0.168000
      8 CAU         1.2580   -0.4780    2.2970 ca        1 21E      0.036700
      9 NAM        -0.1290   -0.5570    2.2610 na        1 21E     -0.096100
     10 CAQ        -0.8770    0.4120    1.6610 ca        1 21E      0.024200
     11 CAR        -2.3350    0.2630    1.6120 cc        1 21E      0.310800
     12 NAN        -3.0280    0.3840    0.4220 nd        1 21E     -0.384800
     13 NAV        -4.3060    0.1630    0.6500 na        1 21E      0.180400
     14 CAW        -5.3740    0.2600   -0.4200 c3        1 21E      0.067700
     15 CAB        -4.7370    0.3160   -1.8170 c3        1 21E     -0.123767
     16 CAC        -6.2990   -0.9610   -0.3560 c3        1 21E     -0.123767
     17 CAA        -6.1890    1.5410   -0.2080 c3        1 21E     -0.123767
     18 CAP        -4.5200   -0.1130    2.0210 cd        1 21E     -0.065700
     19 NAE        -5.7760   -0.4490    2.6490 n4        1 21E     -0.694000
     20 CAS        -3.2530   -0.0380    2.6720 cc        1 21E     -0.214900
     21 CAO        -3.0650   -0.2490    4.1210 c         1 21E      0.682700
     22 OAF        -3.9610   -0.8440    4.7660 o         1 21E     -0.610100
     23 NAD        -1.9000    0.1560    4.7130 n         1 21E     -0.621000
     24 H1         -0.8880    2.2930    0.5710 ha        1 21E      0.202000
     25 H2          1.6190    2.5080    0.5850 ha        1 21E      0.199000
     26 H3          3.8350    1.5720    1.2510 ha        1 21E      0.182000
     27 H4          5.1660   -0.2360    2.3570 ha        1 21E      0.191000
     28 H5          4.0180   -2.1770    3.4130 ha        1 21E      0.188000
     29 H6          1.5430   -2.3620    3.3950 ha        1 21E      0.172000
     30 H7         -4.1440   -0.6060   -2.0280 hc        1 21E      0.075256
     31 H8         -4.0810    1.2130   -1.9330 hc        1 21E      0.075256
     32 H9         -5.5610    0.3920   -2.5710 hc        1 21E      0.075256
     33 H10        -6.7630   -1.1050   -1.3680 hc        1 21E      0.075256
     34 H11        -7.1400   -0.8030    0.3610 hc        1 21E      0.075256
     35 H12        -5.7530   -1.9040   -0.1120 hc        1 21E      0.075256
     36 H13        -6.6750    1.5690    0.7950 hc        1 21E      0.075256
     37 H14        -6.9930    1.5710   -0.9880 hc        1 21E      0.075256
     38 H15        -5.5520    2.4510   -0.3300 hc        1 21E      0.075256
     39 H16        -6.4380    0.3360    2.5770 hn        1 21E      0.493133
     40 H17        -6.1840   -1.2830    2.2010 hn        1 21E      0.493133
     41 H18        -1.8290    0.0390    5.7040 hn        1 21E      0.335500
     42 H19        -0.5740   -1.3570    2.6780 hn        1 21E      0.337700
     43 HAE3       -5.5890   -0.6620    3.6580 hn        1 21E      0.493133
     44 HAD3       -1.3730    0.8940    4.3110 hn        1 21E      0.335500
@<TRIPOS>BOND
     1    1    2 ar  
     2    1   10 ar  
     3    1   24 1   
     4    2    3 ar  
     5    2   25 1   
     6    3    4 ar  
     7    3    8 ar  
     8    4    5 ar  
     9    4   26 1   
    10    5    6 ar  
    11    5   27 1   
    12    6    7 ar  
    13    6   28 1   
    14    7    8 ar  
    15    7   29 1   
    16    8    9 2   
    17    9   10 1   
    18    9   42 1   
    19   10   11 1   
    20   11   12 2   
    21   11   20 1   
    22   12   13 1   
    23   13   14 1   
    24   13   18 1   
    25   14   15 1   
    26   14   16 1   
    27   14   17 1   
    28   15   30 1   
    29   15   31 1   
    30   15   32 1   
    31   16   33 1   
    32   16   34 1   
    33   16   35 1   
    34   17   36 1   
    35   17   37 1   
    36   17   38 1   
    37   18   19 1   
    38   18   20 2   
    39   19   39 1   
    40   19   40 1   
    41   19   43 1   
    42   20   21 1   
    43   21   22 2   
    44   21   23 1   
    45   23   41 1   
    46   23   44 1   
@<TRIPOS>SUBSTRUCTURE
     1 21E         1 TEMP              0 ****  ****    0 ROOT
