@<TRIPOS>MOLECULE
21F
   49    50     1     0     0
SMALL
bcc


@<TRIPOS>ATOM
      1 C13        -4.3950   -0.0610   -0.6350 c3        1 21F      0.237500
      2 C17        -8.9950    0.1430    0.8680 c3        1 21F     -0.076100
      3 C20        -4.0290   -1.4690   -0.1320 c3        1 21F     -0.119400
      4 C21        -3.3130   -2.2580   -1.2290 c3        1 21F      0.081500
      5 C26         3.5320   -2.0060    1.5900 ca        1 21F     -0.182000
      6 C02         3.6130   -0.6540    1.9400 ca        1 21F      0.053400
      7 C03         3.0300    0.3200    1.1310 ca        1 21F      0.013900
      8 I04         3.1290    2.2850    1.5860 i         1 21F     -0.120900
      9 C05         2.3570   -0.0590   -0.0310 ca        1 21F     -0.108000
     10 C06         2.2320   -1.4080   -0.4100 ca        1 21F      0.096600
     11 N07         1.6210   -1.7730   -1.6340 nh        1 21F     -0.680600
     12 C08         0.3320   -1.2020   -1.9380 c3        1 21F      0.109800
     13 N10        -2.1620   -1.5740   -1.7850 n         1 21F     -0.457800
     14 C11        -2.4370   -0.2190   -2.2020 c3        1 21F      0.081500
     15 C12        -3.1140    0.6350   -1.1270 c3        1 21F     -0.119400
     16 N14        -5.1070    0.7180    0.3480 n3        1 21F     -0.923100
     17 S15        -6.6440    1.1940    0.2050 s6        1 21F      1.454900
     18 C16        -7.5100   -0.0960    0.9500 c3        1 21F     -0.314600
     19 O18        -6.8330    2.3560    0.9810 o         1 21F     -0.650300
     20 O19        -7.0200    1.2510   -1.1530 o         1 21F     -0.650300
     21 O22        -0.7260   -3.1460   -0.9440 o         1 21F     -0.601100
     22 C23         2.8520   -2.3830    0.4330 ca        1 21F      0.116100
     23 O24         2.7630   -3.6930    0.0040 os        1 21F     -0.326900
     24 C25         3.0750   -4.6970    0.9650 c3        1 21F      0.116700
     25 H131       -5.0820   -0.1800   -1.5320 h1        1 21F      0.076700
     26 H171       -9.5530   -0.6980    1.3430 hc        1 21F      0.054033
     27 H172       -9.2680    1.0890    1.3980 hc        1 21F      0.054033
     28 H1         -9.3200    0.2210   -0.2000 hc        1 21F      0.054033
     29 H201       -3.3790   -1.3950    0.7770 hc        1 21F      0.057450
     30 H202       -4.9560   -2.0300    0.1540 hc        1 21F      0.057450
     31 H211       -2.9920   -3.2550   -0.8130 h1        1 21F      0.064700
     32 H212       -4.0340   -2.4430   -2.0760 h1        1 21F      0.064700
     33 H261        4.0050   -2.7640    2.2330 ha        1 21F      0.157000
     34 H051        1.9250    0.7260   -0.6740 ha        1 21F      0.149000
     35 H071        1.6130   -2.7740   -1.7520 hn        1 21F      0.419800
     36 H081        0.2460   -0.1740   -1.4880 h1        1 21F      0.078700
     37 H082        0.2840   -1.1140   -3.0630 h1        1 21F      0.078700
     38 H111       -1.4980    0.2980   -2.5390 h1        1 21F      0.064700
     39 H112       -3.1270   -0.2800   -3.0950 h1        1 21F      0.064700
     40 H121       -3.3630    1.6320   -1.5740 hc        1 21F      0.057450
     41 H122       -2.4140    0.8060   -0.2690 hc        1 21F      0.057450
     42 H141       -4.5500    0.9780    1.1270 hn        1 21F      0.450800
     43 H161       -7.2290   -0.2110    2.0300 h1        1 21F      0.105200
     44 H162       -7.2800   -1.0830    0.4700 h1        1 21F      0.105200
     45 H251        4.1730   -4.7010    1.1750 h1        1 21F      0.049367
     46 H252        2.4930   -4.5460    1.9050 h1        1 21F      0.049367
     47 H253        2.7680   -5.6450    0.4540 h1        1 21F      0.049367
     48 C09        -0.8820   -2.0340   -1.4880 c         1 21F      0.617100
     49 CL1         4.4360   -0.2340    3.3630 cl        1 21F     -0.069400
@<TRIPOS>BOND
     1    1    3 1   
     2    1   15 1   
     3    1   16 1   
     4    1   25 1   
     5    2   18 1   
     6    2   26 1   
     7    2   27 1   
     8    2   28 1   
     9    3    4 1   
    10    3   29 1   
    11    3   30 1   
    12    4   13 1   
    13    4   31 1   
    14    4   32 1   
    15    5    6 ar  
    16    5   22 ar  
    17    5   33 1   
    18    6    7 ar  
    19    6   49 1   
    20    7    8 1   
    21    7    9 ar  
    22    9   10 ar  
    23    9   34 1   
    24   10   11 1   
    25   10   22 ar  
    26   11   12 1   
    27   11   35 1   
    28   12   36 1   
    29   12   37 1   
    30   12   48 1   
    31   13   14 1   
    32   13   48 1   
    33   14   15 1   
    34   14   38 1   
    35   14   39 1   
    36   15   40 1   
    37   15   41 1   
    38   16   17 1   
    39   16   42 1   
    40   17   18 1   
    41   17   19 2   
    42   17   20 2   
    43   18   43 1   
    44   18   44 1   
    45   21   48 2   
    46   22   23 1   
    47   23   24 1   
    48   24   45 1   
    49   24   46 1   
    50   24   47 1   
@<TRIPOS>SUBSTRUCTURE
     1 21F         1 TEMP              0 ****  ****    0 ROOT
