@<TRIPOS>MOLECULE
21F
   49    46     1     0     0
SMALL
bcc


@<TRIPOS>ATOM
      1 C13        -0.7800    1.9500   -2.3140 c3        1 21F      0.041000
      2 C17        -3.1240    6.7760   -2.9950 c3        1 21F     -0.194000
      3 C20         0.7270    1.9160   -2.2600 c3        1 21F     -0.196000
      4 C21         1.2550    1.8950   -0.8270 c3        1 21F     -0.032000
      5 C26         1.1840   -5.8110    2.9540 c1        1 21F     -0.183000
      6 CL1         0.1560   -8.0110    1.7170 cl        1 21F      0.009000
      7 C02         0.5630   -6.3180    1.8120 c1        1 21F     -0.024000
      8 C03         0.2830   -5.4800    0.7460 c1        1 21F     -0.272000
      9 I04        -0.6180   -6.2600   -1.0060 i         1 21F      0.165000
     10 C05         0.6210   -4.1300    0.8130 c2        1 21F     -0.105000
     11 C06         1.2390   -3.6240    1.9490 c1        1 21F      0.013000
     12 N07         1.6110   -2.2490    2.0030 n2        1 21F     -0.238000
     13 C08         0.6650   -1.2240    1.5980 c3        1 21F     -0.075000
     14 C09         1.4020   -0.1340    0.7540 c2        1 21F      0.263000
     15 N10         0.6300    0.8430   -0.0190 n         1 21F     -0.322000
     16 C11        -0.8450    0.8570   -0.0520 c3        1 21F     -0.032000
     17 C12        -1.3940    0.8690   -1.4830 c3        1 21F     -0.196000
     18 N14        -1.2430    3.2380   -1.8280 n3        1 21F     -0.897000
     19 S15        -2.0100    4.2990   -2.8740 s4        1 21F      2.026800
     20 C16        -2.4510    5.8090   -2.0160 c2        1 21F     -0.854000
     21 O18        -3.1660    3.6880   -3.4830 o         1 21F     -0.537400
     22 O19        -1.1990    4.5710   -4.0230 o         1 21F     -0.537400
     23 O22         2.6140   -0.0940    0.7420 o         1 21F     -0.364000
     24 C23         1.5220   -4.4650    3.0210 c2        1 21F      0.071000
     25 O24         2.1150   -3.9490    4.1800 os        1 21F     -0.210000
     26 C25         3.0910   -4.7810    4.7330 c3        1 21F     -0.073000
     27 H131       -1.0690    1.8390   -3.2460 h1        1 21F      0.117000
     28 H171       -2.4840    7.0340   -3.6900 hc        1 21F      0.093667
     29 H172       -3.4230    7.5820   -2.5090 hc        1 21F      0.093667
     30 H1         -3.8980    6.3380   -3.4090 hc        1 21F      0.093667
     31 H201        1.0410    1.1170   -2.7230 hc        1 21F      0.100750
     32 H202        1.0820    2.7120   -2.7200 hc        1 21F      0.100750
     33 H211        1.0750    2.7620   -0.4110 h1        1 21F      0.098750
     34 H212        2.2350    1.7460   -0.8470 h1        1 21F      0.098750
     35 H261        1.3850   -6.4110    3.7180 ha        1 21F      0.157000
     36 H051        0.4200   -3.5300    0.0500 ha        1 21F      0.150000
     37 H071        2.4410   -2.0080    2.3230 hn        1 21F      0.216000
     38 H081       -0.0520   -1.6350    1.0510 h1        1 21F      0.117000
     39 H082        0.2690   -0.8070    2.3990 h1        1 21F      0.117000
     40 H111       -1.1690    1.6630    0.4210 h1        1 21F      0.098750
     41 H112       -1.1740    0.0750    0.4020 h1        1 21F      0.098750
     42 H121       -1.2100    0.0070   -1.9000 hc        1 21F      0.100750
     43 H122       -2.3720    1.0080   -1.4490 hc        1 21F      0.100750
     44 H141       -1.1990    3.4290   -0.9460 hn        1 21F      0.245000
     45 H161       -1.6470    6.2210   -1.6530 ha        1 21F      0.144000
     46 H162       -3.0640    5.6020   -1.2930 ha        1 21F      0.144000
     47 H251        3.7110   -4.2440    5.2760 h1        1 21F      0.089000
     48 H252        2.6630   -5.4550    5.2990 h1        1 21F      0.089000
     49 H253        3.5870   -5.2240    4.0160 h1        1 21F      0.089000
@<TRIPOS>BOND
     1    1    3 1   
     2    1   17 1   
     3    1   18 1   
     4    1   27 1   
     5    2   20 1   
     6    2   28 1   
     7    2   29 1   
     8    2   30 1   
     9    3    4 1   
    10    3   31 1   
    11    3   32 1   
    12    4   15 1   
    13    4   33 1   
    14    4   34 1   
    15    5   24 1   
    16    5   35 1   
    17    6    7 1   
    18    7    8 1   
    19    8   10 1   
    20   10   11 1   
    21   10   36 1   
    22   11   24 1   
    23   12   13 1   
    24   12   37 1   
    25   13   14 1   
    26   13   38 1   
    27   13   39 1   
    28   14   15 1   
    29   14   23 1   
    30   15   16 1   
    31   16   17 1   
    32   16   40 1   
    33   16   41 1   
    34   17   42 1   
    35   17   43 1   
    36   18   19 1   
    37   18   44 1   
    38   19   21 1   
    39   19   22 1   
    40   20   45 1   
    41   20   46 1   
    42   24   25 1   
    43   25   26 1   
    44   26   47 1   
    45   26   48 1   
    46   26   49 1   
@<TRIPOS>SUBSTRUCTURE
     1 21F         1 TEMP              0 ****  ****    0 ROOT
