@<TRIPOS>MOLECULE
21F
   50    48     1     0     0
SMALL
bcc


@<TRIPOS>ATOM
      1 C13        -2.3460    1.0160    1.0970 c2        1 21F     -0.046000
      2 C17         0.2180   -1.5650   -2.0380 c3        1 21F     -0.196000
      3 C20         3.1700   -0.7080    0.7130 c3        1 21F     -0.296000
      4 C21         2.2570   -0.4990    6.5290 c1        1 21F      0.463000
      5 C26         2.5850   -6.5080    3.3250 c2        1 21F     -0.168000
      6 C02         1.2210   -6.8840    2.9730 c2        1 21F      0.040000
      7 C03         0.2880   -5.9680    2.6030 c2        1 21F     -0.323000
      8 I04        -1.5990   -6.4580    2.0910 i         1 21F      0.229000
      9 C05         0.6170   -4.5650    2.5640 c2        1 21F      0.008000
     10 C06         1.8260   -4.1270    2.9890 c2        1 21F     -0.210000
     11 N07         2.1780   -2.7050    2.9550 n4        1 21F      0.117000
     12 C08         2.0050   -2.0570    4.2360 c2        1 21F     -0.500000
     13 N10         1.2640   -0.2910    5.7860 n         1 21F     -0.319000
     14 C11         0.0100    0.3960    6.0430 c3        1 21F     -0.096000
     15 C12        -2.5630    2.2130    1.6590 c2        1 21F     -0.256000
     16 N14        -1.1570    0.2830    1.1920 n3        1 21F     -0.845000
     17 S15        -0.8650   -1.0470    0.3290 s6        1 21F      2.832000
     18 C16        -0.0590   -0.4530   -1.0570 c3        1 21F     -0.867000
     19 O18         0.0720   -1.8510    1.0530 o         1 21F     -0.961000
     20 O19        -2.0490   -1.7030   -0.0400 o         1 21F     -0.961000
     21 O22         0.9430   -0.0320    3.4550 o         1 21F     -0.338000
     22 C23         2.8870   -5.0480    3.5460 c3        1 21F      0.115000
     23 O24         4.1600   -4.6820    3.0300 oh        1 21F     -0.333000
     24 C25         3.5810   -7.3970    3.4840 c2        1 21F     -0.108000
     25 H131        2.4780   -1.4460    0.2470 hc        1 21F      0.075000
     26 H171       -0.7330   -2.0740   -2.3350 hc        1 21F      0.099000
     27 H172        0.6980   -1.1580   -2.9610 hc        1 21F      0.099000
     28 H1          0.9100   -2.3190   -1.5880 hc        1 21F      0.099000
     29 H201       -3.1360    0.5030    0.5070 h4        1 21F      0.165000
     30 H202        4.0830   -1.2240    1.0820 hc        1 21F      0.075000
     31 H211        3.4650    0.0470   -0.0480 hc        1 21F      0.075000
     32 H212        2.6560   -0.1950    1.5580 hc        1 21F      0.075000
     33 H261        2.9850   -4.8590    4.6600 h1        1 21F      0.137000
     34 H051       -0.1460   -3.8640    2.1630 ha        1 21F      0.194000
     35 H071        3.1770   -2.6400    2.6970 hn        1 21F      0.270500
     36 H081        2.3330   -2.6430    5.1020 hx        1 21F      0.190000
     37 H082        1.6150   -2.2230    2.2260 hn        1 21F      0.270500
     38 H111       -0.1820    1.1160    5.1980 h1        1 21F      0.139667
     39 H112       -0.8140   -0.3670    6.0800 h1        1 21F      0.139667
     40 H121       -3.5320    2.7160    1.5400 ha        1 21F      0.131500
     41 H122        0.0660    0.9520    7.0150 h1        1 21F      0.139667
     42 H141       -1.8190    2.7560    2.2550 ha        1 21F      0.131500
     43 H161       -0.6540    0.3390   -1.5880 h1        1 21F      0.160500
     44 H162        0.9180    0.0370   -0.7950 h1        1 21F      0.160500
     45 H251        4.6000   -7.0710    3.7450 ha        1 21F      0.150000
     46 H252        4.2740   -5.1100    2.1700 ho        1 21F      0.224000
     47 H253        3.4470   -8.4820    3.3670 ha        1 21F      0.150000
     48 C09         1.3770   -0.8260    4.2950 c2        1 21F      0.342000
     49 H142       -0.4920    0.6440    1.8410 hn        1 21F      0.264000
     50 CL1         0.8260   -8.5270    3.0190 cl        1 21F      0.062000
@<TRIPOS>BOND
     1    1   15 1   
     2    1   16 1   
     3    1   29 1   
     4    2   18 1   
     5    2   26 1   
     6    2   27 1   
     7    2   28 1   
     8    3   25 1   
     9    3   30 1   
    10    3   31 1   
    11    3   32 1   
    12    4   13 1   
    13    5    6 1   
    14    5   22 1   
    15    5   24 1   
    16    6    7 1   
    17    6   50 1   
    18    7    8 1   
    19    7    9 1   
    20    9   10 1   
    21    9   34 1   
    22   10   11 1   
    23   10   22 1   
    24   11   12 1   
    25   11   35 1   
    26   11   37 1   
    27   12   36 1   
    28   12   48 1   
    29   13   14 1   
    30   13   48 1   
    31   14   38 1   
    32   14   39 1   
    33   14   41 1   
    34   15   40 1   
    35   15   42 1   
    36   16   17 1   
    37   16   49 1   
    38   17   18 1   
    39   17   19 1   
    40   17   20 1   
    41   18   43 1   
    42   18   44 1   
    43   21   48 1   
    44   22   23 1   
    45   22   33 1   
    46   23   46 1   
    47   24   45 1   
    48   24   47 1   
@<TRIPOS>SUBSTRUCTURE
     1 21F         1 TEMP              0 ****  ****    0 ROOT
