@<TRIPOS>MOLECULE
21F
   50    46     1     0     0
SMALL
bcc


@<TRIPOS>ATOM
      1 C13        -2.6760   -0.4270    0.6720 c1        1 21F     -0.192500
      2 C17        -2.3260    3.2120    2.4120 c2        1 21F     -0.223500
      3 C20         4.3120   -0.1710   -3.0980 c3        1 21F     -0.265000
      4 C21        -1.5160   -1.2450    2.5760 c1        1 21F      0.404000
      5 C26         3.1100   -6.1670    5.5500 c2        1 21F     -0.166000
      6 C02         1.8160   -6.4760    6.1480 c2        1 21F      0.042000
      7 C03         0.6680   -5.8770    5.7380 c2        1 21F     -0.323000
      8 I04        -1.1350   -6.2630    6.5510 i         1 21F      0.218000
      9 C05         0.6930   -4.9070    4.6720 c2        1 21F      0.005000
     10 C06         1.8280   -4.6680    3.9770 c2        1 21F     -0.212000
     11 N07         1.9030   -3.7040    2.8760 ny        1 21F      0.141000
     12 C08         0.7490   -2.8620    2.7120 c2        1 21F     -0.547000
     13 N10        -0.3710   -0.7030    2.4550 n         1 21F     -0.277000
     14 C11        -0.0190    0.5390    1.7860 c3        1 21F     -0.122000
     15 C12        -3.4150   -0.1200    1.5730 c1        1 21F     -0.192500
     16 N14         0.3050   -3.6270   -2.1790 n8        1 21F     -0.964000
     17 S15         0.9360   -2.7930   -1.0000 s6        1 21F      2.868000
     18 C16        -2.1050    3.6630    3.6400 c2        1 21F     -0.223500
     19 O18         0.0310   -1.8300   -0.4860 o         1 21F     -0.973500
     20 O19         1.5420   -3.6280   -0.0300 o         1 21F     -0.973500
     21 O22         1.7470   -0.8170    3.4800 o         1 21F     -0.331000
     22 C23         3.1210   -5.4090    4.2470 c3        1 21F      0.108000
     23 O24         4.2210   -4.5140    4.1580 oh        1 21F     -0.331000
     24 C25         4.2830   -6.5440    6.0860 c2        1 21F     -0.108000
     25 H131        5.0010    0.2430   -2.3300 hc        1 21F      0.066500
     26 H171       -3.0440    2.4080    2.1950 ha        1 21F      0.112250
     27 H172       -2.6150    3.2590    4.5250 ha        1 21F      0.112250
     28 H1         -1.8320    3.6340    1.5270 ha        1 21F      0.112250
     29 H201        3.8050    0.6640   -3.6300 hc        1 21F      0.066500
     30 H202       -2.0380   -0.6960   -0.1430 ha        1 21F      0.251500
     31 H211        4.8920   -0.7770   -3.8280 hc        1 21F      0.066500
     32 H212        3.5500   -0.8140   -2.6050 hc        1 21F      0.066500
     33 H261        3.3020   -6.1420    3.4000 h1        1 21F      0.142000
     34 H051       -0.2480   -4.3710    4.4460 ha        1 21F      0.171000
     35 H071        2.0360   -4.2290    1.9930 hn        1 21F      0.262000
     36 H081       -0.1210   -3.3540    2.2640 hx        1 21F      0.183000
     37 H082        2.7440   -3.1260    3.0390 hn        1 21F      0.262000
     38 H111        0.1970    0.3070    0.7070 h1        1 21F      0.140000
     39 H112        0.8930    0.9760    2.2810 h1        1 21F      0.140000
     40 H121       -0.8730    1.2680    1.8610 h1        1 21F      0.140000
     41 H122       -4.1010    0.1480    2.3440 ha        1 21F      0.251500
     42 H141        0.5840   -4.5500   -2.4170 hn        1 21F      0.269000
     43 H161        1.8260   -2.1890   -1.5890 hs        1 21F     -0.491000
     44 H162       -1.4020    4.4810    3.8530 ha        1 21F      0.112250
     45 H251        4.3630   -7.1240    7.0170 ha        1 21F      0.150000
     46 H252        4.3010   -4.0460    5.0000 ho        1 21F      0.226000
     47 H253        5.2400   -6.2850    5.6050 ha        1 21F      0.150000
     48 C09         0.8520   -1.4970    2.9630 c2        1 21F      0.346000
     49 H142       -0.4200   -3.2960   -2.7710 hn        1 21F      0.269000
     50 Cl1         1.7850   -7.6110    7.4020 cl        1 21F      0.061000
@<TRIPOS>BOND
     1    1   15 1   
     2    1   30 1   
     3    2   18 1   
     4    2   26 1   
     5    2   28 1   
     6    3   25 1   
     7    3   29 1   
     8    3   31 1   
     9    3   32 1   
    10    4   13 1   
    11    5    6 1   
    12    5   22 1   
    13    5   24 1   
    14    6    7 1   
    15    6   50 1   
    16    7    8 1   
    17    7    9 1   
    18    9   10 1   
    19    9   34 1   
    20   10   11 1   
    21   10   22 1   
    22   11   12 1   
    23   11   35 1   
    24   11   37 1   
    25   12   36 1   
    26   12   48 1   
    27   13   14 1   
    28   13   48 1   
    29   14   38 1   
    30   14   39 1   
    31   14   40 1   
    32   15   41 1   
    33   16   17 1   
    34   16   42 1   
    35   16   49 1   
    36   17   19 1   
    37   17   20 1   
    38   17   43 1   
    39   18   27 1   
    40   18   44 1   
    41   21   48 1   
    42   22   23 1   
    43   22   33 1   
    44   23   46 1   
    45   24   45 1   
    46   24   47 1   
@<TRIPOS>SUBSTRUCTURE
     1 21F         1 TEMP              0 ****  ****    0 ROOT
