@<TRIPOS>MOLECULE
21G
   47    51     1     0     0
SMALL
bcc


@<TRIPOS>ATOM
      1 C1          0.0510    0.2170    0.1020 ca        1 21G     -0.088000
      2 C2          1.4430    0.2560    0.2700 ca        1 21G     -0.036400
      3 C3          2.0240    0.0010    1.5480 ca        1 21G      0.354200
      4 C5         -0.0260   -0.3250    2.4900 ca        1 21G      0.379800
      5 C6         -0.7200   -0.0770    1.2220 ca        1 21G     -0.113100
      6 C7         -2.1250   -0.2110    1.5040 cc        1 21G     -0.268000
      7 N4          1.3260   -0.2860    2.6510 nb        1 21G     -0.655000
      8 C8         -2.2570   -0.5310    2.8720 cd        1 21G      0.039900
      9 N9         -1.0070   -0.5940    3.4650 na        1 21G     -0.281100
     10 C11        -3.2570   -0.0860    0.5950 ca        1 21G      0.786800
     11 N12        -3.0380   -0.1640   -0.7640 nb        1 21G     -0.741000
     12 C13        -4.1310   -0.1320   -1.5410 ca        1 21G      0.426200
     13 C14        -5.4410   -0.0290   -1.0300 ca        1 21G     -0.222700
     14 C15        -5.5910    0.0900    0.4050 ca        1 21G      0.673200
     15 N16        -4.4770    0.0700    1.1950 nb        1 21G     -0.704000
     16 N17        -6.8540    0.3070    0.9550 nh        1 21G     -0.817900
     17 C18        -7.0690    0.1980    2.3940 c3        1 21G      0.206500
     18 C20        -6.8770   -1.2180    2.9870 c3        1 21G     -0.188700
     19 C22        -8.0200   -1.5110    3.9600 c3        1 21G     -0.042700
     20 C23        -8.1290   -0.3830    4.9810 c3        1 21G     -0.080400
     21 C24        -8.5110    0.9130    4.2800 c3        1 21G     -0.065900
     22 C25        -8.4870    0.7070    2.7680 c3        1 21G     -0.066700
     23 C26        -9.5500   -0.3210    2.3950 c3        1 21G     -0.065900
     24 C27        -9.3240   -1.6090    3.1730 c3        1 21G     -0.080400
     25 C28        -5.5120   -1.3550    3.6950 c         1 21G      0.917600
     26 O29        -5.0710   -0.4070    4.4140 o         1 21G     -0.849300
     27 O30        -4.8630   -2.4260    3.5190 o         1 21G     -0.849300
     28 F31        -6.5120   -0.0440   -1.8580 f         1 21G     -0.149900
     29 F32         2.2570    0.5360   -0.7780 f         1 21G     -0.153900
     30 H1         -0.4080    0.4060   -0.8790 ha        1 21G      0.169000
     31 H2          3.1210    0.0340    1.6650 h4        1 21G      0.019100
     32 H3         -3.1890   -0.7310    3.4540 h4        1 21G      0.284000
     33 H4         -0.8240   -0.8340    4.4040 hn        1 21G      0.313700
     34 H5         -3.9650   -0.2030   -2.6300 h4        1 21G      0.017100
     35 H6         -7.5840   -0.0920    0.4000 hn        1 21G      0.400800
     36 H7         -6.3140    0.8790    2.8990 h1        1 21G      0.118700
     37 H8         -6.9040   -1.9940    2.1750 hc        1 21G      0.046700
     38 H9         -7.8140   -2.4800    4.4850 hc        1 21G      0.058700
     39 H10        -8.8900   -0.6430    5.7580 hc        1 21G      0.040200
     40 H11        -7.1300   -0.2640    5.4820 hc        1 21G      0.040200
     41 H12        -7.7930    1.7270    4.5590 hc        1 21G      0.026200
     42 H13        -9.5360    1.2420    4.5900 hc        1 21G      0.026200
     43 H14        -8.7010    1.6790    2.2510 hc        1 21G      0.041700
     44 H15       -10.5640    0.0970    2.6280 hc        1 21G      0.026200
     45 H16        -9.5270   -0.5210    1.2940 hc        1 21G      0.026200
     46 H17        -9.2780   -2.4820    2.4730 hc        1 21G      0.040200
     47 H18       -10.1750   -1.7890    3.8780 hc        1 21G      0.040200
@<TRIPOS>BOND
     1    1    2 ar  
     2    1    5 ar  
     3    1   30 1   
     4    2    3 ar  
     5    2   29 1   
     6    3    7 ar  
     7    3   31 1   
     8    4    5 ar  
     9    4    7 ar  
    10    4    9 1   
    11    5    6 1   
    12    6    8 2   
    13    6   10 1   
    14    8    9 1   
    15    8   32 1   
    16    9   33 1   
    17   10   11 ar  
    18   10   15 ar  
    19   11   12 ar  
    20   12   13 ar  
    21   12   34 1   
    22   13   14 ar  
    23   13   28 1   
    24   14   15 ar  
    25   14   16 1   
    26   16   17 1   
    27   16   35 1   
    28   17   18 1   
    29   17   22 1   
    30   17   36 1   
    31   18   19 1   
    32   18   25 1   
    33   18   37 1   
    34   19   20 1   
    35   19   24 1   
    36   19   38 1   
    37   20   21 1   
    38   20   39 1   
    39   20   40 1   
    40   21   22 1   
    41   21   41 1   
    42   21   42 1   
    43   22   23 1   
    44   22   43 1   
    45   23   24 1   
    46   23   44 1   
    47   23   45 1   
    48   24   46 1   
    49   24   47 1   
    50   25   26 1   
    51   25   27 1   
@<TRIPOS>SUBSTRUCTURE
     1 21G         1 TEMP              0 ****  ****    0 ROOT
