@<TRIPOS>MOLECULE
21G
   48    52     1     0     0
SMALL
bcc


@<TRIPOS>ATOM
      1 C1          0.0890    0.0980    0.0700 ca        1 21G     -0.097000
      2 C2          1.4840   -0.0110    0.1670 ca        1 21G     -0.006400
      3 C3          2.0880   -0.5330    1.3530 ca        1 21G      0.371200
      4 C5          0.0520   -0.8380    2.3290 ca        1 21G      0.383800
      5 C6         -0.6610   -0.3210    1.1650 ca        1 21G     -0.113100
      6 C7         -2.0660   -0.4000    1.4910 cc        1 21G     -0.306000
      7 N4          1.4060   -0.9450    2.4250 nb        1 21G     -0.631000
      8 C8         -2.1660   -0.9310    2.8040 cd        1 21G      0.063900
      9 N9         -0.9130   -1.1960    3.3010 na        1 21G     -0.260100
     10 C11        -3.1930    0.0140    0.6970 ca        1 21G      0.826800
     11 N12        -2.9960    0.8950   -0.3560 nb        1 21G     -0.668000
     12 C13        -4.0700    1.3180   -1.0150 ca        1 21G      0.452200
     13 C14        -5.3960    0.9130   -0.6770 ca        1 21G     -0.162700
     14 C15        -5.5060   -0.0160    0.3960 ca        1 21G      0.514200
     15 N16        -4.4280   -0.4900    1.0580 nb        1 21G     -0.651000
     16 N17        -6.8390   -0.4940    0.8190 n4        1 21G     -0.747700
     17 C18        -7.1950   -0.0640    2.2320 c3        1 21G      0.131500
     18 C20        -6.8390   -1.1510    3.2620 c3        1 21G     -0.197700
     19 C22        -7.9560   -1.1950    4.3030 c3        1 21G     -0.044700
     20 C23        -8.2480    0.2170    4.8020 c3        1 21G     -0.087400
     21 C24        -8.8390    1.0510    3.6740 c3        1 21G     -0.070900
     22 C25        -8.6880    0.3000    2.3480 c3        1 21G     -0.086700
     23 C26        -9.5430   -0.9620    2.3950 c3        1 21G     -0.070900
     24 C27        -9.2100   -1.7670    3.6440 c3        1 21G     -0.087400
     25 C28        -5.4600   -0.8430    3.9010 c         1 21G      0.918600
     26 O29        -5.0640    0.3550    3.9250 o         1 21G     -0.819300
     27 O30        -4.7850   -1.8250    4.3150 o         1 21G     -0.819300
     28 F31        -6.4720    1.3820   -1.3420 f         1 21G     -0.123900
     29 F32         2.2770    0.3770   -0.8580 f         1 21G     -0.134900
     30 H1         -0.3800    0.5040   -0.8370 ha        1 21G      0.167000
     31 H2          3.1880   -0.6130    1.4190 h4        1 21G      0.039100
     32 H3         -3.0830   -1.1070    3.4150 h4        1 21G      0.276000
     33 H4         -0.7050   -1.5470    4.2030 hn        1 21G      0.328700
     34 H5         -3.9090    2.0250   -1.8520 h4        1 21G      0.055100
     35 H6         -6.8560   -1.5220    0.7750 hn        1 21G      0.449300
     36 H7         -6.5630    0.8560    2.4700 hx        1 21G      0.160700
     37 H8         -6.7610   -2.1700    2.7930 hc        1 21G      0.057700
     38 H9         -7.6270   -1.8460    5.1550 hc        1 21G      0.091700
     39 H10        -8.9550    0.1780    5.6670 hc        1 21G      0.058450
     40 H11        -7.2840    0.6760    5.1540 hc        1 21G      0.058450
     41 H12        -8.3220    2.0420    3.6100 hc        1 21G      0.042200
     42 H13        -9.9280    1.2440    3.8520 hc        1 21G      0.042200
     43 H14        -9.0150    0.9620    1.5030 hc        1 21G      0.045700
     44 H15        -9.3680   -1.5770    1.4750 hc        1 21G      0.042200
     45 H16       -10.6260   -0.6740    2.3970 hc        1 21G      0.042200
     46 H17       -10.0630   -1.7240    4.3690 hc        1 21G      0.058450
     47 H18        -9.0460   -2.8430    3.3800 hc        1 21G      0.058450
     48 H172       -7.5320   -0.1180    0.1620 hn        1 21G      0.449300
@<TRIPOS>BOND
     1    1    2 ar  
     2    1    5 ar  
     3    1   30 1   
     4    2    3 ar  
     5    2   29 1   
     6    3    7 ar  
     7    3   31 1   
     8    4    5 ar  
     9    4    7 ar  
    10    4    9 1   
    11    5    6 1   
    12    6    8 2   
    13    6   10 1   
    14    8    9 1   
    15    8   32 1   
    16    9   33 1   
    17   10   11 ar  
    18   10   15 ar  
    19   11   12 ar  
    20   12   13 ar  
    21   12   34 1   
    22   13   14 ar  
    23   13   28 1   
    24   14   15 ar  
    25   14   16 1   
    26   16   17 1   
    27   16   35 1   
    28   16   48 1   
    29   17   18 1   
    30   17   22 1   
    31   17   36 1   
    32   18   19 1   
    33   18   25 1   
    34   18   37 1   
    35   19   20 1   
    36   19   24 1   
    37   19   38 1   
    38   20   21 1   
    39   20   39 1   
    40   20   40 1   
    41   21   22 1   
    42   21   41 1   
    43   21   42 1   
    44   22   23 1   
    45   22   43 1   
    46   23   24 1   
    47   23   44 1   
    48   23   45 1   
    49   24   46 1   
    50   24   47 1   
    51   25   26 1   
    52   25   27 1   
@<TRIPOS>SUBSTRUCTURE
     1 21G         1 TEMP              0 ****  ****    0 ROOT
