@<TRIPOS>MOLECULE
21H
   11    10     1     0     0
SMALL
bcc


@<TRIPOS>ATOM
      1 C1          0.8690    0.1570   -0.8170 c3        1 21H      0.321200
      2 O1         -0.0020   -0.6040   -0.0030 os        1 21H     -0.496600
      3 O2          1.8650    0.6450    0.0410 oh        1 21H     -0.624800
      4 C6         -0.8690    0.1540    0.8170 c3        1 21H      0.321200
      5 O7         -1.8630    0.6530   -0.0370 oh        1 21H     -0.624800
      6 H1          1.2640   -0.5620   -1.5830 h2        1 21H      0.069200
      7 H2          0.3700    1.0540   -1.2690 h2        1 21H      0.069200
      8 H3          2.2850   -0.1110    0.4710 ho        1 21H      0.413000
      9 H4         -1.2670   -0.5700    1.5770 h2        1 21H      0.069200
     10 H5         -0.3670    1.0450    1.2760 h2        1 21H      0.069200
     11 H6         -2.2860   -0.0980   -0.4730 ho        1 21H      0.413000
@<TRIPOS>BOND
     1    1    2 1   
     2    1    3 1   
     3    1    6 1   
     4    1    7 1   
     5    2    4 1   
     6    3    8 1   
     7    4    5 1   
     8    4    9 1   
     9    4   10 1   
    10    5   11 1   
@<TRIPOS>SUBSTRUCTURE
     1 21H         1 TEMP              0 ****  ****    0 ROOT
