@<TRIPOS>MOLECULE
21H
   11    10     1     0     0
SMALL
bcc


@<TRIPOS>ATOM
      1 C1         -0.0750   -0.2140   -0.1700 c3        1 21H      0.321200
      2 O1          1.3220   -0.1610    0.0450 os        1 21H     -0.496600
      3 O2         -0.6610   -0.0930    1.0980 oh        1 21H     -0.624800
      4 C6          1.8900   -1.3380    0.5850 c3        1 21H      0.321200
      5 O7          1.9380   -2.2580   -0.4720 oh        1 21H     -0.624800
      6 H1         -0.3050    0.6530   -0.8440 h2        1 21H      0.069200
      7 H2         -0.4140   -1.1990   -0.5860 h2        1 21H      0.069200
      8 H3         -0.3530    0.7320    1.4920 ho        1 21H      0.413000
      9 H4          2.9070   -1.0360    0.9500 h2        1 21H      0.069200
     10 H5          1.2530   -1.8020    1.3830 h2        1 21H      0.069200
     11 H6          2.4510   -1.8630   -1.1880 ho        1 21H      0.413000
@<TRIPOS>BOND
     1    1    2 1   
     2    1    3 1   
     3    1    6 1   
     4    1    7 1   
     5    2    4 1   
     6    3    8 1   
     7    4    5 1   
     8    4    9 1   
     9    4   10 1   
    10    5   11 1   
@<TRIPOS>SUBSTRUCTURE
     1 21H         1 TEMP              0 ****  ****    0 ROOT
