@<TRIPOS>MOLECULE
21H
   11    10     1     0     0
SMALL
bcc


@<TRIPOS>ATOM
      1 C1         -0.0800   -0.2020   -0.1380 c3        1 21H      0.321200
      2 O1          1.3220   -0.1600    0.0460 os        1 21H     -0.496600
      3 O2         -0.6370   -0.1000    1.1440 oh        1 21H     -0.624800
      4 C6          1.8940   -1.3500    0.5530 c3        1 21H      0.321200
      5 O7          1.9140   -2.2520   -0.5200 oh        1 21H     -0.624800
      6 H1         -0.3200    0.6780   -0.7920 h2        1 21H      0.069200
      7 H2         -0.4340   -1.1780   -0.5630 h2        1 21H      0.069200
      8 H3         -0.3150    0.7170    1.5450 ho        1 21H      0.413000
      9 H4          2.9210   -1.0600    0.9010 h2        1 21H      0.069200
     10 H5          1.2730   -1.8240    1.3570 h2        1 21H      0.069200
     11 H6          2.4130   -1.8480   -1.2400 ho        1 21H      0.413000
@<TRIPOS>BOND
     1    1    2 1   
     2    1    3 1   
     3    1    6 1   
     4    1    7 1   
     5    2    4 1   
     6    3    8 1   
     7    4    5 1   
     8    4    9 1   
     9    4   10 1   
    10    5   11 1   
@<TRIPOS>SUBSTRUCTURE
     1 21H         1 TEMP              0 ****  ****    0 ROOT
