@<TRIPOS>MOLECULE
21H
   11    10     1     0     0
SMALL
bcc


@<TRIPOS>ATOM
      1 C1         -1.0380   -0.0000    0.5690 c3        1 21H      0.328700
      2 O1          0.3700   -0.0000    0.5690 os        1 21H     -0.501600
      3 O2         -1.5080   -0.0000    1.8990 oh        1 21H     -0.624300
      4 C6          0.9410    0.0000   -0.7190 c3        1 21H      0.328700
      5 O7          2.3470   -0.0000   -0.6100 oh        1 21H     -0.624300
      6 H1         -1.3630   -0.7970    0.1090 h2        1 21H      0.063450
      7 H2         -1.3630    0.7970    0.1090 h2        1 21H      0.063450
      8 H3         -2.3960   -0.0000    1.8990 ho        1 21H      0.419500
      9 H4          0.6520    0.7970   -1.2020 h2        1 21H      0.063450
     10 H5          0.6520   -0.7970   -1.2020 h2        1 21H      0.063450
     11 H6          2.7070    0.0000   -1.4210 ho        1 21H      0.419500
@<TRIPOS>BOND
     1    1    2 1   
     2    1    3 1   
     3    1    6 1   
     4    1    7 1   
     5    2    4 1   
     6    3    8 1   
     7    4    5 1   
     8    4    9 1   
     9    4   10 1   
    10    5   11 1   
@<TRIPOS>SUBSTRUCTURE
     1 21H         1 TEMP              0 ****  ****    0 ROOT
