@<TRIPOS>MOLECULE
21J
   54    54     1     0     0
SMALL
bcc


@<TRIPOS>ATOM
      1 C13        -0.3210   -0.3770   -0.6800 c2        1 21J      0.005000
      2 C15         0.5920   -1.2710    1.2620 c3        1 21J      0.206000
      3 C17         0.5020   -0.6590    2.6480 c3        1 21J     -0.232000
      4 C21         0.3390    1.0920   -3.3700 c1        1 21J      0.256000
      5 C22         1.5500    1.1370   -2.8010 c2        1 21J     -0.330000
      6 C26         6.3560    4.0290    1.9090 c3        1 21J     -0.229000
      7 C28        12.0640    7.0810   -2.0000 c3        1 21J     -0.193000
      8 O01         9.6860    5.1170   -0.9890 o         1 21J     -0.957500
      9 N03         8.5760    5.2350    1.9250 n8        1 21J     -0.362000
     10 C04         7.6730    4.3740    1.1980 c3        1 21J     -0.024000
     11 C05         8.3650    3.0600    0.7920 c3        1 21J     -0.220000
     12 C06         7.4330    2.0470    0.2580 c2        1 21J      0.174000
     13 N07         6.1170    2.1080    0.3290 n         1 21J     -0.173000
     14 C08         5.2820    1.0480   -0.2730 c2        1 21J      0.297000
     15 C09         3.8010    1.3390   -0.3950 c3        1 21J     -0.033000
     16 O10         3.3270    0.3820   -1.3480 os        1 21J     -0.168000
     17 C11         1.9540    0.4850   -1.5730 c2        1 21J      0.006000
     18 C12         1.1150   -0.1120   -0.6840 c2        1 21J      0.078000
     19 O14        -0.6260   -0.9900    0.5400 os        1 21J     -0.207000
     20 C16         0.8620   -2.7640    1.2740 c3        1 21J     -0.232000
     21 O18         1.6390   -0.5920    0.5100 os        1 21J     -0.239000
     22 C19        -1.2660   -0.1460   -1.6050 c2        1 21J     -0.151000
     23 Cl1        -2.8860   -0.5350   -1.4340 cl        1 21J      0.064000
     24 Cl2         2.6960    2.0670   -3.6700 cl        1 21J      0.049000
     25 O24         5.8540    0.0230   -0.6170 o         1 21J     -0.180000
     26 C25         5.4430    3.2290    0.9880 c3        1 21J     -0.073000
     27 C27        10.5880    7.3510   -1.8660 c3        1 21J     -0.870000
     28 O29         8.6400    7.1110   -0.2370 o         1 21J     -0.957500
     29 H171        0.3420    0.4430    2.5790 hc        1 21J      0.106333
     30 H172        1.4460   -0.8640    3.2060 hc        1 21J      0.106333
     31 H173       -0.3600   -1.1170    3.1900 hc        1 21J      0.106333
     32 H211       -1.0530    0.3370   -2.5870 h4        1 21J      0.200000
     33 H261        5.8110    4.9700    2.1920 hc        1 21J      0.123500
     34 H262        6.5580    3.4570    2.8520 hc        1 21J      0.123500
     35 H282       12.4840    7.6380   -2.8740 hc        1 21J      0.097333
     36 H283       12.6140    7.4130   -1.0850 hc        1 21J      0.097333
     37 H1         12.2510    5.9910   -2.1620 hc        1 21J      0.097333
     38 H031       10.6880    6.5970    0.2220 hs        1 21J     -0.467000
     39 H041        8.2090    6.1680    1.9720 hn        1 21J      0.177500
     40 H051        7.4180    4.9300    0.2390 h1        1 21J      0.137000
     41 H052        9.1420    3.2890   -0.0070 hc        1 21J      0.192500
     42 H061        8.9210    2.5940    1.6570 hc        1 21J      0.192500
     43 H062        7.8880    1.1560   -0.2480 h4        1 21J      0.215000
     44 H091        3.6120    2.3800   -0.7690 h1        1 21J      0.132500
     45 H092        3.3030    1.1650    0.5990 h1        1 21J      0.132500
     46 H161        1.8170   -2.9660    1.8130 hc        1 21J      0.106333
     47 H162        0.9410   -3.1520    0.2310 hc        1 21J      0.106333
     48 H163        0.0200   -3.2830    1.7920 hc        1 21J      0.106333
     49 H251        4.5800    2.8150    1.5850 h1        1 21J      0.136000
     50 H252        5.0340    3.9030    0.1780 h1        1 21J      0.136000
     51 H271       10.1030    7.1230   -2.8570 h1        1 21J      0.174000
     52 H272       10.4410    8.4590   -1.7280 h1        1 21J      0.174000
     53 S02         9.8300    6.4750   -0.6370 s6        1 21J      2.809000
     54 H032        8.7700    4.8880    2.8420 hn        1 21J      0.177500
@<TRIPOS>BOND
     1    1   18 1   
     2    1   19 1   
     3    1   22 1   
     4    2    3 1   
     5    2   19 1   
     6    2   20 1   
     7    2   21 1   
     8    3   29 1   
     9    3   30 1   
    10    3   31 1   
    11    4    5 1   
    12    5   17 1   
    13    5   24 1   
    14    6   10 1   
    15    6   26 1   
    16    6   33 1   
    17    6   34 1   
    18    7   27 1   
    19    7   35 1   
    20    7   36 1   
    21    7   37 1   
    22    8   53 1   
    23    9   10 1   
    24    9   39 1   
    25    9   54 1   
    26   10   11 1   
    27   10   40 1   
    28   11   12 1   
    29   11   41 1   
    30   11   42 1   
    31   12   13 1   
    32   12   43 1   
    33   13   14 1   
    34   13   26 1   
    35   14   15 1   
    36   14   25 1   
    37   15   16 1   
    38   15   44 1   
    39   15   45 1   
    40   16   17 1   
    41   17   18 1   
    42   18   21 1   
    43   20   46 1   
    44   20   47 1   
    45   20   48 1   
    46   22   23 1   
    47   22   32 1   
    48   26   49 1   
    49   26   50 1   
    50   27   51 1   
    51   27   52 1   
    52   27   53 1   
    53   28   53 1   
    54   38   53 1   
@<TRIPOS>SUBSTRUCTURE
     1 21J         1 TEMP              0 ****  ****    0 ROOT
