@<TRIPOS>MOLECULE
21J
   53    50     1     0     0
SMALL
bcc


@<TRIPOS>ATOM
      1 C13        -5.2910   -2.7770    1.1910 c1        1 21J      0.038000
      2 C15        -4.8370   -3.6820    3.2460 c3        1 21J      0.201000
      3 C17        -5.1110   -2.9530    4.5250 c3        1 21J     -0.232000
      4 C21        -5.0320   -1.8250   -1.0420 c1        1 21J     -0.111000
      5 C22        -3.6510   -1.6770   -0.8160 c1        1 21J     -0.070000
      6 C26         1.6150    2.0100   -1.4740 c3        1 21J     -0.191500
      7 C28         6.8650    5.6570   -2.1220 c3        1 21J     -0.193000
      8 O01         6.1800    2.7910   -2.0130 o         1 21J     -0.929500
      9 S02         5.0020    3.6480   -2.1700 ss        1 21J      2.810000
     10 N03         3.7330    3.1210   -1.2110 n2        1 21J     -0.897000
     11 C04         3.0920    1.8300   -1.4880 c3        1 21J      0.038000
     12 C05         3.5440    0.8330   -0.4720 c3        1 21J     -0.191500
     13 C06         2.7840   -0.4820   -0.5790 c3        1 21J     -0.025000
     14 N07         1.3390   -0.2860   -0.5820 n         1 21J     -0.318000
     15 C08         0.4590   -0.9810    0.3020 c2        1 21J      0.311000
     16 C09        -1.0510   -0.8430    0.1370 c3        1 21J     -0.044000
     17 O10        -1.7010   -2.0770    0.5700 os        1 21J     -0.194000
     18 C11        -3.0980   -2.0760    0.4010 c1        1 21J      0.073000
     19 C12        -3.9360   -2.6340    1.4160 c1        1 21J     -0.008000
     20 O14        -5.8640   -3.4310    2.3340 os        1 21J     -0.198000
     21 C16        -4.7360   -5.2220    3.5220 c3        1 21J     -0.232000
     22 O18        -3.6360   -3.2210    2.6880 os        1 21J     -0.205000
     23 C19        -5.8520   -2.3740   -0.0420 c1        1 21J     -0.060000
     24 CL1        -7.5670   -2.5140   -0.3020 cl        1 21J      0.033000
     25 CL2        -3.2730   -1.2480   -2.4740 cl        1 21J      0.010000
     26 O24         0.9070   -1.7700    1.0950 o         1 21J     -0.364000
     27 C25         0.8730    0.6860   -1.5720 c3        1 21J     -0.025000
     28 C27         5.3890    5.3810   -1.7980 c2        1 21J     -0.853000
     29 O29         4.7120    3.4710   -3.5640 o         1 21J     -0.929500
     30 H171       -5.9820   -3.2600    4.9050 hc        1 21J      0.103833
     31 H172       -4.3860   -3.1390    5.1710 hc        1 21J      0.103833
     32 H173       -5.1530   -1.9920    4.3480 hc        1 21J      0.103833
     33 H211       -5.4180   -1.5470   -1.8880 ha        1 21J      0.168000
     34 H261        1.3560    2.4620   -0.6310 hc        1 21J      0.094750
     35 H262        1.3610    2.5650   -2.2160 hc        1 21J      0.094750
     36 H282        7.4240    5.1190   -1.5560 hc        1 21J      0.093333
     37 H283        7.0610    6.6070   -1.9670 hc        1 21J      0.093333
     38 H1          7.0370    5.4400   -3.0430 hc        1 21J      0.093333
     39 H031        3.3900    3.6660   -0.5800 hn        1 21J      0.245000
     40 H041        3.3640    1.5260   -2.3680 h1        1 21J      0.117000
     41 H051        3.4050    1.2130    0.4360 hc        1 21J      0.094750
     42 H052        4.4840    0.6610   -0.5980 hc        1 21J      0.094750
     43 H061        3.0420   -0.9290   -1.4020 h1        1 21J      0.106250
     44 H062        3.0250   -1.0500    0.1770 h1        1 21J      0.106250
     45 H091       -1.3800   -0.0810    0.6920 h1        1 21J      0.117000
     46 H092       -1.2600   -0.6780   -0.7940 h1        1 21J      0.117000
     47 H161       -5.6000   -5.5530    3.8490 hc        1 21J      0.103833
     48 H162       -4.0490   -5.3870    4.1930 hc        1 21J      0.103833
     49 H163       -4.4990   -5.6900    2.6890 hc        1 21J      0.103833
     50 H251        1.0110    0.2990   -2.5060 h1        1 21J      0.106250
     51 H252       -0.1180    0.8520   -1.4280 h1        1 21J      0.106250
     52 H271        4.8060    5.9810   -2.3550 ha        1 21J      0.143000
     53 H272        5.2210    5.5580   -0.8360 ha        1 21J      0.143000
@<TRIPOS>BOND
     1    1   20 1   
     2    1   23 1   
     3    2    3 1   
     4    2   20 1   
     5    2   21 1   
     6    2   22 1   
     7    3   30 1   
     8    3   31 1   
     9    3   32 1   
    10    4    5 1   
    11    4   33 1   
    12    5   25 1   
    13    6   11 1   
    14    6   27 1   
    15    6   34 1   
    16    6   35 1   
    17    7   28 1   
    18    7   36 1   
    19    7   37 1   
    20    7   38 1   
    21    8    9 1   
    22    9   29 1   
    23   10   11 1   
    24   10   39 1   
    25   11   12 1   
    26   11   40 1   
    27   12   13 1   
    28   12   41 1   
    29   12   42 1   
    30   13   14 1   
    31   13   43 1   
    32   13   44 1   
    33   14   15 1   
    34   14   27 1   
    35   15   16 1   
    36   15   26 1   
    37   16   17 1   
    38   16   45 1   
    39   16   46 1   
    40   17   18 1   
    41   18   19 1   
    42   19   22 1   
    43   21   47 1   
    44   21   48 1   
    45   21   49 1   
    46   23   24 1   
    47   27   50 1   
    48   27   51 1   
    49   28   52 1   
    50   28   53 1   
@<TRIPOS>SUBSTRUCTURE
     1 21J         1 TEMP              0 ****  ****    0 ROOT
