@<TRIPOS>MOLECULE
21J
   54    56     1     0     0
SMALL
bcc


@<TRIPOS>ATOM
      1 C13         1.7320   -1.2570    0.4690 ca        1 21J      0.106100
      2 C15        -0.1610    0.0380    0.6280 c3        1 21J      0.349600
      3 C17        -1.1370    0.1310   -0.5250 c3        1 21J     -0.115600
      4 C21         4.0000   -1.9190    0.1620 ca        1 21J     -0.093000
      5 C22         4.3720   -0.5930   -0.0490 ca        1 21J      0.003400
      6 C26         6.3800    3.5660    0.6440 c3        1 21J     -0.138400
      7 C28        12.6940    4.8680   -0.0650 c3        1 21J     -0.095100
      8 O01        10.0330    5.4700   -1.6310 o         1 21J     -0.552800
      9 N03         8.7500    3.8370   -0.1410 n4        1 21J     -0.722900
     10 C04         7.3820    4.4670   -0.0840 c3        1 21J      0.122500
     11 C05         6.8740    4.8200   -1.4870 c3        1 21J     -0.138400
     12 C06         5.4680    5.4320   -1.3900 c3        1 21J      0.083500
     13 N07         4.5330    4.5940   -0.6690 n         1 21J     -0.445800
     14 C08         3.6740    3.7660   -1.4070 c         1 21J      0.649100
     15 C09         2.8930    2.6540   -0.7140 c3        1 21J      0.060400
     16 O10         3.8580    1.7610   -0.1340 os        1 21J     -0.337900
     17 C11         3.4200    0.4580    0.0020 ca        1 21J      0.123100
     18 C12         2.1090    0.0960    0.2660 ca        1 21J      0.014100
     19 O14         0.3720   -1.3250    0.6970 os        1 21J     -0.304900
     20 C16        -0.7540    0.4050    1.9730 c3        1 21J     -0.115600
     21 O18         0.9900    0.9090    0.3580 os        1 21J     -0.340900
     22 C19         2.6630   -2.2830    0.4260 ca        1 21J      0.011400
     23 CL1         2.2500   -3.8970    0.6700 cl        1 21J     -0.023400
     24 CL2         6.0120   -0.2580   -0.3720 cl        1 21J     -0.102400
     25 O24         3.4810    3.9870   -2.6140 o         1 21J     -0.554100
     26 C25         4.9970    4.2370    0.6480 c3        1 21J      0.083500
     27 C27        11.3910    4.0940    0.0390 c3        1 21J     -0.387600
     28 O29         9.8320    5.9970    0.7170 o         1 21J     -0.552800
     29 H171       -1.9820   -0.5770   -0.3480 hc        1 21J      0.068200
     30 H172       -0.6350   -0.1370   -1.4850 hc        1 21J      0.068200
     31 H173       -1.5310    1.1730   -0.5960 hc        1 21J      0.068200
     32 H211        4.7660   -2.7130    0.1170 ha        1 21J      0.174000
     33 H261        6.2980    2.5630    0.1430 hc        1 21J      0.080200
     34 H262        6.6950    3.4060    1.7070 hc        1 21J      0.080200
     35 H282       13.5560    4.1910    0.1580 hc        1 21J      0.085033
     36 H283       12.7180    5.7070    0.6750 hc        1 21J      0.085033
     37 H1         12.8350    5.2730   -1.0990 hc        1 21J      0.085033
     38 H031        8.8620    3.2720    0.7000 hn        1 21J      0.452300
     39 H041        7.5020    5.4210    0.5200 hx        1 21J      0.113700
     40 H051        7.5510    5.5660   -1.9810 hc        1 21J      0.080200
     41 H052        6.8350    3.9030   -2.1330 hc        1 21J      0.080200
     42 H061        5.0850    5.6160   -2.4360 h1        1 21J      0.088200
     43 H062        5.5320    6.4220   -0.8550 h1        1 21J      0.088200
     44 H091        2.2390    3.0550    0.1040 h1        1 21J      0.096700
     45 H092        2.2630    2.1270   -1.4800 h1        1 21J      0.096700
     46 H161       -1.5850   -0.3030    2.2110 hc        1 21J      0.068200
     47 H162        0.0210    0.3390    2.7720 hc        1 21J      0.068200
     48 H163       -1.1510    1.4470    1.9310 hc        1 21J      0.068200
     49 H251        4.2690    3.5450    1.1570 h1        1 21J      0.088200
     50 H252        5.0570    5.1870    1.2570 h1        1 21J      0.088200
     51 H271       11.4830    3.2120   -0.6570 h1        1 21J      0.153700
     52 H272       11.3630    3.6450    1.0730 h1        1 21J      0.153700
     53 S02        10.1110    5.1100   -0.3020 s6        1 21J      1.384900
     54 H032        8.7580    3.1950   -0.9360 hn        1 21J      0.452300
@<TRIPOS>BOND
     1    1   18 ar  
     2    1   19 1   
     3    1   22 ar  
     4    2    3 1   
     5    2   19 1   
     6    2   20 1   
     7    2   21 1   
     8    3   29 1   
     9    3   30 1   
    10    3   31 1   
    11    4    5 ar  
    12    4   22 ar  
    13    4   32 1   
    14    5   17 ar  
    15    5   24 1   
    16    6   10 1   
    17    6   26 1   
    18    6   33 1   
    19    6   34 1   
    20    7   27 1   
    21    7   35 1   
    22    7   36 1   
    23    7   37 1   
    24    8   53 2   
    25    9   10 1   
    26    9   38 1   
    27    9   53 1   
    28    9   54 1   
    29   10   11 1   
    30   10   39 1   
    31   11   12 1   
    32   11   40 1   
    33   11   41 1   
    34   12   13 1   
    35   12   42 1   
    36   12   43 1   
    37   13   14 1   
    38   13   26 1   
    39   14   15 1   
    40   14   25 2   
    41   15   16 1   
    42   15   44 1   
    43   15   45 1   
    44   16   17 1   
    45   17   18 ar  
    46   18   21 1   
    47   20   46 1   
    48   20   47 1   
    49   20   48 1   
    50   22   23 1   
    51   26   49 1   
    52   26   50 1   
    53   27   51 1   
    54   27   52 1   
    55   27   53 1   
    56   28   53 2   
@<TRIPOS>SUBSTRUCTURE
     1 21J         1 TEMP              0 ****  ****    0 ROOT
