@<TRIPOS>MOLECULE
21J
   53    55     1     0     0
SMALL
bcc


@<TRIPOS>ATOM
      1 C13         4.5640    0.9640   -0.2130 ca        1 21J      0.102100
      2 C15         3.0580    2.0500    1.1380 c3        1 21J      0.346600
      3 C17         3.0290    1.8070    2.6340 c3        1 21J     -0.113100
      4 C21         5.5200   -0.5760   -1.7540 ca        1 21J     -0.094000
      5 C22         4.2950   -1.2250   -1.8930 ca        1 21J     -0.004600
      6 C26        -2.8450    0.1790   -0.0410 c3        1 21J     -0.120900
      7 C28        -7.3130    2.6070    1.3210 c3        1 21J     -0.076100
      8 O01        -7.5630    0.6910   -1.0840 o         1 21J     -0.649300
      9 N03        -5.1750    0.1140   -0.8980 n3        1 21J     -0.923100
     10 C04        -4.1050   -0.6600   -0.3200 c3        1 21J      0.235500
     11 C05        -3.7100   -1.8670   -1.1870 c3        1 21J     -0.120900
     12 C06        -2.6030   -2.6720   -0.5070 c3        1 21J      0.078500
     13 N07        -1.4430   -1.8850   -0.1300 n         1 21J     -0.457800
     14 C08        -0.2810   -1.9840   -0.9030 c         1 21J      0.648100
     15 C09         0.8710   -1.0410   -0.5710 c3        1 21J      0.056400
     16 O10         1.9690   -1.4730   -1.3860 os        1 21J     -0.270900
     17 C11         3.1430   -0.7850   -1.1800 ca        1 21J      0.154100
     18 C12         3.3130    0.3130   -0.3500 ca        1 21J     -0.019900
     19 O14         4.4440    2.0180    0.6760 os        1 21J     -0.313900
     20 C16         2.4290    3.3650    0.7200 c3        1 21J     -0.113100
     21 O18         2.3730    0.9510    0.4580 os        1 21J     -0.348900
     22 C19         5.6840    0.5380   -0.9070 ca        1 21J     -0.002600
     23 CL1         7.1870    1.2950   -0.7660 cl        1 21J     -0.050400
     24 CL2         4.2060   -2.5570   -2.9380 cl        1 21J     -0.044400
     25 O24        -0.1670   -2.8610   -1.7740 o         1 21J     -0.555100
     26 C25        -1.7720   -0.6930    0.6170 c3        1 21J      0.078500
     27 C27        -6.1550    2.0680    0.5240 c3        1 21J     -0.312600
     28 O29        -6.7850   -0.3620    0.9420 o         1 21J     -0.649300
     29 H171        3.6080    2.6110    3.1480 hc        1 21J      0.062367
     30 H172        1.9730    1.8180    2.9920 hc        1 21J      0.062367
     31 H173        3.4870    0.8180    2.8740 hc        1 21J      0.062367
     32 H211        6.3920   -0.9420   -2.3220 ha        1 21J      0.169000
     33 H261       -2.4570    0.6190   -0.9950 hc        1 21J      0.056950
     34 H262       -3.0860    1.0240    0.6540 hc        1 21J      0.056950
     35 H282       -7.0610    3.6070    1.7490 hc        1 21J      0.054033
     36 H283       -8.2150    2.7230    0.6690 hc        1 21J      0.054033
     37 H1         -7.5630    1.9160    2.1640 hc        1 21J      0.054033
     38 H031       -5.0280    0.3420   -1.8530 hn        1 21J      0.450800
     39 H041       -4.4790   -1.0620    0.6750 h1        1 21J      0.078700
     40 H051       -4.5930   -2.5410   -1.3350 hc        1 21J      0.056950
     41 H052       -3.3690   -1.5210   -2.1970 hc        1 21J      0.056950
     42 H061       -3.0120   -3.1300    0.4390 h1        1 21J      0.066700
     43 H062       -2.2820   -3.5060   -1.1950 h1        1 21J      0.066700
     44 H091        0.6080    0.0170   -0.8380 h1        1 21J      0.077200
     45 H092        1.1540   -1.1140    0.5130 h1        1 21J      0.077200
     46 H161        2.9970    4.2060    1.1830 hc        1 21J      0.062367
     47 H162        2.4570    3.4720   -0.3900 hc        1 21J      0.062367
     48 H163        1.3680    3.3940    1.0640 hc        1 21J      0.062367
     49 H251       -0.8570   -0.0660    0.7980 h1        1 21J      0.066700
     50 H252       -2.1560   -1.0320    1.6240 h1        1 21J      0.066700
     51 H271       -5.9050    2.8050   -0.2830 h1        1 21J      0.102700
     52 H272       -5.2530    2.0250    1.1880 h1        1 21J      0.102700
     53 S02        -6.5380    0.5190   -0.1320 s6        1 21J      1.454900
@<TRIPOS>BOND
     1    1   18 ar  
     2    1   19 1   
     3    1   22 ar  
     4    2    3 1   
     5    2   19 1   
     6    2   20 1   
     7    2   21 1   
     8    3   29 1   
     9    3   30 1   
    10    3   31 1   
    11    4    5 ar  
    12    4   22 ar  
    13    4   32 1   
    14    5   17 ar  
    15    5   24 1   
    16    6   10 1   
    17    6   26 1   
    18    6   33 1   
    19    6   34 1   
    20    7   27 1   
    21    7   35 1   
    22    7   36 1   
    23    7   37 1   
    24    8   53 2   
    25    9   10 1   
    26    9   38 1   
    27    9   53 1   
    28   10   11 1   
    29   10   39 1   
    30   11   12 1   
    31   11   40 1   
    32   11   41 1   
    33   12   13 1   
    34   12   42 1   
    35   12   43 1   
    36   13   14 1   
    37   13   26 1   
    38   14   15 1   
    39   14   25 2   
    40   15   16 1   
    41   15   44 1   
    42   15   45 1   
    43   16   17 1   
    44   17   18 ar  
    45   18   21 1   
    46   20   46 1   
    47   20   47 1   
    48   20   48 1   
    49   22   23 1   
    50   26   49 1   
    51   26   50 1   
    52   27   51 1   
    53   27   52 1   
    54   27   53 1   
    55   28   53 2   
@<TRIPOS>SUBSTRUCTURE
     1 21J         1 TEMP              0 ****  ****    0 ROOT
