@<TRIPOS>MOLECULE
21K
   46    43     1     0     0
SMALL
bcc


@<TRIPOS>ATOM
      1 C13        -0.4110    0.3280    2.8430 c1        1 21K      0.030200
      2 C17         1.9510    0.3630    0.9090 ce        1 21K      0.030700
      3 C20         7.9720   -1.7970    0.1950 c2        1 21K     -0.195000
      4 C21         7.6460   -0.5060    0.2440 c2        1 21K     -0.219200
      5 C22         9.1330    1.9280   -6.0160 c3        1 21K     -0.327600
      6 O01         8.7780    3.1290   -3.7680 o         1 21K     -0.700300
      7 N03         7.4970    3.9200   -5.7360 n3        1 21K     -1.031700
      8 C04         8.2870    0.5360   -0.5950 c3        1 21K     -0.068200
      9 C05         7.2890    1.4750   -1.2390 c3        1 21K     -0.207700
     10 C06         6.3380    0.8710   -2.2080 c2        1 21K      0.438500
     11 N07         6.2200   -0.4120   -2.4520 n         1 21K     -0.357500
     12 C08         5.3090   -1.0070   -3.4260 c         1 21K      0.672100
     13 C09         4.4620   -0.1080   -4.2620 c3        1 21K     -0.188100
     14 N10         3.9240    0.6810   -0.7310 n1        1 21K     -0.479800
     15 C11         3.0350    0.5500    0.0090 cg        1 21K      0.280500
     16 C12        -1.0240   -0.6780    3.3820 c2        1 21K     -0.184100
     17 C14         0.1650    1.3920    2.3310 cf        1 21K     -0.041700
     18 CL1        -0.4360    2.9370    2.7700 cl        1 21K     -0.078400
     19 C16         1.2780    1.4210    1.4140 cf        1 21K     -0.001000
     20 CL2         1.6310   -1.2650    1.2500 cl        1 21K     -0.040400
     21 O19         5.3400   -2.2340   -3.4710 o         1 21K     -0.461100
     22 C23         9.8800    0.7930   -5.3620 c3        1 21K     -0.076100
     23 O24         7.0330    1.7790   -4.5650 o         1 21K     -0.700300
     24 H131       -1.8910   -1.1620    2.9040 ha        1 21K      0.162000
     25 H201        6.7780   -1.0810   -1.9290 hn        1 21K      0.363500
     26 H202        8.7350   -2.1970   -0.4870 ha        1 21K      0.130000
     27 H211        7.5090   -2.5420    0.8580 ha        1 21K      0.130000
     28 H212        6.8960   -0.1340    0.9620 ha        1 21K      0.137000
     29 H221        8.5890    1.5210   -6.9110 h1        1 21K      0.127700
     30 H222        9.8940    2.6390   -6.4400 h1        1 21K      0.127700
     31 H031        8.9640    1.1540    0.0610 hc        1 21K      0.076700
     32 H041        6.7540    3.8590   -6.3890 hn        1 21K      0.467800
     33 H051        8.9400    0.0740   -1.3840 hc        1 21K      0.076700
     34 H052        7.8510    2.2860   -1.7990 hc        1 21K      0.132700
     35 H061        6.6660    1.9850   -0.4480 hc        1 21K      0.132700
     36 H062        5.6890    1.5820   -2.7780 h4        1 21K      0.080800
     37 H091        5.1030    0.6190   -4.8270 hc        1 21K      0.105700
     38 H092        3.8890   -0.7380   -4.9900 hc        1 21K      0.105700
     39 H101        3.7380    0.4540   -3.6210 hc        1 21K      0.105700
     40 H121       -0.7070   -1.1110    4.3450 ha        1 21K      0.162000
     41 H161        1.6000    2.4370    1.1020 ha        1 21K      0.162000
     42 H231       10.5920    0.3290   -6.0880 hc        1 21K      0.059033
     43 H232        9.1690    0.0010   -5.0200 hc        1 21K      0.059033
     44 H2         10.4680    1.1620   -4.4860 hc        1 21K      0.059033
     45 S02         8.0790    2.6940   -4.9160 s6        1 21K      1.474900
     46 H032        7.8300    4.8500   -5.6360 hn        1 21K      0.467800
@<TRIPOS>BOND
     1    1   16 2   
     2    1   17 2   
     3    2   15 1   
     4    2   19 2   
     5    2   20 1   
     6    3    4 2   
     7    3   26 1   
     8    3   27 1   
     9    4    8 1   
    10    4   28 1   
    11    5   22 1   
    12    5   29 1   
    13    5   30 1   
    14    5   45 1   
    15    6   45 2   
    16    7   32 1   
    17    7   45 1   
    18    7   46 1   
    19    8    9 1   
    20    8   31 1   
    21    8   33 1   
    22    9   10 1   
    23    9   34 1   
    24    9   35 1   
    25   10   11 2   
    26   10   36 1   
    27   11   12 1   
    28   11   25 1   
    29   12   13 1   
    30   12   21 2   
    31   13   37 1   
    32   13   38 1   
    33   13   39 1   
    34   14   15 3   
    35   16   24 1   
    36   16   40 1   
    37   17   18 1   
    38   17   19 1   
    39   19   41 1   
    40   22   42 1   
    41   22   43 1   
    42   22   44 1   
    43   23   45 2   
@<TRIPOS>SUBSTRUCTURE
     1 21K         1 TEMP              0 ****  ****    0 ROOT
