@<TRIPOS>MOLECULE
21K
   45    46     1     0     0
SMALL
bcc


@<TRIPOS>ATOM
      1 C13         5.1570   -1.3560   -1.0960 ca        1 21K     -0.096000
      2 C17         4.7770    0.9770    0.3880 ca        1 21K     -0.025600
      3 C20        -1.5730    1.7190   -0.8600 c3        1 21K      0.081500
      4 C21        -2.9000    1.7300   -0.1020 c3        1 21K     -0.118900
      5 C22        -6.3480   -1.7990    0.1080 c3        1 21K     -0.312600
      6 O01        -7.3380    0.5280    0.3750 o         1 21K     -0.649300
      7 N03        -4.8820    0.3330    0.4250 n3        1 21K     -0.923100
      8 C04        -3.6010    0.3670   -0.2340 c3        1 21K      0.235500
      9 C05        -2.6410   -0.7270    0.2700 c3        1 21K     -0.118900
     10 C06        -1.3240   -0.6690   -0.5070 c3        1 21K      0.081500
     11 N07        -0.6890    0.6290   -0.4930 n         1 21K     -0.455800
     12 C08         0.4540    0.8960    0.2550 c         1 21K      0.618100
     13 C09         1.3450   -0.2800    0.6960 c3        1 21K      0.117800
     14 N10         2.6290    0.1010    1.2280 nh        1 21K     -0.700600
     15 C11         3.7630   -0.0170    0.4000 ca        1 21K      0.137600
     16 C12         3.9920   -1.1890   -0.3590 ca        1 21K     -0.156000
     17 C14         6.1360   -0.3590   -1.0930 ca        1 21K     -0.007600
     18 CL1         7.5600   -0.5650   -1.9970 cl        1 21K     -0.086400
     19 C16         5.9500    0.8050   -0.3470 ca        1 21K     -0.090000
     20 CL2         4.5950    2.4140    1.2800 cl        1 21K     -0.078400
     21 O19         0.7810    2.0710    0.5160 o         1 21K     -0.597100
     22 C23        -7.5760   -2.4220   -0.5020 c3        1 21K     -0.076100
     23 O24        -6.1790    0.0080   -1.6760 o         1 21K     -0.649300
     24 H131        5.3060   -2.2780   -1.6780 ha        1 21K      0.150000
     25 H201       -1.7830    1.6180   -1.9640 h1        1 21K      0.064950
     26 H202       -1.0470    2.7010   -0.6890 h1        1 21K      0.064950
     27 H211       -2.7260    1.9710    0.9780 hc        1 21K      0.057200
     28 H212       -3.5440    2.5380   -0.5350 hc        1 21K      0.057200
     29 H221       -5.4460   -2.3530   -0.2610 h1        1 21K      0.103700
     30 H222       -6.3770   -1.9690    1.2160 h1        1 21K      0.103700
     31 H031       -4.8570    0.6720    1.3580 hn        1 21K      0.450800
     32 H041       -3.7850    0.1820   -1.3400 h1        1 21K      0.078700
     33 H051       -2.4510   -0.5950    1.3660 hc        1 21K      0.057200
     34 H052       -3.0930   -1.7400    0.1190 hc        1 21K      0.057200
     35 H061       -0.6350   -1.4580   -0.0990 h1        1 21K      0.064950
     36 H062       -1.5340   -0.9240   -1.5880 h1        1 21K      0.064950
     37 H091        0.7980   -0.8110    1.5300 h1        1 21K      0.076700
     38 H092        1.4660   -0.9910   -0.1690 h1        1 21K      0.076700
     39 H101        2.5830    0.9910    1.6970 hn        1 21K      0.422800
     40 H121        3.2490   -2.0020   -0.3580 ha        1 21K      0.140000
     41 H161        6.7230    1.5910   -0.3400 ha        1 21K      0.162000
     42 H231       -7.5600   -2.3110   -1.6150 hc        1 21K      0.054367
     43 H232       -7.6230   -3.5110   -0.2590 hc        1 21K      0.054367
     44 H2         -8.5010   -1.9340   -0.1040 hc        1 21K      0.054367
     45 S02        -6.2660   -0.1190   -0.2740 s6        1 21K      1.454900
@<TRIPOS>BOND
     1    1   16 ar  
     2    1   17 ar  
     3    1   24 1   
     4    2   15 ar  
     5    2   19 ar  
     6    2   20 1   
     7    3    4 1   
     8    3   11 1   
     9    3   25 1   
    10    3   26 1   
    11    4    8 1   
    12    4   27 1   
    13    4   28 1   
    14    5   22 1   
    15    5   29 1   
    16    5   30 1   
    17    5   45 1   
    18    6   45 2   
    19    7    8 1   
    20    7   31 1   
    21    7   45 1   
    22    8    9 1   
    23    8   32 1   
    24    9   10 1   
    25    9   33 1   
    26    9   34 1   
    27   10   11 1   
    28   10   35 1   
    29   10   36 1   
    30   11   12 1   
    31   12   13 1   
    32   12   21 2   
    33   13   14 1   
    34   13   37 1   
    35   13   38 1   
    36   14   15 1   
    37   14   39 1   
    38   15   16 ar  
    39   16   40 1   
    40   17   18 1   
    41   17   19 ar  
    42   19   41 1   
    43   22   42 1   
    44   22   43 1   
    45   22   44 1   
    46   23   45 2   
@<TRIPOS>SUBSTRUCTURE
     1 21K         1 TEMP              0 ****  ****    0 ROOT
