@<TRIPOS>MOLECULE
21K
   45    42     1     0     0
SMALL
bcc


@<TRIPOS>ATOM
      1 C13        -5.3940   -4.2710    2.0250 c1        1 21K     -0.096000
      2 C17        -2.7750   -4.3570    1.0950 c1        1 21K     -0.104000
      3 C20         2.1340   -0.3650    1.1110 c3        1 21K     -0.034500
      4 C21         2.5700    1.0550    0.7680 c3        1 21K     -0.197500
      5 C22         2.9950    5.2180   -2.3570 c3        1 21K     -0.852000
      6 O01         2.6850    2.7240   -3.3390 o         1 21K     -0.536900
      7 S02         3.1850    3.4160   -2.1810 s4        1 21K      2.026800
      8 N03         2.4350    2.8900   -0.7920 n2        1 21K     -0.896000
      9 C04         2.1470    1.4590   -0.6060 c3        1 21K      0.038000
     10 C05         0.6920    1.2260   -0.8330 c3        1 21K     -0.197500
     11 C06         0.2730   -0.1940   -0.4770 c3        1 21K     -0.034500
     12 N07         0.7110   -0.5820    0.8650 n         1 21K     -0.314000
     13 C08        -0.1880   -1.1350    1.8630 c2        1 21K      0.262000
     14 C09        -1.6620   -1.3760    1.5160 c3        1 21K     -0.069000
     15 N10        -2.2150   -2.3720    2.4160 n3        1 21K     -0.256000
     16 C11        -3.1810   -3.3220    1.9310 c1        1 21K      0.056000
     17 C12        -4.4890   -3.2780    2.3970 c1        1 21K     -0.156000
     18 C14        -4.9880   -5.3030    1.1900 c1        1 21K     -0.086000
     19 CL1        -6.0740   -6.6230    0.8490 cl        1 21K     -0.008000
     20 C16        -3.6770   -5.3460    0.7250 c2        1 21K     -0.090000
     21 CL2        -1.4550   -4.9850    0.1520 cl        1 21K      0.000000
     22 O19         0.2350   -1.4380    2.9580 o         1 21K     -0.358000
     23 C23         2.4260    5.5400   -3.7440 c3        1 21K     -0.194000
     24 O24         4.5720    3.0310   -2.2030 o         1 21K     -0.536900
     25 H131       -6.3140   -4.2400    2.3520 ha        1 21K      0.150000
     26 H201        2.3210   -0.5340    2.0550 h1        1 21K      0.104250
     27 H202        2.6520   -0.9980    0.5650 h1        1 21K      0.104250
     28 H211        2.1780    1.6700    1.4120 hc        1 21K      0.096500
     29 H212        3.5490    1.1120    0.8290 hc        1 21K      0.096500
     30 H221        3.8690    5.6500   -2.2540 h1        1 21K      0.143000
     31 H222        2.3820    5.5520   -1.6660 h1        1 21K      0.143000
     32 H031        2.2090    3.4840   -0.1460 hn        1 21K      0.246000
     33 H041        2.6600    0.9410   -1.2630 h1        1 21K      0.118000
     34 H051        0.4880    1.3890   -1.7790 hc        1 21K      0.096500
     35 H052        0.1810    1.8530   -0.2860 hc        1 21K      0.096500
     36 H061        0.6620   -0.8130   -1.1300 h1        1 21K      0.104250
     37 H062       -0.7030   -0.2560   -0.5220 h1        1 21K      0.104250
     38 H091       -2.1630   -0.5360    1.6110 h1        1 21K      0.116000
     39 H092       -1.7310   -1.6950    0.5970 h1        1 21K      0.116000
     40 H101       -1.9430   -2.4010    3.2900 hn        1 21K      0.218000
     41 H121       -4.7740   -2.5530    2.9820 ha        1 21K      0.140000
     42 H161       -3.3920   -6.0700    0.1390 ha        1 21K      0.162000
     43 H231        1.7290    4.8910   -3.9690 hc        1 21K      0.093667
     44 H232        3.1380    5.4930   -4.4060 hc        1 21K      0.093667
     45 H2          2.0400    6.4500   -3.7400 hc        1 21K      0.093667
@<TRIPOS>BOND
     1    1   18 1   
     2    1   25 1   
     3    2   20 1   
     4    2   21 1   
     5    3    4 1   
     6    3   12 1   
     7    3   26 1   
     8    3   27 1   
     9    4    9 1   
    10    4   28 1   
    11    4   29 1   
    12    5    7 1   
    13    5   23 1   
    14    5   30 1   
    15    5   31 1   
    16    6    7 1   
    17    7   24 1   
    18    8    9 1   
    19    8   32 1   
    20    9   10 1   
    21    9   33 1   
    22   10   11 1   
    23   10   34 1   
    24   10   35 1   
    25   11   12 1   
    26   11   36 1   
    27   11   37 1   
    28   12   13 1   
    29   13   14 1   
    30   13   22 1   
    31   14   15 1   
    32   14   38 1   
    33   14   39 1   
    34   15   16 1   
    35   15   40 1   
    36   16   17 1   
    37   17   41 1   
    38   18   20 1   
    39   20   42 1   
    40   23   43 1   
    41   23   44 1   
    42   23   45 1   
@<TRIPOS>SUBSTRUCTURE
     1 21K         1 TEMP              0 ****  ****    0 ROOT
