@<TRIPOS>MOLECULE
21L
   72    76     1     0     0
SMALL
bcc


@<TRIPOS>ATOM
      1 C1          1.8760   -2.3610   -0.0720 ca        1 21L     -0.122000
      2 C2          3.1840   -2.1300    0.4160 ca        1 21L     -0.081000
      3 C3          0.7890   -1.9170    0.6390 ca        1 21L     -0.094000
      4 C4          3.3790   -1.4510    1.5950 ca        1 21L     -0.173000
      5 C5         -0.1620   -0.7700    2.6100 ca        1 21L     -0.063000
      6 C6          1.3080    0.1630    4.2810 ca        1 21L     -0.066000
      7 C7          8.1710    4.4250    3.6970 ca        1 21L     -0.338000
      8 C8          0.9620   -1.2160    1.8650 ca        1 21L     -0.044000
      9 C9          2.2750   -0.9690    2.3490 ca        1 21L     -0.018000
     10 C10         6.3840    2.7300    3.4450 ca        1 21L     -0.293600
     11 C11         6.5270    4.6910    1.9330 ca        1 21L     -0.201300
     12 C12        -0.0010   -0.0960    3.8010 ca        1 21L     -0.091300
     13 C13         2.4180   -0.2560    3.5770 ca        1 21L     -0.177300
     14 C14         5.9200    3.5010    2.3720 ca        1 21L      0.205100
     15 C15         7.5430    3.2490    4.1140 ca        1 21L      0.284100
     16 C16         7.6810    5.1470    2.5890 ca        1 21L      0.305100
     17 C17         3.4170    4.5050    0.1150 ce        1 21L     -0.191000
     18 C18         4.1400    6.8440   -0.2060 cf        1 21L     -0.331400
     19 C19         3.2890    5.8220   -0.5140 ce        1 21L      0.210100
     20 C20         4.5840    4.2590    0.7290 c2        1 21L      0.091900
     21 C21         5.2590    6.6310    0.7340 c         1 21L      0.614300
     22 C22         5.8240    1.4730    3.8990 c         1 21L      0.590700
     23 C23         3.9870    8.2010   -0.7970 c         1 21L      0.603300
     24 C24        -2.1620    0.3230    6.8570 c         1 21L      0.626100
     25 C25         5.7830    5.1960    0.7270 c3        1 21L     -0.057500
     26 C26         3.5750    9.2750    0.1520 c3        1 21L     -0.197100
     27 C27         6.6360    5.0200   -0.5270 c3        1 21L     -0.085100
     28 C28         9.1210    2.9460    5.8840 c3        1 21L      0.106700
     29 C29        -3.8780    0.2360    8.5050 c3        1 21L      0.123700
     30 C30        -1.1670    0.3920    4.5880 c3        1 21L     -0.043100
     31 C31         3.7730    0.0240    4.1340 c3        1 21L      0.176100
     32 C32        -1.3990   -0.4540    5.8270 c3        1 21L     -0.128400
     33 N33         4.4280    1.1530    3.3990 n4        1 21L     -0.673800
     34 O34         5.7650    7.5120    1.4260 o         1 21L     -0.484100
     35 O35         6.3250    0.6350    4.6380 o         1 21L     -0.426100
     36 O36         4.2020    8.3970   -1.9950 o         1 21L     -0.498100
     37 O37        -2.0050    1.4990    7.1920 o         1 21L     -0.544000
     38 O38         4.7930    3.1690    1.6050 os        1 21L     -0.276200
     39 O39         8.2930    6.2530    2.1020 oh        1 21L     -0.435100
     40 O40         2.2350    6.0650   -1.3490 oh        1 21L     -0.456100
     41 O41         7.9570    2.5020    5.1760 os        1 21L     -0.299900
     42 O42        -3.1190   -0.4190    7.4840 os        1 21L     -0.430900
     43 H1          1.7450   -2.9070   -1.0200 ha        1 21L      0.156000
     44 H2          4.0430   -2.5110   -0.1590 ha        1 21L      0.150000
     45 H3         -0.2360   -2.1010    0.2770 ha        1 21L      0.152000
     46 H4          4.4030   -1.3150    1.9720 ha        1 21L      0.116000
     47 H5         -1.1710   -0.9770    2.2150 ha        1 21L      0.155000
     48 H6          1.4150    0.7020    5.2370 ha        1 21L      0.146000
     49 H7          9.0600    4.7990    4.2270 ha        1 21L      0.172000
     50 H17         2.5630    3.8160    0.1070 ha        1 21L      0.166000
     51 H26         3.5140   10.2590   -0.3740 hc        1 21L      0.076033
     52 H26A        2.5750    9.0310    0.5860 hc        1 21L      0.076033
     53 H26B        4.3210    9.3470    0.9830 hc        1 21L      0.076033
     54 H27         6.0660    5.3410   -1.4330 hc        1 21L      0.068700
     55 H27A        6.9370    3.9520   -0.6440 hc        1 21L      0.068700
     56 H27B        7.5550    5.6500   -0.4310 hc        1 21L      0.068700
     57 H28         8.9390    3.9490    6.3390 h1        1 21L      0.069367
     58 H28A        9.2380    2.1600    6.6760 h1        1 21L      0.069367
     59 H28B       10.0070    2.9610    5.2050 h1        1 21L      0.069367
     60 H29        -4.5810   -0.5590    8.8570 h1        1 21L      0.057700
     61 H29A       -4.4250    1.1070    8.0710 h1        1 21L      0.057700
     62 H29B       -3.1990    0.5760    9.3230 h1        1 21L      0.057700
     63 H30        -2.0930    0.3830    3.9530 hc        1 21L      0.074700
     64 H30A       -0.9860    1.4600    4.8950 hc        1 21L      0.074700
     65 H31         3.7180    0.3170    5.2230 hx        1 21L      0.113700
     66 H31A        4.4450   -0.8810    4.0550 hx        1 21L      0.113700
     67 H32        -1.9540   -1.3940    5.5680 hc        1 21L      0.083700
     68 H32A       -0.4210   -0.7510    6.2930 hc        1 21L      0.083700
     69 HN33        4.4830    0.9170    2.3980 hn        1 21L      0.460800
     70 HO39        9.0200    6.5080    2.6980 ho        1 21L      0.451000
     71 HO40        1.7920    5.2250   -1.5480 ho        1 21L      0.436000
     72 H332        3.8480    1.9970    3.4750 hn        1 21L      0.460800
@<TRIPOS>BOND
     1    1    2 ar  
     2    1    3 ar  
     3    1   43 1   
     4    2    4 ar  
     5    2   44 1   
     6    3    8 ar  
     7    3   45 1   
     8    4    9 ar  
     9    4   46 1   
    10    5    8 ar  
    11    5   12 ar  
    12    5   47 1   
    13    6   12 ar  
    14    6   13 ar  
    15    6   48 1   
    16    7   15 ar  
    17    7   16 ar  
    18    7   49 1   
    19    8    9 ar  
    20    9   13 ar  
    21   10   14 ar  
    22   10   15 ar  
    23   10   22 1   
    24   11   14 ar  
    25   11   16 ar  
    26   11   25 1   
    27   12   30 1   
    28   13   31 1   
    29   14   38 1   
    30   15   41 1   
    31   16   39 1   
    32   17   19 1   
    33   17   20 2   
    34   17   50 1   
    35   18   19 2   
    36   18   21 1   
    37   18   23 1   
    38   19   40 1   
    39   20   25 1   
    40   20   38 1   
    41   21   25 1   
    42   21   34 2   
    43   22   33 1   
    44   22   35 2   
    45   23   26 1   
    46   23   36 2   
    47   24   32 1   
    48   24   37 2   
    49   24   42 1   
    50   25   27 1   
    51   26   51 1   
    52   26   52 1   
    53   26   53 1   
    54   27   54 1   
    55   27   55 1   
    56   27   56 1   
    57   28   41 1   
    58   28   57 1   
    59   28   58 1   
    60   28   59 1   
    61   29   42 1   
    62   29   60 1   
    63   29   61 1   
    64   29   62 1   
    65   30   32 1   
    66   30   63 1   
    67   30   64 1   
    68   31   33 1   
    69   31   65 1   
    70   31   66 1   
    71   32   67 1   
    72   32   68 1   
    73   33   69 1   
    74   33   72 1   
    75   39   70 1   
    76   40   71 1   
@<TRIPOS>SUBSTRUCTURE
     1 21L         1 TEMP              0 ****  ****    0 ROOT
