@<TRIPOS>MOLECULE
21L
   72    76     1     0     0
SMALL
bcc


@<TRIPOS>ATOM
      1 C1          1.9620   -2.3720   -0.0930 ca        1 21L     -0.122000
      2 C2          3.2630   -2.1310    0.4090 ca        1 21L     -0.081000
      3 C3          0.8640   -1.9370    0.6070 ca        1 21L     -0.094000
      4 C4          3.4400   -1.4500    1.5890 ca        1 21L     -0.173000
      5 C5         -0.1170   -0.7970    2.5670 ca        1 21L     -0.063000
      6 C6          1.3280    0.1480    4.2530 ca        1 21L     -0.066000
      7 C7          8.1480    4.4780    3.7550 ca        1 21L     -0.338000
      8 C8          1.0190   -1.2350    1.8350 ca        1 21L     -0.044000
      9 C9          2.3240   -0.9770    2.3330 ca        1 21L     -0.018000
     10 C10         6.3880    2.7600    3.4740 ca        1 21L     -0.293600
     11 C11         6.5340    4.7180    1.9600 ca        1 21L     -0.201300
     12 C12         0.0260   -0.1220    3.7600 ca        1 21L     -0.091300
     13 C13         2.4490   -0.2620    3.5610 ca        1 21L     -0.177300
     14 C14         5.9340    3.5210    2.3900 ca        1 21L      0.205100
     15 C15         7.5280    3.2950    4.1640 ca        1 21L      0.284100
     16 C16         7.6700    5.1900    2.6360 ca        1 21L      0.305100
     17 C17         3.4620    4.4870    0.0830 ce        1 21L     -0.191000
     18 C18         4.1610    6.8340   -0.2310 cf        1 21L     -0.331400
     19 C19         3.3290    5.8000   -0.5520 ce        1 21L      0.210100
     20 C20         4.6200    4.2570    0.7200 c2        1 21L      0.091900
     21 C21         5.2640    6.6380    0.7310 c         1 21L      0.614300
     22 C22         5.8370    1.4960    3.9200 c         1 21L      0.591700
     23 C23         4.0030    8.1870   -0.8300 c         1 21L      0.603300
     24 C24        -2.1680    0.2800    6.7950 c         1 21L      0.626100
     25 C25         5.8070    5.2090    0.7380 c3        1 21L     -0.057500
     26 C26         3.5590    9.2590    0.1080 c3        1 21L     -0.197100
     27 C27         6.6860    5.0410   -0.4990 c3        1 21L     -0.085100
     28 C28         9.0760    3.0160    5.9640 c3        1 21L      0.106700
     29 C29        -3.8980    0.1800    8.4270 c3        1 21L      0.123700
     30 C30        -1.1510    0.3560    4.5340 c3        1 21L     -0.043100
     31 C31         3.7950    0.0290    4.1330 c3        1 21L      0.176100
     32 C32        -1.3890   -0.4910    5.7720 c3        1 21L     -0.128400
     33 N33         4.4490    1.1630    3.4030 n4        1 21L     -0.673800
     34 O34         5.7460    7.5270    1.4290 o         1 21L     -0.484100
     35 O35         6.3370    0.6630    4.6630 o         1 21L     -0.425100
     36 O36         4.2380    8.3820   -2.0240 o         1 21L     -0.498100
     37 O37        -2.0240    1.4580    7.1300 o         1 21L     -0.544000
     38 O38         4.8260    3.1730    1.6040 os        1 21L     -0.276200
     39 O39         8.2770    6.3030    2.1570 oh        1 21L     -0.435100
     40 O40         2.2890    6.0270   -1.4080 oh        1 21L     -0.456100
     41 O41         7.9310    2.5570    5.2360 os        1 21L     -0.299900
     42 O42        -3.1250   -0.4690    7.4130 os        1 21L     -0.430900
     43 H1          1.8450   -2.9200   -1.0420 ha        1 21L      0.156000
     44 H2          4.1310   -2.5050   -0.1570 ha        1 21L      0.150000
     45 H3         -0.1550   -2.1300    0.2350 ha        1 21L      0.152000
     46 H4          4.4590   -1.3060    1.9780 ha        1 21L      0.116000
     47 H5         -1.1200   -1.0130    2.1620 ha        1 21L      0.155000
     48 H6          1.4210    0.6880    5.2100 ha        1 21L      0.146000
     49 H7          9.0220    4.8650    4.3010 ha        1 21L      0.172000
     50 H17         2.6170    3.7870    0.0610 ha        1 21L      0.166000
     51 H26         4.2880    9.3430    0.9530 hc        1 21L      0.076033
     52 H26A        3.4950   10.2400   -0.4230 hc        1 21L      0.076033
     53 H26B        2.5540    9.0030    0.5230 hc        1 21L      0.076033
     54 H27         7.0020    3.9770   -0.6070 hc        1 21L      0.068700
     55 H27A        6.1290    5.3520   -1.4170 hc        1 21L      0.068700
     56 H27B        7.5950    5.6830   -0.3880 hc        1 21L      0.068700
     57 H28         9.1880    2.2350    6.7600 h1        1 21L      0.069367
     58 H28A        8.8730    4.0190    6.4120 h1        1 21L      0.069367
     59 H28B        9.9730    3.0410    5.3010 h1        1 21L      0.069367
     60 H29        -4.4480    1.0460    7.9870 h1        1 21L      0.057700
     61 H29A       -3.2290    0.5260    9.2510 h1        1 21L      0.057700
     62 H29B       -4.5980   -0.6200    8.7730 h1        1 21L      0.057700
     63 H30        -0.9830    1.4260    4.8430 hc        1 21L      0.074700
     64 H30A       -2.0710    0.3390    3.8900 hc        1 21L      0.074700
     65 H31         4.4750   -0.8700    4.0610 hx        1 21L      0.113700
     66 H31A        3.7270    0.3220    5.2200 hx        1 21L      0.113700
     67 H32        -0.4140   -0.7800    6.2480 hc        1 21L      0.083700
     68 H32A       -1.9350   -1.4350    5.5080 hc        1 21L      0.083700
     69 HN33        3.8600    2.0010    3.4710 hn        1 21L      0.461300
     70 HO39        8.9890    6.5690    2.7650 ho        1 21L      0.451000
     71 HO40        1.8600    5.1810   -1.6120 ho        1 21L      0.436000
     72 H332        4.5180    0.9260    2.4030 hn        1 21L      0.461300
@<TRIPOS>BOND
     1    1    2 ar  
     2    1    3 ar  
     3    1   43 1   
     4    2    4 ar  
     5    2   44 1   
     6    3    8 ar  
     7    3   45 1   
     8    4    9 ar  
     9    4   46 1   
    10    5    8 ar  
    11    5   12 ar  
    12    5   47 1   
    13    6   12 ar  
    14    6   13 ar  
    15    6   48 1   
    16    7   15 ar  
    17    7   16 ar  
    18    7   49 1   
    19    8    9 ar  
    20    9   13 ar  
    21   10   14 ar  
    22   10   15 ar  
    23   10   22 1   
    24   11   14 ar  
    25   11   16 ar  
    26   11   25 1   
    27   12   30 1   
    28   13   31 1   
    29   14   38 1   
    30   15   41 1   
    31   16   39 1   
    32   17   19 1   
    33   17   20 2   
    34   17   50 1   
    35   18   19 2   
    36   18   21 1   
    37   18   23 1   
    38   19   40 1   
    39   20   25 1   
    40   20   38 1   
    41   21   25 1   
    42   21   34 2   
    43   22   33 1   
    44   22   35 2   
    45   23   26 1   
    46   23   36 2   
    47   24   32 1   
    48   24   37 2   
    49   24   42 1   
    50   25   27 1   
    51   26   51 1   
    52   26   52 1   
    53   26   53 1   
    54   27   54 1   
    55   27   55 1   
    56   27   56 1   
    57   28   41 1   
    58   28   57 1   
    59   28   58 1   
    60   28   59 1   
    61   29   42 1   
    62   29   60 1   
    63   29   61 1   
    64   29   62 1   
    65   30   32 1   
    66   30   63 1   
    67   30   64 1   
    68   31   33 1   
    69   31   65 1   
    70   31   66 1   
    71   32   67 1   
    72   32   68 1   
    73   33   69 1   
    74   33   72 1   
    75   39   70 1   
    76   40   71 1   
@<TRIPOS>SUBSTRUCTURE
     1 21L         1 TEMP              0 ****  ****    0 ROOT
