@<TRIPOS>MOLECULE
21L
   71    63     1     0     0
SMALL
bcc


@<TRIPOS>ATOM
      1 C1         -5.7690   -2.0420   -2.3880 c1        1 21L     -0.124500
      2 C2         -4.4570   -2.2440   -2.8230 c1        1 21L     -0.124500
      3 C3         -6.0280   -1.7690   -1.0120 c1        1 21L     -0.124500
      4 C4         -3.4030   -2.1790   -1.9140 c1        1 21L     -0.124500
      5 C5         -5.2110   -1.4730    1.2830 c1        1 21L     -0.108000
      6 C6         -2.8480   -1.6510    1.7640 c1        1 21L     -0.102000
      7 C7          2.7720    2.3120    1.0870 c1        1 21L     -0.322000
      8 C8         -4.9610   -1.7040   -0.0960 c1        1 21L     -0.041000
      9 C9         -3.6590   -1.9060   -0.5370 c1        1 21L     -0.023000
     10 C10         1.9570    0.2250    0.1290 c1        1 21L     -0.184000
     11 C11         3.8490    1.4110   -0.9060 c1        1 21L     -0.201000
     12 C12        -4.1320   -1.4500    2.2040 c1        1 21L     -0.078000
     13 C13        -2.5950   -1.8830    0.3780 c1        1 21L     -0.099000
     14 C14         2.9500    0.3160   -0.8870 c1        1 21L      0.157000
     15 C15         1.8680    1.2070    1.1020 c1        1 21L      0.172000
     16 C16         3.7600    2.4050    0.0780 c1        1 21L      0.200000
     17 C17         4.4700    0.0050   -4.3310 c1        1 21L     -0.246000
     18 C18         5.1870    2.5400   -4.2780 c1        1 21L     -0.317000
     19 C19         4.7790    1.3160   -5.0640 c1        1 21L      0.180000
     20 C20         4.4040   -0.0180   -2.7860 c1        1 21L      0.087000
     21 C21         5.1490    2.5150   -2.7700 c1        1 21L      0.312000
     22 C22         1.0910   -1.0880    0.2620 c2        1 21L      0.363000
     23 C23         5.7080    3.7830   -5.0090 c2        1 21L      0.305000
     24 C24        -5.6990   -1.6200    5.7070 c1        1 21L      0.299000
     25 C25         4.8890    1.1460   -2.0110 c2        1 21L     -0.022000
     26 C26         5.8160    3.7860   -6.5390 c3        1 21L     -0.263000
     27 C27         6.1760    0.7400   -1.3450 c3        1 21L     -0.198000
     28 C28         1.4780    1.1580    3.4670 c3        1 21L     -0.077000
     29 C29        -7.3060   -1.5830    7.4530 c3        1 21L     -0.064000
     30 C30        -4.4480   -1.0110    3.5970 c3        1 21L     -0.122000
     31 C31        -1.1220   -2.2620    0.1850 c3        1 21L     -0.005000
     32 C32        -5.1530   -2.1500    4.3510 c2        1 21L     -0.154000
     33 N33        -0.3190   -1.0370    0.0640 n         1 21L     -0.344000
     34 O34         5.4490    3.5080   -2.1430 o         1 21L     -0.253000
     35 O35         1.6170   -2.1230    0.5120 o         1 21L     -0.351000
     36 O36         6.0770    4.7830   -4.3550 o         1 21L     -0.281000
     37 O37        -5.0310   -0.8220    6.3760 o         1 21L     -0.354000
     38 O38         3.2300   -0.5510   -2.1130 os        1 21L     -0.100000
     39 O39         4.5220    3.5200   -0.0430 oh        1 21L     -0.216000
     40 O40         4.5660    1.4110   -6.4550 oh        1 21L     -0.241000
     41 O41         0.9060    1.0770    2.1690 os        1 21L     -0.211000
     42 O42        -6.9780   -2.0540    6.1770 os        1 21L     -0.279000
     43 H1         -6.5000   -2.0880   -3.0190 ha        1 21L      0.134250
     44 H2         -4.2690   -2.4400   -3.8120 ha        1 21L      0.134250
     45 H3         -6.9070   -1.6340   -0.7180 ha        1 21L      0.134250
     46 H4         -2.4700   -2.3210   -2.2260 ha        1 21L      0.134250
     47 H5         -6.1670   -1.3220    1.6120 ha        1 21L      0.137000
     48 H6         -2.0930   -1.6330    2.4100 ha        1 21L      0.146000
     49 H7          2.7050    3.0260    1.7960 ha        1 21L      0.149000
     50 H17         4.2090   -0.7860   -4.8410 ha        1 21L      0.167000
     51 H26         6.2580    2.9870   -6.8310 hc        1 21L      0.107000
     52 H26A        4.9130    3.8230   -6.9310 hc        1 21L      0.107000
     53 H26B        6.3310    4.5700   -6.8290 hc        1 21L      0.107000
     54 H27         6.0430   -0.1030   -0.8630 hc        1 21L      0.101000
     55 H27A        6.4530    1.4360   -0.7140 hc        1 21L      0.101000
     56 H27B        6.8660    0.6210   -2.0210 hc        1 21L      0.101000
     57 H28         1.9990    1.9340    3.5300 h1        1 21L      0.093333
     58 H28A        2.0610    0.3460    3.6300 h1        1 21L      0.093333
     59 H28B        0.7420    1.1890    4.1610 h1        1 21L      0.093333
     60 H29        -6.5440   -1.6680    8.0320 h1        1 21L      0.090333
     61 H29A       -7.5620   -0.6600    7.3960 h1        1 21L      0.090333
     62 H29B       -8.0310   -2.0920    7.8040 h1        1 21L      0.090333
     63 H30        -3.6390   -0.7830    4.0500 hc        1 21L      0.106500
     64 H30A       -5.0280   -0.2370    3.5640 hc        1 21L      0.106500
     65 H31        -1.0280   -2.7840   -0.6100 h1        1 21L      0.112000
     66 H31A       -0.8040   -2.8010    0.9810 h1        1 21L      0.112000
     67 H32        -4.5220   -2.8700    4.5150 ha        1 21L      0.123000
     68 H32A       -5.8880   -2.4820    3.8190 ha        1 21L      0.123000
     69 HN33       -0.7050   -0.2710   -0.2640 hn        1 21L      0.225000
     70 HO39        4.9400    3.6700    0.7090 ho        1 21L      0.227000
     71 HO40        5.0820    0.8340   -6.8700 ho        1 21L      0.233000
@<TRIPOS>BOND
     1    1    3 1   
     2    1   43 1   
     3    2    4 1   
     4    2   44 1   
     5    3   45 1   
     6    4   46 1   
     7    5    8 1   
     8    5   47 1   
     9    6   12 1   
    10    6   48 1   
    11    7   16 1   
    12    7   49 1   
    13    8    9 1   
    14    9   13 1   
    15   10   15 1   
    16   10   22 1   
    17   11   14 1   
    18   11   25 1   
    19   12   30 1   
    20   13   31 1   
    21   14   38 1   
    22   15   41 1   
    23   16   39 1   
    24   17   20 1   
    25   17   50 1   
    26   18   19 1   
    27   18   23 1   
    28   19   40 1   
    29   20   38 1   
    30   21   25 1   
    31   21   34 1   
    32   22   33 1   
    33   22   35 1   
    34   23   26 1   
    35   23   36 1   
    36   24   37 1   
    37   24   42 1   
    38   25   27 1   
    39   26   51 1   
    40   26   52 1   
    41   26   53 1   
    42   27   54 1   
    43   27   55 1   
    44   27   56 1   
    45   28   41 1   
    46   28   57 1   
    47   28   58 1   
    48   28   59 1   
    49   29   42 1   
    50   29   60 1   
    51   29   61 1   
    52   29   62 1   
    53   30   32 1   
    54   30   63 1   
    55   30   64 1   
    56   31   33 1   
    57   31   65 1   
    58   31   66 1   
    59   32   67 1   
    60   32   68 1   
    61   33   69 1   
    62   39   70 1   
    63   40   71 1   
@<TRIPOS>SUBSTRUCTURE
     1 21L         1 TEMP              0 ****  ****    0 ROOT
