@<TRIPOS>MOLECULE
21L
   71    75     1     0     0
SMALL
bcc


@<TRIPOS>ATOM
      1 C1          2.1060    4.3330    1.0740 ca        1 21L     -0.126000
      2 C2          1.3620    3.3960    1.8270 ca        1 21L     -0.128000
      3 C3          3.1650    3.9140    0.3070 ca        1 21L     -0.123000
      4 C4          1.6890    2.0620    1.8040 ca        1 21L     -0.117000
      5 C5          4.6220    2.1030   -0.5300 ca        1 21L     -0.105000
      6 C6          4.2370   -0.1680    0.1960 ca        1 21L     -0.120000
      7 C7         -2.3090   -3.5750   -0.1560 ca        1 21L     -0.273000
      8 C8          3.5270    2.5390    0.2640 ca        1 21L     -0.039000
      9 C9          2.7860    1.5970    1.0250 ca        1 21L     -0.020000
     10 C10        -1.1510   -1.7430    1.0190 ca        1 21L     -0.204600
     11 C11        -3.4810   -1.4840    0.1940 ca        1 21L     -0.273300
     12 C12         4.9750    0.7730   -0.5680 ca        1 21L     -0.088300
     13 C13         3.1740    0.2240    0.9780 ca        1 21L     -0.091300
     14 C14        -2.3090   -1.0020    0.8410 ca        1 21L      0.204100
     15 C15        -1.1840   -3.0640    0.4880 ca        1 21L      0.212100
     16 C16        -3.4730   -2.7820   -0.3040 ca        1 21L      0.259100
     17 C17        -4.0270    2.0530    0.6350 ce        1 21L     -0.256000
     18 C18        -5.8110    1.3750   -0.9390 cf        1 21L     -0.373400
     19 C19        -5.2180    2.3300   -0.1540 ce        1 21L      0.256100
     20 C20        -3.6870    0.7590    0.7770 c2        1 21L      0.142900
     21 C21        -5.3270   -0.0100   -0.9340 c         1 21L      0.629300
     22 C22         0.0070   -1.1760    1.7630 c         1 21L      0.702700
     23 C23        -6.9660    1.7040   -1.8110 c         1 21L      0.609300
     24 C24         8.3670   -0.7320   -1.3630 c         1 21L      0.627100
     25 C25        -4.5340   -0.4130    0.3000 c3        1 21L     -0.074500
     26 C26        -6.7330    1.5500   -3.2790 c3        1 21L     -0.197100
     27 C27        -5.5530   -0.8020    1.3760 c3        1 21L     -0.083100
     28 C28        -0.0630   -5.1590    0.2580 c3        1 21L      0.111700
     29 C29        10.7070   -0.9820   -1.7340 c3        1 21L      0.125700
     30 C30         6.1090    0.2960   -1.4060 c3        1 21L     -0.034100
     31 C31         2.4520   -0.8140    1.7970 c3        1 21L      0.135300
     32 C32         7.3200   -0.0340   -0.5530 c3        1 21L     -0.125400
     33 N33         1.2500   -1.3040    1.1820 n         1 21L     -0.555900
     34 O34        -5.6140   -0.8410   -1.8060 o         1 21L     -0.554100
     35 O35        -0.1460   -0.5920    2.8560 o         1 21L     -0.609100
     36 O36        -8.0440    2.0790   -1.3430 o         1 21L     -0.520100
     37 O37         8.2300   -1.5860   -2.2410 o         1 21L     -0.543000
     38 O38        -2.4490    0.3330    1.2640 os        1 21L     -0.187200
     39 O39        -4.5230   -3.3890   -0.9250 oh        1 21L     -0.488100
     40 O40        -5.7000    3.6070   -0.2020 oh        1 21L     -0.464100
     41 O41        -0.0240   -3.7880    0.6500 os        1 21L     -0.327900
     42 O42         9.6380   -0.3460   -1.0320 os        1 21L     -0.440900
     43 H1          1.8260    5.3960    1.1110 ha        1 21L      0.131000
     44 H2          0.5150    3.7490    2.4350 ha        1 21L      0.133000
     45 H3          3.7510    4.6310   -0.2870 ha        1 21L      0.132000
     46 H4          1.0930    1.3370    2.3860 ha        1 21L      0.163000
     47 H5          5.1790    2.8500   -1.1150 ha        1 21L      0.134000
     48 H6          4.5370   -1.2270    0.1520 ha        1 21L      0.132000
     49 H7         -2.3310   -4.5950   -0.5640 ha        1 21L      0.167000
     50 H17        -3.4180    2.8810    1.0190 ha        1 21L      0.170000
     51 H26        -6.4950    0.4810   -3.5070 hc        1 21L      0.070700
     52 H26A       -7.6400    1.8570   -3.8530 hc        1 21L      0.070700
     53 H26B       -5.8690    2.1840   -3.5920 hc        1 21L      0.070700
     54 H27        -5.0270   -1.0180    2.3370 hc        1 21L      0.061700
     55 H27A       -6.2840    0.0270    1.5350 hc        1 21L      0.061700
     56 H27B       -6.1000   -1.7180    1.0470 hc        1 21L      0.061700
     57 H28        -0.2090   -5.2440   -0.8460 h1        1 21L      0.054367
     58 H28A        0.9490   -5.5360    0.5560 h1        1 21L      0.054367
     59 H28B       -0.8670   -5.7040    0.8090 h1        1 21L      0.054367
     60 H29        11.6240   -0.5130   -1.2990 h1        1 21L      0.051033
     61 H29A       10.6820   -2.0830   -1.5490 h1        1 21L      0.051033
     62 H29B       10.6200   -0.7750   -2.8270 h1        1 21L      0.051033
     63 H30         5.7980   -0.6220   -1.9770 hc        1 21L      0.065200
     64 H30A        6.3880    1.0780   -2.1620 hc        1 21L      0.065200
     65 H31         3.1480   -1.6910    1.9580 h1        1 21L      0.066700
     66 H31A        2.2030   -0.3880    2.8130 h1        1 21L      0.066700
     67 H32         7.0280   -0.7220    0.2860 hc        1 21L      0.083200
     68 H32A        7.7490    0.8980   -0.0990 hc        1 21L      0.083200
     69 HN33        1.3360   -1.8030    0.3290 hn        1 21L      0.322500
     70 HO39       -5.2170   -2.7270   -1.0960 ho        1 21L      0.459000
     71 HO40       -5.1970    4.1530    0.4230 ho        1 21L      0.436000
@<TRIPOS>BOND
     1    1    2 ar  
     2    1    3 ar  
     3    1   43 1   
     4    2    4 ar  
     5    2   44 1   
     6    3    8 ar  
     7    3   45 1   
     8    4    9 ar  
     9    4   46 1   
    10    5    8 ar  
    11    5   12 ar  
    12    5   47 1   
    13    6   12 ar  
    14    6   13 ar  
    15    6   48 1   
    16    7   15 ar  
    17    7   16 ar  
    18    7   49 1   
    19    8    9 ar  
    20    9   13 ar  
    21   10   14 ar  
    22   10   15 ar  
    23   10   22 1   
    24   11   14 ar  
    25   11   16 ar  
    26   11   25 1   
    27   12   30 1   
    28   13   31 1   
    29   14   38 1   
    30   15   41 1   
    31   16   39 1   
    32   17   19 1   
    33   17   20 2   
    34   17   50 1   
    35   18   19 2   
    36   18   21 1   
    37   18   23 1   
    38   19   40 1   
    39   20   25 1   
    40   20   38 1   
    41   21   25 1   
    42   21   34 2   
    43   22   33 1   
    44   22   35 2   
    45   23   26 1   
    46   23   36 2   
    47   24   32 1   
    48   24   37 2   
    49   24   42 1   
    50   25   27 1   
    51   26   51 1   
    52   26   52 1   
    53   26   53 1   
    54   27   54 1   
    55   27   55 1   
    56   27   56 1   
    57   28   41 1   
    58   28   57 1   
    59   28   58 1   
    60   28   59 1   
    61   29   42 1   
    62   29   60 1   
    63   29   61 1   
    64   29   62 1   
    65   30   32 1   
    66   30   63 1   
    67   30   64 1   
    68   31   33 1   
    69   31   65 1   
    70   31   66 1   
    71   32   67 1   
    72   32   68 1   
    73   33   69 1   
    74   39   70 1   
    75   40   71 1   
@<TRIPOS>SUBSTRUCTURE
     1 21L         1 TEMP              0 ****  ****    0 ROOT
