@<TRIPOS>MOLECULE
21L
   72    76     1     0     0
SMALL
bcc


@<TRIPOS>ATOM
      1 C1          1.8210   -2.2970   -0.1570 ca        1 21L     -0.122000
      2 C2          3.1380   -2.0720    0.3080 ca        1 21L     -0.082000
      3 C3          0.7480   -1.8810    0.5920 ca        1 21L     -0.094000
      4 C4          3.3560   -1.4250    1.5010 ca        1 21L     -0.173000
      5 C5         -0.1650   -0.7970    2.6160 ca        1 21L     -0.063000
      6 C6          1.3380    0.0980    4.2790 ca        1 21L     -0.065000
      7 C7          7.9490    4.5870    3.9180 ca        1 21L     -0.336000
      8 C8          0.9450   -1.2140    1.8330 ca        1 21L     -0.044000
      9 C9          2.2670   -0.9720    2.2940 ca        1 21L     -0.018000
     10 C10         6.3240    2.7760    3.4780 ca        1 21L     -0.294600
     11 C11         6.4120    4.8030    2.0530 ca        1 21L     -0.200300
     12 C12         0.0200   -0.1570    3.8230 ca        1 21L     -0.090300
     13 C13         2.4340   -0.2920    3.5380 ca        1 21L     -0.177300
     14 C14         5.8740    3.5510    2.4040 ca        1 21L      0.205100
     15 C15         7.3890    3.3510    4.2470 ca        1 21L      0.284100
     16 C16         7.4800    5.3150    2.8050 ca        1 21L      0.304100
     17 C17         3.4560    4.4490    0.0160 ce        1 21L     -0.195000
     18 C18         3.9660    6.8650   -0.1050 cf        1 21L     -0.338400
     19 C19         3.2420    5.7880   -0.5370 ce        1 21L      0.225100
     20 C20         4.5940    4.2700    0.7020 c2        1 21L      0.093900
     21 C21         5.0780    6.6910    0.8470 c         1 21L      0.611300
     22 C22         5.8320    1.4590    3.8330 c         1 21L      0.593700
     23 C23         3.6090    8.2490   -0.5160 c         1 21L      0.601300
     24 C24        -2.0680    0.1340    6.9420 c         1 21L      0.626100
     25 C25         5.7080    5.2990    0.8190 c3        1 21L     -0.059500
     26 C26         4.7420    9.0990   -0.9890 c3        1 21L     -0.198100
     27 C27         6.6520    5.2430   -0.3800 c3        1 21L     -0.083100
     28 C28         8.8630    3.0910    6.1120 c3        1 21L      0.106700
     29 C29        -3.7630   -0.0030    8.6070 c3        1 21L      0.123700
     30 C30        -1.1300    0.2960    4.6520 c3        1 21L     -0.044100
     31 C31         3.7990   -0.0170    4.0700 c3        1 21L      0.176100
     32 C32        -1.3380   -0.6020    5.8590 c3        1 21L     -0.128400
     33 N33         4.4290    1.1360    3.3480 ny        1 21L     -0.674800
     34 O34         5.5130    7.5840    1.5740 o         1 21L     -0.484100
     35 O35         6.3880    0.5780    4.4740 o         1 21L     -0.422100
     36 O36         2.4450    8.6500   -0.4610 o         1 21L     -0.497100
     37 O37        -1.8780    1.2860    7.3380 o         1 21L     -0.543000
     38 O38         4.8330    3.1630    1.5470 os        1 21L     -0.274200
     39 O39         8.0380    6.4830    2.4020 oh        1 21L     -0.437100
     40 O40         2.2670    5.9780   -1.4710 oh        1 21L     -0.445100
     41 O41         7.7820    2.5960    5.3120 os        1 21L     -0.303900
     42 O42        -3.0340   -0.6180    7.5410 os        1 21L     -0.430900
     43 H1          1.6710   -2.8180   -1.1160 ha        1 21L      0.156000
     44 H2          3.9860   -2.4320   -0.2960 ha        1 21L      0.149000
     45 H3         -0.2840   -2.0620    0.2480 ha        1 21L      0.152000
     46 H4          4.3880   -1.2940    1.8600 ha        1 21L      0.116000
     47 H5         -1.1820   -1.0000    2.2390 ha        1 21L      0.156000
     48 H6          1.4640    0.6100    5.2480 ha        1 21L      0.146000
     49 H7          8.7670    5.0060    4.5230 ha        1 21L      0.172000
     50 H17         2.6700    3.6900   -0.0870 ha        1 21L      0.167000
     51 H26         5.3090    8.5720   -1.7930 hc        1 21L      0.073700
     52 H26A        4.3580   10.0700   -1.3880 hc        1 21L      0.073700
     53 H26B        5.4320    9.3060   -0.1320 hc        1 21L      0.073700
     54 H27         6.1170    5.5550   -1.3090 hc        1 21L      0.065700
     55 H27A        7.5090    5.9380   -0.1980 hc        1 21L      0.065700
     56 H27B        7.0450    4.2080   -0.5160 hc        1 21L      0.065700
     57 H28         9.7860    3.1970    5.4940 h1        1 21L      0.069367
     58 H28A        8.9860    2.2840    6.8810 h1        1 21L      0.069367
     59 H28B        8.5790    4.0590    6.5890 h1        1 21L      0.069367
     60 H29        -4.4810   -0.7990    8.9250 h1        1 21L      0.057700
     61 H29A       -4.2940    0.9030    8.2290 h1        1 21L      0.057700
     62 H29B       -3.0650    0.2760    9.4320 h1        1 21L      0.057700
     63 H30        -0.9430    1.3510    5.0000 hc        1 21L      0.075700
     64 H30A       -2.0690    0.3130    4.0350 hc        1 21L      0.075700
     65 H31         3.7680    0.2490    5.1660 hx        1 21L      0.114200
     66 H31A        4.4760   -0.9130    3.9520 hx        1 21L      0.114200
     67 H32        -1.9070   -1.5250    5.5730 hc        1 21L      0.083700
     68 H32A       -0.3500   -0.9250    6.2870 hc        1 21L      0.083700
     69 HN33        4.4700    0.9220    2.3420 hn        1 21L      0.461300
     70 HO39        8.6920    6.7720    3.0630 ho        1 21L      0.451000
     71 HO40        1.7570    5.1580   -1.5700 ho        1 21L      0.436000
     72 H332        3.8420    1.9710    3.4530 hn        1 21L      0.461300
@<TRIPOS>BOND
     1    1    2 ar  
     2    1    3 ar  
     3    1   43 1   
     4    2    4 ar  
     5    2   44 1   
     6    3    8 ar  
     7    3   45 1   
     8    4    9 ar  
     9    4   46 1   
    10    5    8 ar  
    11    5   12 ar  
    12    5   47 1   
    13    6   12 ar  
    14    6   13 ar  
    15    6   48 1   
    16    7   15 ar  
    17    7   16 ar  
    18    7   49 1   
    19    8    9 ar  
    20    9   13 ar  
    21   10   14 ar  
    22   10   15 ar  
    23   10   22 1   
    24   11   14 ar  
    25   11   16 ar  
    26   11   25 1   
    27   12   30 1   
    28   13   31 1   
    29   14   38 1   
    30   15   41 1   
    31   16   39 1   
    32   17   19 1   
    33   17   20 2   
    34   17   50 1   
    35   18   19 2   
    36   18   21 1   
    37   18   23 1   
    38   19   40 1   
    39   20   25 1   
    40   20   38 1   
    41   21   25 1   
    42   21   34 2   
    43   22   33 1   
    44   22   35 2   
    45   23   26 1   
    46   23   36 2   
    47   24   32 1   
    48   24   37 2   
    49   24   42 1   
    50   25   27 1   
    51   26   51 1   
    52   26   52 1   
    53   26   53 1   
    54   27   54 1   
    55   27   55 1   
    56   27   56 1   
    57   28   41 1   
    58   28   57 1   
    59   28   58 1   
    60   28   59 1   
    61   29   42 1   
    62   29   60 1   
    63   29   61 1   
    64   29   62 1   
    65   30   32 1   
    66   30   63 1   
    67   30   64 1   
    68   31   33 1   
    69   31   65 1   
    70   31   66 1   
    71   32   67 1   
    72   32   68 1   
    73   33   69 1   
    74   33   72 1   
    75   39   70 1   
    76   40   71 1   
@<TRIPOS>SUBSTRUCTURE
     1 21L         1 TEMP              0 ****  ****    0 ROOT
