@<TRIPOS>MOLECULE
21M
   45    46     1     0     0
SMALL
bcc


@<TRIPOS>ATOM
      1 Cl1         3.2000    1.5200   -2.7920 cl        1 21M     -0.049400
      2 Cl2         7.5440    1.6530    0.2980 cl        1 21M     -0.114400
      3 C02         3.9510    1.1530   -1.3190 ca        1 21M      0.018400
      4 C03         3.2310    0.4920   -0.3160 ca        1 21M     -0.092000
      5 C04         3.8480    0.1940    0.8940 ca        1 21M     -0.143000
      6 C05         5.1870    0.5530    1.1050 ca        1 21M      0.095100
      7 O06         5.7860    0.3550    2.3420 os        1 21M     -0.346900
      8 C07         5.6960   -0.9850    2.8410 c3        1 21M      0.060400
      9 C08         7.1090   -1.4690    3.1630 c         1 21M      0.641100
     10 N09         7.8420   -0.8530    4.1860 n         1 21M     -0.448800
     11 C10         7.5290    0.4680    4.6710 c3        1 21M      0.085500
     12 C11         8.4080    1.5660    4.0540 c3        1 21M     -0.136400
     13 C12         9.8870    1.2200    4.2500 c3        1 21M      0.127500
     14 N13        10.7770    2.2540    3.6160 ny        1 21M     -0.723900
     15 S14        12.5420    2.2830    4.2570 s6        1 21M      1.383900
     16 C15        13.2920    1.6460    2.9110 c3        1 21M     -0.385600
     17 C16        14.7820    1.5060    3.1720 c3        1 21M     -0.095100
     18 O17        12.7290    3.6420    4.4070 o         1 21M     -0.553300
     19 O18        12.5230    1.4310    5.3410 o         1 21M     -0.553300
     20 C19        10.1950   -0.1830    3.7150 c3        1 21M     -0.136400
     21 C20         9.2360   -1.2030    4.3480 c3        1 21M      0.085500
     22 O21         7.5700   -2.4610    2.5740 o         1 21M     -0.559100
     23 C22         5.9110    1.2070    0.0940 ca        1 21M      0.022400
     24 C24         5.2860    1.5140   -1.1190 ca        1 21M     -0.102000
     25 H031        2.1780    0.2110   -0.4800 ha        1 21M      0.168000
     26 H041        3.2900   -0.3180    1.6930 ha        1 21M      0.156000
     27 H072        5.2470   -1.6890    2.0920 h1        1 21M      0.091200
     28 H071        5.0630   -0.9480    3.7670 h1        1 21M      0.091200
     29 H101        7.6830    0.4660    5.7900 h1        1 21M      0.088700
     30 H102        6.4520    0.7270    4.4680 h1        1 21M      0.088700
     31 H111        8.1620    2.5360    4.5590 hc        1 21M      0.073700
     32 H112        8.1600    1.6630    2.9620 hc        1 21M      0.073700
     33 H121       10.1190    1.2410    5.3620 hx        1 21M      0.118700
     34 H131       10.7440    2.1100    2.6070 hn        1 21M      0.453300
     35 H151       12.9140    0.6250    2.6140 h1        1 21M      0.155200
     36 H152       13.1840    2.2770    1.9820 h1        1 21M      0.155200
     37 H162       15.2470    2.5040    3.3660 hc        1 21M      0.085033
     38 H161       14.9710    0.8250    4.0400 hc        1 21M      0.085033
     39 H1         15.2830    1.0640    2.2740 hc        1 21M      0.085033
     40 H192       10.0880   -0.2160    2.5990 hc        1 21M      0.073700
     41 H191       11.2410   -0.4830    3.9870 hc        1 21M      0.073700
     42 H202        9.4310   -2.2130    3.8850 h1        1 21M      0.088700
     43 H201        9.4510   -1.2700    5.4530 h1        1 21M      0.088700
     44 H241        5.8470    2.0320   -1.9140 ha        1 21M      0.171000
     45 H132       10.3530    3.1710    3.7900 hn        1 21M      0.453300
@<TRIPOS>BOND
     1    1    3 1   
     2    2   23 1   
     3    3    4 ar  
     4    3   24 ar  
     5    4    5 ar  
     6    4   25 1   
     7    5    6 ar  
     8    5   26 1   
     9    6    7 1   
    10    6   23 ar  
    11    7    8 1   
    12    8    9 1   
    13    8   27 1   
    14    8   28 1   
    15    9   10 1   
    16    9   22 2   
    17   10   11 1   
    18   10   21 1   
    19   11   12 1   
    20   11   29 1   
    21   11   30 1   
    22   12   13 1   
    23   12   31 1   
    24   12   32 1   
    25   13   14 1   
    26   13   20 1   
    27   13   33 1   
    28   14   15 1   
    29   14   34 1   
    30   14   45 1   
    31   15   16 1   
    32   15   18 2   
    33   15   19 2   
    34   16   17 1   
    35   16   35 1   
    36   16   36 1   
    37   17   37 1   
    38   17   38 1   
    39   17   39 1   
    40   20   21 1   
    41   20   40 1   
    42   20   41 1   
    43   21   42 1   
    44   21   43 1   
    45   23   24 ar  
    46   24   44 1   
@<TRIPOS>SUBSTRUCTURE
     1 21M         1 TEMP              0 ****  ****    0 ROOT
