@<TRIPOS>MOLECULE
21M
   45    46     1     0     0
SMALL
bcc


@<TRIPOS>ATOM
      1 CL1         3.3380    1.2220   -2.9640 cl        1 21M     -0.049400
      2 CL2         7.6400    1.4420    0.1780 cl        1 21M     -0.114400
      3 C02         4.0450    0.9790   -1.4450 ca        1 21M      0.018400
      4 C03         3.2720    0.4790   -0.3890 ca        1 21M     -0.092000
      5 C04         3.8530    0.2830    0.8590 ca        1 21M     -0.143000
      6 C05         5.2090    0.5820    1.0550 ca        1 21M      0.095100
      7 O06         5.7790    0.4890    2.3190 os        1 21M     -0.346900
      8 C07         5.5960   -0.7760    2.9630 c3        1 21M      0.060400
      9 C08         6.9700   -1.3050    3.3720 c         1 21M      0.641100
     10 N09         7.7230   -0.6210    4.3350 n         1 21M     -0.448800
     11 C10         7.4870    0.7640    4.6580 c3        1 21M      0.085500
     12 C11         8.4430    1.7270    3.9390 c3        1 21M     -0.136400
     13 C12         9.8940    1.3170    4.2080 c3        1 21M      0.127500
     14 N13        10.8570    2.2140    3.4790 n4        1 21M     -0.723900
     15 S14        12.6100    2.2110    4.1540 s6        1 21M      1.383900
     16 C15        13.3390    1.3770    2.9080 c3        1 21M     -0.385600
     17 C16        14.8130    1.1780    3.2180 c3        1 21M     -0.095100
     18 O17        12.8800    3.5640    4.1510 o         1 21M     -0.553300
     19 O18        12.5200    1.4940    5.3280 o         1 21M     -0.553300
     20 C19        10.1210   -0.1550    3.8450 c3        1 21M     -0.136400
     21 C20         9.0890   -1.0340    4.5690 c3        1 21M      0.085500
     22 O21         7.3770   -2.3850    2.9120 o         1 21M     -0.559100
     23 C22         5.9860    1.0740   -0.0070 ca        1 21M      0.022400
     24 C24         5.3970    1.2790   -1.2590 ca        1 21M     -0.102000
     25 H031        2.2050    0.2450   -0.5420 ha        1 21M      0.168000
     26 H041        3.2540   -0.1010    1.6980 ha        1 21M      0.156000
     27 H072        4.9510   -0.5960    3.8640 h1        1 21M      0.091200
     28 H071        5.1160   -1.5340    2.2890 h1        1 21M      0.091200
     29 H101        6.4310    1.0620    4.4020 h1        1 21M      0.088700
     30 H102        7.6220    0.8820    5.7730 h1        1 21M      0.088700
     31 H111        8.2500    2.7630    4.3240 hc        1 21M      0.073700
     32 H112        8.2190    1.7110    2.8380 hc        1 21M      0.073700
     33 H121       10.1090    1.4530    5.3140 hx        1 21M      0.118700
     34 H131       10.8310    1.9560    2.4940 hn        1 21M      0.453300
     35 H151       12.9030    0.3530    2.7220 h1        1 21M      0.155200
     36 H152       13.2860    1.9010    1.9100 h1        1 21M      0.155200
     37 H162       15.3380    2.1620    3.3060 hc        1 21M      0.085033
     38 H161       14.9450    0.5930    4.1620 hc        1 21M      0.085033
     39 H1         15.3000    0.6050    2.3890 hc        1 21M      0.085033
     40 H192       11.1420   -0.4840    4.1740 hc        1 21M      0.073700
     41 H191       10.0300   -0.3100    2.7380 hc        1 21M      0.073700
     42 H202        9.2830   -0.9850    5.6790 h1        1 21M      0.088700
     43 H201        9.2280   -2.1010    4.2290 h1        1 21M      0.088700
     44 H241        6.0000    1.6700   -2.0960 ha        1 21M      0.171000
     45 H132       10.4890    3.1690    3.5370 hn        1 21M      0.453300
@<TRIPOS>BOND
     1    1    3 1   
     2    2   23 1   
     3    3    4 ar  
     4    3   24 ar  
     5    4    5 ar  
     6    4   25 1   
     7    5    6 ar  
     8    5   26 1   
     9    6    7 1   
    10    6   23 ar  
    11    7    8 1   
    12    8    9 1   
    13    8   27 1   
    14    8   28 1   
    15    9   10 1   
    16    9   22 2   
    17   10   11 1   
    18   10   21 1   
    19   11   12 1   
    20   11   29 1   
    21   11   30 1   
    22   12   13 1   
    23   12   31 1   
    24   12   32 1   
    25   13   14 1   
    26   13   20 1   
    27   13   33 1   
    28   14   15 1   
    29   14   34 1   
    30   14   45 1   
    31   15   16 1   
    32   15   18 2   
    33   15   19 2   
    34   16   17 1   
    35   16   35 1   
    36   16   36 1   
    37   17   37 1   
    38   17   38 1   
    39   17   39 1   
    40   20   21 1   
    41   20   40 1   
    42   20   41 1   
    43   21   42 1   
    44   21   43 1   
    45   23   24 ar  
    46   24   44 1   
@<TRIPOS>SUBSTRUCTURE
     1 21M         1 TEMP              0 ****  ****    0 ROOT
