@<TRIPOS>MOLECULE
21M
   44    42     1     0     0
SMALL
bcc


@<TRIPOS>ATOM
      1 CL1        -6.3360   -2.5350   -6.2660 cl        1 21M     -0.005000
      2 CL2        -1.5580   -2.3550   -3.7150 cl        1 21M     -0.001000
      3 C02        -5.2000   -1.6910   -5.2480 c2        1 21M     -0.057000
      4 C03        -5.4690   -0.3960   -4.8350 c2        1 21M     -0.120000
      5 C04        -4.5410    0.2960   -4.0730 c1        1 21M     -0.099000
      6 C05        -3.3430   -0.3080   -3.7240 c1        1 21M      0.038000
      7 O06        -2.3690    0.4210   -3.0200 o         1 21M     -0.190000
      8 C07        -2.2380    0.0440   -1.6700 c3        1 21M     -0.036000
      9 C08        -1.6130    1.1780   -0.8870 c2        1 21M      0.270000
     10 N09        -0.8770    0.9030    0.2970 n         1 21M     -0.318000
     11 C10        -0.3660    1.8880    1.0670 c3        1 21M     -0.035000
     12 C11         1.1060    1.7220    1.3690 c3        1 21M     -0.198000
     13 C12         1.4730    0.3560    1.9960 c3        1 21M      0.040000
     14 N13         2.7940    0.1850    2.0310 n3        1 21M     -0.896000
     15 S14         3.5640    0.0180    3.4750 s4        1 21M      2.026800
     16 C15         5.3210   -0.0210    3.2340 c2        1 21M     -0.854000
     17 C16         6.0160    0.0420    4.5790 c3        1 21M     -0.194000
     18 O17         3.1860    1.0590    4.3910 o         1 21M     -0.537900
     19 O18         3.1080   -1.1490    4.1770 o         1 21M     -0.537900
     20 C19         0.8060   -0.6410    0.9960 c3        1 21M     -0.198000
     21 C20        -0.6470   -0.3520    0.7160 c3        1 21M     -0.035000
     22 O21        -1.7990    2.3280   -1.2320 o         1 21M     -0.353000
     23 C22        -3.0730   -1.6030   -4.1370 c2        1 21M     -0.072000
     24 C24        -4.0010   -2.2940   -4.9000 c2        1 21M     -0.120000
     25 H031       -6.3130    0.0290   -5.0800 ha        1 21M      0.156000
     26 H041       -4.7310    1.2080   -3.7810 ha        1 21M      0.183000
     27 H072       -1.6680   -0.7490   -1.6060 h1        1 21M      0.122000
     28 H071       -3.1230   -0.1590   -1.3000 h1        1 21M      0.122000
     29 H101       -0.8580    1.9090    1.9140 h1        1 21M      0.103750
     30 H102       -0.4960    2.7430    0.6080 h1        1 21M      0.103750
     31 H111        1.6080    1.8250    0.5360 hc        1 21M      0.097000
     32 H112        1.3780    2.4300    1.9870 hc        1 21M      0.097000
     33 H121        1.0830    0.2670    2.8880 h1        1 21M      0.116000
     34 H131        3.2750    0.1780    1.2530 hn        1 21M      0.245000
     35 H151        5.5690   -0.8490    2.7770 ha        1 21M      0.144500
     36 H152        5.5920    0.7460    2.6900 ha        1 21M      0.144500
     37 H162        6.9870    0.0010    4.4460 hc        1 21M      0.093667
     38 H161        5.7290   -0.7150    5.1310 hc        1 21M      0.093667
     39 H1          5.7830    0.8820    5.0280 hc        1 21M      0.093667
     40 H192        1.2980   -0.6100    0.1510 hc        1 21M      0.097000
     41 H191        0.8770   -1.5450    1.3650 hc        1 21M      0.097000
     42 H202       -0.9620   -0.9730    0.0270 h1        1 21M      0.103750
     43 H201       -1.1610   -0.5060    1.5350 h1        1 21M      0.103750
     44 H241       -3.8110   -3.2070   -5.1910 ha        1 21M      0.163000
@<TRIPOS>BOND
     1    1    3 1   
     2    2   23 1   
     3    3    4 1   
     4    3   24 1   
     5    4    5 1   
     6    4   25 1   
     7    5   26 1   
     8    6   23 1   
     9    7    8 1   
    10    8    9 1   
    11    8   27 1   
    12    8   28 1   
    13    9   10 1   
    14    9   22 1   
    15   10   11 1   
    16   10   21 1   
    17   11   12 1   
    18   11   29 1   
    19   11   30 1   
    20   12   13 1   
    21   12   31 1   
    22   12   32 1   
    23   13   14 1   
    24   13   20 1   
    25   13   33 1   
    26   14   15 1   
    27   14   34 1   
    28   15   18 1   
    29   15   19 1   
    30   16   17 1   
    31   16   35 1   
    32   16   36 1   
    33   17   37 1   
    34   17   38 1   
    35   17   39 1   
    36   20   21 1   
    37   20   40 1   
    38   20   41 1   
    39   21   42 1   
    40   21   43 1   
    41   23   24 1   
    42   24   44 1   
@<TRIPOS>SUBSTRUCTURE
     1 21M         1 TEMP              0 ****  ****    0 ROOT
