@<TRIPOS>MOLECULE
21M
   45    46     1     0     0
SMALL
bcc


@<TRIPOS>ATOM
      1 CL1         3.2000    1.4410   -2.8020 cl        1 21M     -0.049400
      2 CL2         7.5460    1.6130    0.2820 cl        1 21M     -0.114400
      3 C02         3.9500    1.0990   -1.3230 ca        1 21M      0.018400
      4 C03         3.2270    0.4600   -0.3070 ca        1 21M     -0.092000
      5 C04         3.8440    0.1830    0.9080 ca        1 21M     -0.143000
      6 C05         5.1850    0.5390    1.1100 ca        1 21M      0.095100
      7 O06         5.7840    0.3610    2.3510 os        1 21M     -0.346900
      8 C07         5.6890   -0.9680    2.8750 c3        1 21M      0.060400
      9 C08         7.0990   -1.4530    3.2040 c         1 21M      0.641100
     10 N09         7.8360   -0.8210    4.2160 n         1 21M     -0.448800
     11 C10         7.5300    0.5110    4.6760 c3        1 21M      0.085500
     12 C11         8.4130    1.5930    4.0370 c3        1 21M     -0.136400
     13 C12         9.8910    1.2430    4.2390 c3        1 21M      0.127500
     14 N13        10.7850    2.2610    3.5840 n4        1 21M     -0.723900
     15 S14        12.5500    2.2940    4.2240 s6        1 21M      1.383900
     16 C15        13.2960    1.6280    2.8900 c3        1 21M     -0.385600
     17 C16        14.7860    1.4860    3.1530 c3        1 21M     -0.095100
     18 O17        12.7440    3.6550    4.3480 o         1 21M     -0.553300
     19 O18        12.5280    1.4640    5.3240 o         1 21M     -0.553300
     20 C19        10.1920   -0.1710    3.7310 c3        1 21M     -0.136400
     21 C20         9.2280   -1.1740    4.3840 c3        1 21M      0.085500
     22 O21         7.5550   -2.4580    2.6350 o         1 21M     -0.559100
     23 C22         5.9110    1.1700    0.0870 ca        1 21M      0.022400
     24 C24         5.2870    1.4570   -1.1310 ca        1 21M     -0.102000
     25 H031        2.1720    0.1810   -0.4660 ha        1 21M      0.168000
     26 H041        3.2840   -0.3120    1.7160 ha        1 21M      0.156000
     27 H072        5.0560   -0.9110    3.8010 h1        1 21M      0.091200
     28 H071        5.2350   -1.6850    2.1400 h1        1 21M      0.091200
     29 H101        7.6840    0.5290    5.7940 h1        1 21M      0.088700
     30 H102        6.4530    0.7700    4.4680 h1        1 21M      0.088700
     31 H111        8.1720    2.5730    4.5240 hc        1 21M      0.073700
     32 H112        8.1650    1.6700    2.9440 hc        1 21M      0.073700
     33 H121       10.1230    1.2840    5.3500 hx        1 21M      0.118700
     34 H131       10.3660    3.1830    3.7410 hn        1 21M      0.453300
     35 H151       13.1910    2.2410    1.9490 h1        1 21M      0.155200
     36 H152       12.9140    0.6030    2.6130 h1        1 21M      0.155200
     37 H162       14.9730    0.8220    4.0340 hc        1 21M      0.085033
     38 H161       15.2560    2.4860    3.3280 hc        1 21M      0.085033
     39 H1         15.2850    1.0250    2.2640 hc        1 21M      0.085033
     40 H192       11.2370   -0.4710    4.0070 hc        1 21M      0.073700
     41 H191       10.0830   -0.2250    2.6160 hc        1 21M      0.073700
     42 H202        9.4180   -2.1940    3.9390 h1        1 21M      0.088700
     43 H201        9.4440   -1.2210    5.4900 h1        1 21M      0.088700
     44 H241        5.8500    1.9570   -1.9360 ha        1 21M      0.171000
     45 H132       10.7510    2.0980    2.5790 hn        1 21M      0.453300
@<TRIPOS>BOND
     1    1    3 1   
     2    2   23 1   
     3    3    4 ar  
     4    3   24 ar  
     5    4    5 ar  
     6    4   25 1   
     7    5    6 ar  
     8    5   26 1   
     9    6    7 1   
    10    6   23 ar  
    11    7    8 1   
    12    8    9 1   
    13    8   27 1   
    14    8   28 1   
    15    9   10 1   
    16    9   22 2   
    17   10   11 1   
    18   10   21 1   
    19   11   12 1   
    20   11   29 1   
    21   11   30 1   
    22   12   13 1   
    23   12   31 1   
    24   12   32 1   
    25   13   14 1   
    26   13   20 1   
    27   13   33 1   
    28   14   15 1   
    29   14   34 1   
    30   14   45 1   
    31   15   16 1   
    32   15   18 2   
    33   15   19 2   
    34   16   17 1   
    35   16   35 1   
    36   16   36 1   
    37   17   37 1   
    38   17   38 1   
    39   17   39 1   
    40   20   21 1   
    41   20   40 1   
    42   20   41 1   
    43   21   42 1   
    44   21   43 1   
    45   23   24 ar  
    46   24   44 1   
@<TRIPOS>SUBSTRUCTURE
     1 21M         1 TEMP              0 ****  ****    0 ROOT
