@<TRIPOS>MOLECULE
21M
   44    45     1     0     0
SMALL
bcc


@<TRIPOS>ATOM
      1 CL1        -7.7480    2.0340    0.1920 cl        1 21M     -0.083400
      2 CL2        -4.9130   -2.4200   -0.5470 cl        1 21M     -0.048400
      3 C02        -6.2360    1.2690    0.0600 ca        1 21M     -0.004600
      4 C03        -5.0650    2.0200    0.1820 ca        1 21M     -0.093000
      5 C04        -3.8280    1.3920    0.0740 ca        1 21M     -0.187000
      6 C05        -3.7560    0.0110   -0.1520 ca        1 21M      0.124100
      7 O06        -2.5650   -0.6700   -0.3200 os        1 21M     -0.283900
      8 C07        -1.4140   -0.0190    0.2260 c3        1 21M      0.056400
      9 C08        -0.3310   -1.0930    0.3050 c         1 21M      0.646100
     10 N09         0.8720   -0.7570    0.9360 n         1 21M     -0.458800
     11 C10         1.3100    0.6120    1.0820 c3        1 21M      0.078500
     12 C11         2.3890    1.0340    0.0820 c3        1 21M     -0.120900
     13 C12         3.5820    0.0640    0.1580 c3        1 21M      0.237500
     14 N13         4.6550    0.4350   -0.7300 n3        1 21M     -0.923100
     15 S14         6.1650    0.7650   -0.2600 s6        1 21M      1.454900
     16 C15         6.9370   -0.7710   -0.3600 c3        1 21M     -0.314600
     17 C16         8.3680   -0.6790    0.1020 c3        1 21M     -0.076100
     18 O17         6.7600    1.6190   -1.2120 o         1 21M     -0.650300
     19 O18         6.1830    1.1820    1.0870 o         1 21M     -0.650300
     20 C19         3.0720   -1.3670   -0.0850 c3        1 21M     -0.120900
     21 C20         1.9630   -1.7130    0.9090 c3        1 21M      0.078500
     22 O21        -0.5370   -2.2470   -0.1040 o         1 21M     -0.551100
     23 C22        -4.9410   -0.7480   -0.2730 ca        1 21M      0.005400
     24 C24        -6.1790   -0.1080   -0.1700 ca        1 21M     -0.097000
     25 H031       -5.1140    3.1060    0.3600 ha        1 21M      0.152000
     26 H041       -2.9110    1.9930    0.1590 ha        1 21M      0.141000
     27 H072       -1.0970    0.7990   -0.4740 h1        1 21M      0.065200
     28 H071       -1.6390    0.3910    1.2450 h1        1 21M      0.065200
     29 H101        0.4430    1.3220    1.0000 h1        1 21M      0.064950
     30 H102        1.7320    0.7130    2.1260 h1        1 21M      0.064950
     31 H111        1.9710    1.0480   -0.9580 hc        1 21M      0.057950
     32 H112        2.7200    2.0730    0.3360 hc        1 21M      0.057950
     33 H121        3.9900    0.1130    1.2170 h1        1 21M      0.075700
     34 H131        4.3770    0.5080   -1.6800 hn        1 21M      0.449800
     35 H151        6.4120   -1.5430    0.2610 h1        1 21M      0.105700
     36 H152        6.9280   -1.1690   -1.4080 h1        1 21M      0.105700
     37 H162        8.9410    0.0330   -0.5430 hc        1 21M      0.054367
     38 H161        8.4150   -0.3240    1.1620 hc        1 21M      0.054367
     39 H1          8.8630   -1.6780    0.0440 hc        1 21M      0.054367
     40 H192        2.6930   -1.4680   -1.1340 hc        1 21M      0.057950
     41 H191        3.9060   -2.1030    0.0500 hc        1 21M      0.057950
     42 H202        2.3990   -1.7440    1.9490 h1        1 21M      0.064950
     43 H201        1.5580   -2.7360    0.6640 h1        1 21M      0.064950
     44 H241       -7.1080   -0.6940   -0.2660 ha        1 21M      0.165000
@<TRIPOS>BOND
     1    1    3 1   
     2    2   23 1   
     3    3    4 ar  
     4    3   24 ar  
     5    4    5 ar  
     6    4   25 1   
     7    5    6 ar  
     8    5   26 1   
     9    6    7 1   
    10    6   23 ar  
    11    7    8 1   
    12    8    9 1   
    13    8   27 1   
    14    8   28 1   
    15    9   10 1   
    16    9   22 2   
    17   10   11 1   
    18   10   21 1   
    19   11   12 1   
    20   11   29 1   
    21   11   30 1   
    22   12   13 1   
    23   12   31 1   
    24   12   32 1   
    25   13   14 1   
    26   13   20 1   
    27   13   33 1   
    28   14   15 1   
    29   14   34 1   
    30   15   16 1   
    31   15   18 2   
    32   15   19 2   
    33   16   17 1   
    34   16   35 1   
    35   16   36 1   
    36   17   37 1   
    37   17   38 1   
    38   17   39 1   
    39   20   21 1   
    40   20   40 1   
    41   20   41 1   
    42   21   42 1   
    43   21   43 1   
    44   23   24 ar  
    45   24   44 1   
@<TRIPOS>SUBSTRUCTURE
     1 21M         1 TEMP              0 ****  ****    0 ROOT
