@<TRIPOS>MOLECULE
21N
   45    43     1     0     0
SMALL
bcc


@<TRIPOS>ATOM
      1 C1          1.8230   -2.2420   -0.0600 c3        1 21N      0.100000
      2 F1         -4.2420    6.6410   -2.5640 f         1 21N     -0.162667
      3 N1          1.0810   -1.0240    0.3230 n         1 21N     -0.331000
      4 S1          2.7200    0.9280   -0.5650 s         1 21N     -0.286000
      5 C2          3.0090   -2.3130    0.7260 c3        1 21N     -0.029000
      6 F2         -3.1580    6.8480   -0.6980 f         1 21N     -0.162667
      7 N2          0.0790    0.8210   -0.9770 n         1 21N     -0.284000
      8 O2          3.9070   -3.4380    0.1520 oh        1 21N     -0.320000
      9 C3          2.7870   -2.5740    2.0910 c3        1 21N     -0.007000
     10 F3         -2.1250    7.1360   -2.5860 f         1 21N     -0.162667
     11 N3         -0.8670    0.0830   -1.6970 n2        1 21N     -0.040000
     12 O3          2.1280   -1.3610    2.7110 oh        1 21N     -0.329000
     13 C4          1.9210   -3.7650    2.3370 c3        1 21N      0.017000
     14 O4          2.6140   -4.9190    1.9080 oh        1 21N     -0.315000
     15 C5          0.5170   -3.7140    1.5910 c3        1 21N     -0.051000
     16 O5          0.9330   -3.4000    0.1020 os        1 21N     -0.253000
     17 C6         -0.2490   -2.7470    2.0820 c3        1 21N     -0.053000
     18 O6         -1.0830   -3.2800    3.1340 oh        1 21N     -0.314000
     19 C7          1.2250    0.1810   -0.4530 c2        1 21N      0.190000
     20 C8         -1.9290    0.6990   -2.2380 c1        1 21N     -0.121000
     21 C9         -2.1120    2.2490   -2.0640 c1        1 21N     -0.059000
     22 C10        -1.5300    3.1240   -2.9820 c2        1 21N     -0.127000
     23 C11        -1.8400    4.4750   -2.9450 c1        1 21N     -0.076000
     24 C12        -2.7300    4.9580   -1.9940 c1        1 21N     -0.151000
     25 C13        -3.3100    4.0870   -1.0790 c1        1 21N     -0.080000
     26 C14        -3.0010    2.7340   -1.1140 c1        1 21N     -0.113000
     27 C15        -3.0750    6.4430   -1.9580 c3        1 21N      0.466000
     28 H1          2.0800   -2.1720   -1.0140 h2        1 21N      0.182000
     29 HN1         0.5730   -1.0180    1.0890 hn        1 21N      0.258000
     30 H2          3.4860   -1.4620    0.6450 h1        1 21N      0.099000
     31 HN2        -0.0630    1.6800   -0.8100 hn        1 21N      0.260000
     32 HO2         4.5010   -3.0860   -0.4010 ho        1 21N      0.222000
     33 H3          3.6550   -2.7200    2.5290 h1        1 21N      0.118000
     34 HO3         2.6500   -1.0400    3.3670 ho        1 21N      0.214000
     35 H4          1.7590   -3.8370    3.2960 h1        1 21N      0.129000
     36 HO4         2.5130   -5.5660    2.5070 ho        1 21N      0.226000
     37 H5          0.0630   -4.5810    1.6490 h1        1 21N      0.150000
     38 H6         -0.8190   -2.3820    1.3660 h1        1 21N      0.104000
     39 H6A         0.3220   -2.0280    2.4450 h1        1 21N      0.104000
     40 HO6        -1.9300   -3.0090    3.0100 ho        1 21N      0.198000
     41 H8         -2.5960    0.1770   -2.7470 ha        1 21N      0.177000
     42 H10        -0.9030    2.7830   -3.6530 ha        1 21N      0.152000
     43 H11        -1.4250    5.0970   -3.5980 ha        1 21N      0.159000
     44 H13        -3.9390    4.4290   -0.4070 ha        1 21N      0.157000
     45 H14        -3.4200    2.1060   -0.4520 ha        1 21N      0.148000
@<TRIPOS>BOND
     1    1    3 1   
     2    1    5 1   
     3    1   16 1   
     4    1   28 1   
     5    2   27 1   
     6    3   19 1   
     7    3   29 1   
     8    4   19 1   
     9    5    8 1   
    10    5    9 1   
    11    5   30 1   
    12    6   27 1   
    13    7   11 1   
    14    7   19 1   
    15    7   31 1   
    16    8   32 1   
    17    9   12 1   
    18    9   13 1   
    19    9   33 1   
    20   10   27 1   
    21   11   20 1   
    22   12   34 1   
    23   13   14 1   
    24   13   15 1   
    25   13   35 1   
    26   14   36 1   
    27   15   16 1   
    28   15   17 1   
    29   15   37 1   
    30   17   18 1   
    31   17   38 1   
    32   17   39 1   
    33   18   40 1   
    34   20   41 1   
    35   21   22 1   
    36   21   26 1   
    37   22   23 1   
    38   22   42 1   
    39   23   43 1   
    40   24   25 1   
    41   24   27 1   
    42   25   44 1   
    43   26   45 1   
@<TRIPOS>SUBSTRUCTURE
     1 21N         1 TEMP              0 ****  ****    0 ROOT
