@<TRIPOS>MOLECULE
21N
   45    46     1     0     0
SMALL
bcc


@<TRIPOS>ATOM
      1 C1         -3.1330   -0.1650    0.7230 c3        1 21N      0.236500
      2 F1          7.0870    0.7960   -2.3400 f         1 21N     -0.235633
      3 N1         -1.7740   -0.6020    0.9900 n         1 21N     -0.478900
      4 S1         -2.5980   -3.0890    1.4460 s         1 21N     -0.512400
      5 C2         -3.5460    1.0270    1.6320 c3        1 21N      0.090100
      6 F2          7.7950    0.7400   -0.2920 f         1 21N     -0.235633
      7 N2         -0.1820   -2.4290    0.8710 n         1 21N     -0.295900
      8 O2         -3.6820    0.6350    2.9850 oh        1 21N     -0.597800
      9 C3         -4.9420    1.5110    1.2040 c3        1 21N      0.109100
     10 F3          6.5140    2.3590   -0.9520 f         1 21N     -0.235633
     11 N3          0.8450   -1.6540    0.5410 n2        1 21N     -0.463300
     12 O3         -5.2870    2.7040    1.8870 oh        1 21N     -0.606800
     13 C4         -4.9500    1.8500   -0.2950 c3        1 21N      0.118100
     14 O4         -6.2650    2.1430   -0.7320 oh        1 21N     -0.592800
     15 C5         -4.4600    0.6300   -1.0940 c3        1 21N      0.150100
     16 O5         -3.1480    0.2810   -0.6480 os        1 21N     -0.439600
     17 C6         -4.3290    0.9690   -2.5800 c3        1 21N      0.135400
     18 O6         -4.4650   -0.2490   -3.2920 oh        1 21N     -0.594800
     19 C7         -1.5050   -1.9650    1.0570 c         1 21N      0.578400
     20 C8          2.0510   -2.1490    0.4200 ce        1 21N      0.376800
     21 C9          3.1940   -1.3120    0.0460 ca        1 21N     -0.094900
     22 C10         4.4820   -1.8410    0.2310 ca        1 21N     -0.112500
     23 C11         5.6050   -1.0940   -0.1140 ca        1 21N     -0.084000
     24 C12         5.4460    0.1870   -0.6480 ca        1 21N     -0.159300
     25 C13         4.1710    0.7220   -0.8380 ca        1 21N     -0.084000
     26 C14         3.0470   -0.0260   -0.4910 ca        1 21N     -0.112500
     27 C15         6.6750    0.9980   -1.0440 c3        1 21N      0.687200
     28 H1         -3.8560   -1.0290    0.8660 h2        1 21N      0.122700
     29 HN1        -1.0790    0.0080    0.6040 hn        1 21N      0.324500
     30 H2         -2.8050    1.8680    1.5450 h1        1 21N      0.061700
     31 HN2        -0.0730   -3.4190    1.0530 hn        1 21N      0.341500
     32 HO2        -2.8350    0.2730    3.2730 ho        1 21N      0.424000
     33 H3         -5.7050    0.7130    1.4280 h1        1 21N      0.070700
     34 HO3        -5.2430    2.5040    2.8320 ho        1 21N      0.429000
     35 H4         -4.2810    2.7360   -0.4830 h1        1 21N      0.059700
     36 HO4        -6.6040    2.8260   -0.1360 ho        1 21N      0.426000
     37 H5         -5.1610   -0.2390   -0.9560 h1        1 21N      0.086700
     38 H6         -5.1540    1.6770   -2.8650 h1        1 21N      0.047700
     39 H6A        -3.3290    1.4350   -2.7870 h1        1 21N      0.047700
     40 HO6        -4.3130   -0.0420   -4.2210 ho        1 21N      0.404000
     41 H8          2.3050   -3.2190    0.5920 h4        1 21N      0.001800
     42 H10         4.6100   -2.8500    0.6520 ha        1 21N      0.150000
     43 H11         6.6160   -1.5050    0.0370 ha        1 21N      0.155000
     44 H13         4.0560    1.7340   -1.2560 ha        1 21N      0.155000
     45 H14         2.0460    0.4040   -0.6460 ha        1 21N      0.150000
@<TRIPOS>BOND
     1    1    3 1   
     2    1    5 1   
     3    1   16 1   
     4    1   28 1   
     5    2   27 1   
     6    3   19 1   
     7    3   29 1   
     8    4   19 2   
     9    5    8 1   
    10    5    9 1   
    11    5   30 1   
    12    6   27 1   
    13    7   11 1   
    14    7   19 1   
    15    7   31 1   
    16    8   32 1   
    17    9   12 1   
    18    9   13 1   
    19    9   33 1   
    20   10   27 1   
    21   11   20 2   
    22   12   34 1   
    23   13   14 1   
    24   13   15 1   
    25   13   35 1   
    26   14   36 1   
    27   15   16 1   
    28   15   17 1   
    29   15   37 1   
    30   17   18 1   
    31   17   38 1   
    32   17   39 1   
    33   18   40 1   
    34   20   21 1   
    35   20   41 1   
    36   21   22 ar  
    37   21   26 ar  
    38   22   23 ar  
    39   22   42 1   
    40   23   24 ar  
    41   23   43 1   
    42   24   25 ar  
    43   24   27 1   
    44   25   26 ar  
    45   25   44 1   
    46   26   45 1   
@<TRIPOS>SUBSTRUCTURE
     1 21N         1 TEMP              0 ****  ****    0 ROOT
