@<TRIPOS>MOLECULE
21N
   47    48     1     0     0
SMALL
bcc


@<TRIPOS>ATOM
      1 C1          0.6990   -0.6960   -0.0110 c3        1 21N      0.332300
      2 F1          0.3800    4.8330   -8.9140 f         1 21N     -0.210300
      3 N1          0.6320   -1.2590   -1.4230 ny        1 21N     -0.609800
      4 S1         -1.3860   -2.9180   -1.9010 s         1 21N      0.259600
      5 C2          2.1550   -0.3500    0.3960 c3        1 21N      0.120100
      6 F2         -0.1930    3.1680  -10.1990 f         1 21N     -0.210300
      7 N2         -1.5220   -0.2880   -2.2730 ny        1 21N     -0.306900
      8 O2          2.8630   -1.5660    0.3490 oh        1 21N     -0.624800
      9 C3          2.0810    0.2620    1.8090 c3        1 21N      0.113100
     10 F3          1.7890    3.2170   -9.2970 f         1 21N     -0.210300
     11 N3         -0.9090    0.3360   -3.3710 n2        1 21N     -0.619400
     12 O3          3.4050    0.6470    2.1040 oh        1 21N     -0.585800
     13 C4          1.1410    1.4910    1.8180 c3        1 21N      0.084100
     14 O4          0.9790    1.8260    3.1810 oh        1 21N     -0.573800
     15 C5         -0.2330    1.1160    1.2360 c3        1 21N      0.122100
     16 O5         -0.0670    0.4890   -0.0560 os        1 21N     -0.466600
     17 C6         -1.1240    2.3200    0.9100 c3        1 21N      0.134400
     18 O6         -2.1460    1.8330    0.0470 oh        1 21N     -0.659800
     19 C7         -0.7640   -1.5420   -1.8580 c         1 21N      0.033400
     20 C8         -1.6210    0.7030   -4.4150 ce        1 21N      0.596800
     21 C9         -1.0480    1.3910   -5.5550 ca        1 21N     -0.217900
     22 C10        -1.9040    1.6740   -6.6410 ca        1 21N     -0.055000
     23 C11        -1.4130    2.3350   -7.7630 ca        1 21N     -0.090500
     24 C12        -0.0700    2.7210   -7.8080 ca        1 21N     -0.078300
     25 C13         0.7860    2.4490   -6.7380 ca        1 21N     -0.090500
     26 C14         0.3020    1.7860   -5.6130 ca        1 21N     -0.055000
     27 C15         0.4680    3.4700   -9.0370 c3        1 21N      0.685200
     28 H1          0.2500   -1.4650    0.6880 hx        1 21N      0.122700
     29 HN1         1.1720   -2.1470   -1.4140 hn        1 21N      0.502800
     30 H2          2.6150    0.3940   -0.3150 h1        1 21N      0.095700
     31 HN2        -1.5150    0.4140   -1.4820 hn        1 21N      0.489800
     32 HO2         3.6690   -1.4640    0.8860 ho        1 21N      0.486000
     33 H3          1.7180   -0.5010    2.5540 h1        1 21N      0.086700
     34 HO3         3.4170    0.9590    3.0230 ho        1 21N      0.459000
     35 H4          1.6050    2.3270    1.2290 h1        1 21N      0.087700
     36 HO4         0.9280    2.7890    3.2520 ho        1 21N      0.440000
     37 H5         -0.7660    0.4010    1.9220 h1        1 21N      0.093700
     38 H6         -1.5420    2.7290    1.8670 h1        1 21N      0.079200
     39 H6A        -0.5440    3.1120    0.3650 h1        1 21N      0.079200
     40 HO6        -2.9260    2.3860    0.1910 ho        1 21N      0.448000
     41 H8         -2.7240    0.5200   -4.5010 h4        1 21N      0.033800
     42 H10        -2.9650    1.3750   -6.6130 ha        1 21N      0.153500
     43 H11        -2.0790    2.5520   -8.6190 ha        1 21N      0.189500
     44 H13         1.8460    2.7580   -6.7910 ha        1 21N      0.189500
     45 H14         0.9870    1.5850   -4.7760 ha        1 21N      0.153500
     46 H12         1.1030   -0.5950   -2.0620 hn        1 21N      0.502800
     47 H22        -2.5060   -0.5900   -2.4250 hn        1 21N      0.489800
@<TRIPOS>BOND
     1    1    3 1   
     2    1    5 1   
     3    1   16 1   
     4    1   28 1   
     5    2   27 1   
     6    3   19 1   
     7    3   29 1   
     8    3   46 1   
     9    4   19 2   
    10    5    8 1   
    11    5    9 1   
    12    5   30 1   
    13    6   27 1   
    14    7   11 1   
    15    7   19 1   
    16    7   31 1   
    17    7   47 1   
    18    8   32 1   
    19    9   12 1   
    20    9   13 1   
    21    9   33 1   
    22   10   27 1   
    23   11   20 2   
    24   12   34 1   
    25   13   14 1   
    26   13   15 1   
    27   13   35 1   
    28   14   36 1   
    29   15   16 1   
    30   15   17 1   
    31   15   37 1   
    32   17   18 1   
    33   17   38 1   
    34   17   39 1   
    35   18   40 1   
    36   20   21 1   
    37   20   41 1   
    38   21   22 ar  
    39   21   26 ar  
    40   22   23 ar  
    41   22   42 1   
    42   23   24 ar  
    43   23   43 1   
    44   24   25 ar  
    45   24   27 1   
    46   25   26 ar  
    47   25   44 1   
    48   26   45 1   
@<TRIPOS>SUBSTRUCTURE
     1 21N         1 TEMP              0 ****  ****    0 ROOT
