@<TRIPOS>MOLECULE
21N
   47    48     1     0     0
SMALL
bcc


@<TRIPOS>ATOM
      1 C1          0.7290   -0.6500    0.0160 c3        1 21N      0.334300
      2 F1          0.3270    4.7630   -8.9260 f         1 21N     -0.210300
      3 N1          0.6880   -1.2420   -1.3850 n4        1 21N     -0.609800
      4 S1         -1.2750   -2.9720   -1.8440 s         1 21N      0.259600
      5 C2          2.1690   -0.2460    0.4240 c3        1 21N      0.118100
      6 F2         -0.2430    3.0920  -10.2040 f         1 21N     -0.210300
      7 N2         -1.4940   -0.3550   -2.2620 n4        1 21N     -0.306900
      8 O2          2.9160   -1.4400    0.4140 oh        1 21N     -0.623800
      9 C3          2.0650    0.4020    1.8190 c3        1 21N      0.085100
     10 F3          1.7450    3.1570   -9.3160 f         1 21N     -0.210300
     11 N3         -0.8910    0.2710   -3.3640 n2        1 21N     -0.619400
     12 O3          3.3740    0.8450    2.1090 oh        1 21N     -0.584800
     13 C4          1.0870    1.5990    1.7860 c3        1 21N      0.089100
     14 O4          0.8370    2.0110    3.1150 oh        1 21N     -0.577800
     15 C5         -0.2710    1.1590    1.2160 c3        1 21N      0.146100
     16 O5         -0.0760    0.5060   -0.0580 os        1 21N     -0.468600
     17 C6         -1.2010    2.3230    0.8570 c3        1 21N      0.138400
     18 O6         -2.2160    1.7770    0.0220 oh        1 21N     -0.663800
     19 C7         -0.6980   -1.5770   -1.8220 c         1 21N      0.034400
     20 C8         -1.6130    0.6290   -4.4050 ce        1 21N      0.596800
     21 C9         -1.0520    1.3190   -5.5510 ca        1 21N     -0.216900
     22 C10        -1.9180    1.5920   -6.6320 ca        1 21N     -0.055500
     23 C11        -1.4400    2.2540   -7.7580 ca        1 21N     -0.090500
     24 C12        -0.1000    2.6510   -7.8130 ca        1 21N     -0.078300
     25 C13         0.7650    2.3880   -6.7480 ca        1 21N     -0.090500
     26 C14         0.2930    1.7240   -5.6190 ca        1 21N     -0.055500
     27 C15         0.4230    3.4010   -9.0480 c3        1 21N      0.685200
     28 H1          0.3020   -1.4200    0.7280 hx        1 21N      0.122700
     29 HN1         1.1400   -0.5770   -2.0350 hn        1 21N      0.502800
     30 H2          2.6100    0.4930   -0.3030 h1        1 21N      0.095700
     31 HN2        -1.5190    0.3580   -1.4810 hn        1 21N      0.489800
     32 HO2         3.7260   -1.2890    0.9320 ho        1 21N      0.483000
     33 H3          1.7200   -0.3530    2.5800 h1        1 21N      0.085700
     34 HO3         3.4250    1.0030    3.0630 ho        1 21N      0.450000
     35 H4          1.5270    2.4280    1.1660 h1        1 21N      0.087700
     36 HO4         1.4700    2.7110    3.3300 ho        1 21N      0.444000
     37 H5         -0.7800    0.4430    1.9200 h1        1 21N      0.093700
     38 H6         -0.6510    3.1100    0.2750 h1        1 21N      0.085700
     39 H6A        -1.6140    2.7560    1.8060 h1        1 21N      0.085700
     40 HO6        -3.0330    2.2570    0.2140 ho        1 21N      0.448000
     41 H8         -2.7150    0.4360   -4.4840 h4        1 21N      0.034800
     42 H10        -2.9760    1.2840   -6.5960 ha        1 21N      0.153500
     43 H11        -2.1130    2.4640   -8.6100 ha        1 21N      0.189500
     44 H13         1.8220    2.7060   -6.8090 ha        1 21N      0.189500
     45 H14         0.9860    1.5310   -4.7850 ha        1 21N      0.153500
     46 H12         1.2540   -2.1130   -1.3570 hn        1 21N      0.502800
     47 H22        -2.4650   -0.6930   -2.4180 hn        1 21N      0.489800
@<TRIPOS>BOND
     1    1    3 1   
     2    1    5 1   
     3    1   16 1   
     4    1   28 1   
     5    2   27 1   
     6    3   19 1   
     7    3   29 1   
     8    3   46 1   
     9    4   19 2   
    10    5    8 1   
    11    5    9 1   
    12    5   30 1   
    13    6   27 1   
    14    7   11 1   
    15    7   19 1   
    16    7   31 1   
    17    7   47 1   
    18    8   32 1   
    19    9   12 1   
    20    9   13 1   
    21    9   33 1   
    22   10   27 1   
    23   11   20 2   
    24   12   34 1   
    25   13   14 1   
    26   13   15 1   
    27   13   35 1   
    28   14   36 1   
    29   15   16 1   
    30   15   17 1   
    31   15   37 1   
    32   17   18 1   
    33   17   38 1   
    34   17   39 1   
    35   18   40 1   
    36   20   21 1   
    37   20   41 1   
    38   21   22 ar  
    39   21   26 ar  
    40   22   23 ar  
    41   22   42 1   
    42   23   24 ar  
    43   23   43 1   
    44   24   25 ar  
    45   24   27 1   
    46   25   26 ar  
    47   25   44 1   
    48   26   45 1   
@<TRIPOS>SUBSTRUCTURE
     1 21N         1 TEMP              0 ****  ****    0 ROOT
