@<TRIPOS>MOLECULE
21N
   47    48     1     0     0
SMALL
bcc


@<TRIPOS>ATOM
      1 C1          0.6990   -0.6870   -0.0060 c3        1 21N      0.332300
      2 F1          0.3820    4.8250   -8.9180 f         1 21N     -0.210300
      3 N1          0.6380   -1.2530   -1.4170 n4        1 21N     -0.609800
      4 S1         -1.3720   -2.9210   -1.8970 s         1 21N      0.259600
      5 C2          2.1520   -0.3340    0.4040 c3        1 21N      0.120100
      6 F2         -0.1840    3.1580  -10.2020 f         1 21N     -0.210300
      7 N2         -1.5180   -0.2930   -2.2750 n4        1 21N     -0.306900
      8 O2          2.8660   -1.5470    0.3610 oh        1 21N     -0.624800
      9 C3          2.0720    0.2800    1.8150 c3        1 21N      0.113100
     10 F3          1.7970    3.2120   -9.2970 f         1 21N     -0.210300
     11 N3         -0.9050    0.3320   -3.3720 n2        1 21N     -0.619400
     12 O3          3.3940    0.6710    2.1140 oh        1 21N     -0.585800
     13 C4          1.1270    1.5040    1.8210 c3        1 21N      0.084100
     14 O4          0.9600    1.8410    3.1830 oh        1 21N     -0.573800
     15 C5         -0.2440    1.1220    1.2360 c3        1 21N      0.122100
     16 O5         -0.0720    0.4940   -0.0550 os        1 21N     -0.466600
     17 C6         -1.1390    2.3210    0.9060 c3        1 21N      0.134400
     18 O6         -2.1570    1.8290    0.0410 oh        1 21N     -0.659800
     19 C7         -0.7560   -1.5430   -1.8550 c         1 21N      0.033400
     20 C8         -1.6150    0.6940   -4.4190 ce        1 21N      0.596800
     21 C9         -1.0420    1.3830   -5.5580 ca        1 21N     -0.217900
     22 C10        -1.8960    1.6600   -6.6470 ca        1 21N     -0.055000
     23 C11        -1.4050    2.3210   -7.7690 ca        1 21N     -0.090500
     24 C12        -0.0640    2.7130   -7.8100 ca        1 21N     -0.078300
     25 C13         0.7910    2.4470   -6.7370 ca        1 21N     -0.090500
     26 C14         0.3060    1.7840   -5.6130 ca        1 21N     -0.055000
     27 C15         0.4740    3.4630   -9.0400 c3        1 21N      0.685200
     28 H1          0.2520   -1.4570    0.6930 hx        1 21N      0.122700
     29 HN1         1.1820   -2.1380   -1.4060 hn        1 21N      0.502800
     30 H2          2.6110    0.4100   -0.3070 h1        1 21N      0.095700
     31 HN2        -2.5000   -0.5990   -2.4290 hn        1 21N      0.489800
     32 HO2         3.6700   -1.4400    0.9000 ho        1 21N      0.486000
     33 H3          1.7110   -0.4830    2.5610 h1        1 21N      0.086700
     34 HO3         3.4020    0.9840    3.0320 ho        1 21N      0.459000
     35 H4          1.5890    2.3420    1.2310 h1        1 21N      0.087700
     36 HO4         0.9050    2.8040    3.2510 ho        1 21N      0.440000
     37 H5         -0.7760    0.4060    1.9220 h1        1 21N      0.093700
     38 H6         -1.5620    2.7300    1.8610 h1        1 21N      0.079200
     39 H6A        -0.5620    3.1150    0.3610 h1        1 21N      0.079200
     40 HO6        -2.9400    2.3790    0.1820 ho        1 21N      0.448000
     41 H8         -2.7180    0.5060   -4.5070 h4        1 21N      0.033800
     42 H10        -2.9560    1.3560   -6.6210 ha        1 21N      0.153500
     43 H11        -2.0700    2.5340   -8.6270 ha        1 21N      0.189500
     44 H13         1.8490    2.7610   -6.7880 ha        1 21N      0.189500
     45 H14         0.9890    1.5870   -4.7730 ha        1 21N      0.153500
     46 H12         1.1070   -0.5880   -2.0560 hn        1 21N      0.502800
     47 H22        -1.5160    0.4110   -1.4850 hn        1 21N      0.489800
@<TRIPOS>BOND
     1    1    3 1   
     2    1    5 1   
     3    1   16 1   
     4    1   28 1   
     5    2   27 1   
     6    3   19 1   
     7    3   29 1   
     8    3   46 1   
     9    4   19 2   
    10    5    8 1   
    11    5    9 1   
    12    5   30 1   
    13    6   27 1   
    14    7   11 1   
    15    7   19 1   
    16    7   31 1   
    17    7   47 1   
    18    8   32 1   
    19    9   12 1   
    20    9   13 1   
    21    9   33 1   
    22   10   27 1   
    23   11   20 2   
    24   12   34 1   
    25   13   14 1   
    26   13   15 1   
    27   13   35 1   
    28   14   36 1   
    29   15   16 1   
    30   15   17 1   
    31   15   37 1   
    32   17   18 1   
    33   17   38 1   
    34   17   39 1   
    35   18   40 1   
    36   20   21 1   
    37   20   41 1   
    38   21   22 ar  
    39   21   26 ar  
    40   22   23 ar  
    41   22   42 1   
    42   23   24 ar  
    43   23   43 1   
    44   24   25 ar  
    45   24   27 1   
    46   25   26 ar  
    47   25   44 1   
    48   26   45 1   
@<TRIPOS>SUBSTRUCTURE
     1 21N         1 TEMP              0 ****  ****    0 ROOT
