@<TRIPOS>MOLECULE
21O
   40    41     1     0     0
SMALL
bcc


@<TRIPOS>ATOM
      1 O43         0.9580   -1.8110   -1.6000 o         1 21O     -0.870800
      2 C41         1.3790   -0.6820   -1.2150 c         1 21O      0.931100
      3 O42         1.3800   -0.3550    0.0140 o         1 21O     -0.870800
      4 CAW         2.0460    0.2390   -2.2560 c3        1 21O     -0.260700
      5 CAR         1.1630    0.7990   -3.3820 c         1 21O      0.931100
      6 OAE         1.7650    1.0830   -4.4840 o         1 21O     -0.870800
      7 OAB        -0.0700    1.0030   -3.2580 o         1 21O     -0.870800
      8 CAX         2.8600    1.3540   -1.5910 c3        1 21O      0.020600
      9 CAV         2.0450    2.5320   -1.1500 ca        1 21O     -0.010300
     10 CAJ         1.5500    2.5680    0.1640 ca        1 21O     -0.110000
     11 CAH         0.8800    3.6960    0.6320 ca        1 21O     -0.158000
     12 CAG         0.6790    4.7950   -0.2030 ca        1 21O     -0.170000
     13 CAI         1.1190    4.7440   -1.5240 ca        1 21O     -0.158000
     14 CAK         1.7900    3.6170   -1.9980 ca        1 21O     -0.110000
     15 CAP         3.9790    1.8360   -2.5250 c3        1 21O     -0.195400
     16 CAS         5.1670    0.9240   -2.5270 c         1 21O      0.598700
     17 OAC         5.9130    0.8040   -1.5420 o         1 21O     -0.578100
     18 CAU         5.5130    0.2140   -3.7930 ca        1 21O     -0.136600
     19 CAO         6.8540   -0.1510   -3.9990 ca        1 21O     -0.093000
     20 CAM         7.2420   -0.7940   -5.1680 ca        1 21O     -0.115500
     21 CAT         6.2790   -1.0870   -6.1410 ca        1 21O     -0.172300
     22 C36         6.7130   -1.7960   -7.4110 c3        1 21O      0.686200
     23 F39         6.8910   -3.1560   -7.2870 f         1 21O     -0.254967
     24 F38         5.8570   -1.6810   -8.4800 f         1 21O     -0.254967
     25 F37         7.9200   -1.3730   -7.9260 f         1 21O     -0.254967
     26 CAL         4.9430   -0.7450   -5.9380 ca        1 21O     -0.115500
     27 CAN         4.5550   -0.0890   -4.7640 ca        1 21O     -0.093000
     28 HAW         2.7950   -0.4370   -2.7660 hc        1 21O      0.022700
     29 HAX         3.3350    0.9060   -0.6680 hc        1 21O      0.069700
     30 HAP1        4.3430    2.8420   -2.1810 hc        1 21O      0.078700
     31 HAP2        3.5480    1.9480   -3.5600 hc        1 21O      0.078700
     32 HAJ         1.6520    1.6560    0.7840 ha        1 21O      0.169500
     33 HAK         2.0740    3.5480   -3.0610 ha        1 21O      0.169500
     34 HAH         0.4940    3.7110    1.6610 ha        1 21O      0.096000
     35 HAG         0.1540    5.6840    0.1710 ha        1 21O      0.087000
     36 HAI         0.9210    5.5850   -2.2010 ha        1 21O      0.096000
     37 HAO         7.5950    0.0700   -3.2140 ha        1 21O      0.206000
     38 HAN         3.4700    0.1870   -4.6200 ha        1 21O      0.206000
     39 HAM         8.2910   -1.0730   -5.3350 ha        1 21O      0.137500
     40 HAL         4.1830   -0.9830   -6.6990 ha        1 21O      0.137500
@<TRIPOS>BOND
     1    1    2 1   
     2    2    3 1   
     3    2    4 1   
     4    4    5 1   
     5    4    8 1   
     6    4   28 1   
     7    5    6 1   
     8    5    7 1   
     9    8    9 1   
    10    8   15 1   
    11    8   29 1   
    12    9   10 ar  
    13    9   14 ar  
    14   10   11 ar  
    15   10   32 1   
    16   11   12 ar  
    17   11   34 1   
    18   12   13 ar  
    19   12   35 1   
    20   13   14 ar  
    21   13   36 1   
    22   14   33 1   
    23   15   16 1   
    24   15   30 1   
    25   15   31 1   
    26   16   17 2   
    27   16   18 1   
    28   18   19 ar  
    29   18   27 ar  
    30   19   20 ar  
    31   19   37 1   
    32   20   21 ar  
    33   20   39 1   
    34   21   22 1   
    35   21   26 ar  
    36   22   23 1   
    37   22   24 1   
    38   22   25 1   
    39   26   27 ar  
    40   26   40 1   
    41   27   38 1   
@<TRIPOS>SUBSTRUCTURE
     1 21O         1 TEMP              0 ****  ****    0 ROOT
