@<TRIPOS>MOLECULE
21O
   40    41     1     0     0
SMALL
bcc


@<TRIPOS>ATOM
      1 O43        -2.3610   -3.0330   -1.2600 o         1 21O     -0.870800
      2 C41        -2.6700   -2.0560   -0.5150 c         1 21O      0.931100
      3 O42        -3.6080   -2.1410    0.3390 o         1 21O     -0.870800
      4 CAW        -1.7740   -0.8020   -0.5520 c3        1 21O     -0.260700
      5 CAR        -1.7490    0.0180   -1.8500 c         1 21O      0.931100
      6 OAE        -0.6710    0.6850   -2.0770 o         1 21O     -0.870800
      7 OAB        -2.7150    0.0760   -2.6510 o         1 21O     -0.870800
      8 CAX        -2.0080    0.1000    0.6640 c3        1 21O      0.020600
      9 CAV        -3.1940    1.0090    0.5360 ca        1 21O     -0.010300
     10 CAJ        -4.4370    0.5850    1.0310 ca        1 21O     -0.110000
     11 CAH        -5.5300    1.4480    1.0210 ca        1 21O     -0.158000
     12 CAG        -5.4060    2.7380    0.5030 ca        1 21O     -0.170000
     13 CAI        -4.1900    3.1460   -0.0390 ca        1 21O     -0.158000
     14 CAK        -3.0920    2.2850   -0.0320 ca        1 21O     -0.110000
     15 CAP        -0.7580    0.9410    0.9620 c3        1 21O     -0.195400
     16 CAS         0.2970    0.1720    1.6950 c         1 21O      0.598700
     17 OAC         0.1510   -0.1980    2.8710 o         1 21O     -0.578100
     18 CAU         1.6020   -0.0670    1.0130 ca        1 21O     -0.136600
     19 CAO         2.7430   -0.2430    1.8140 ca        1 21O     -0.093000
     20 CAM         3.9900   -0.4460    1.2360 ca        1 21O     -0.115500
     21 CAT         4.1010   -0.4860   -0.1590 ca        1 21O     -0.172300
     22 C36         5.4680   -0.7160   -0.7780 c3        1 21O      0.686200
     23 F39         5.8920   -2.0260   -0.7840 f         1 21O     -0.254967
     24 F38         5.5990   -0.3320   -2.0920 f         1 21O     -0.254967
     25 F37         6.5050   -0.0590   -0.1520 f         1 21O     -0.254967
     26 CAL         2.9730   -0.3310   -0.9620 ca        1 21O     -0.115500
     27 CAN         1.7180   -0.1170   -0.3790 ca        1 21O     -0.093000
     28 HAW        -0.7290   -1.2200   -0.4370 hc        1 21O      0.022700
     29 HAX        -2.1970   -0.5810    1.5460 hc        1 21O      0.069700
     30 HAP1       -0.3660    1.3440   -0.0150 hc        1 21O      0.078700
     31 HAP2       -1.0420    1.8090    1.6170 hc        1 21O      0.078700
     32 HAJ        -4.5340   -0.4670    1.3650 ha        1 21O      0.169500
     33 HAK        -2.1520    2.5820   -0.5250 ha        1 21O      0.169500
     34 HAH        -6.4990    1.1040    1.4070 ha        1 21O      0.096000
     35 HAG        -6.2690    3.4170    0.5000 ha        1 21O      0.087000
     36 HAI        -4.0970    4.1420   -0.4930 ha        1 21O      0.096000
     37 HAO         2.6340   -0.2280    2.9100 ha        1 21O      0.206000
     38 HAN         0.8170    0.0140   -1.0460 ha        1 21O      0.206000
     39 HAM         4.8850   -0.5760    1.8600 ha        1 21O      0.137500
     40 HAL         3.0580   -0.3720   -2.0590 ha        1 21O      0.137500
@<TRIPOS>BOND
     1    1    2 1   
     2    2    3 1   
     3    2    4 1   
     4    4    5 1   
     5    4    8 1   
     6    4   28 1   
     7    5    6 1   
     8    5    7 1   
     9    8    9 1   
    10    8   15 1   
    11    8   29 1   
    12    9   10 ar  
    13    9   14 ar  
    14   10   11 ar  
    15   10   32 1   
    16   11   12 ar  
    17   11   34 1   
    18   12   13 ar  
    19   12   35 1   
    20   13   14 ar  
    21   13   36 1   
    22   14   33 1   
    23   15   16 1   
    24   15   30 1   
    25   15   31 1   
    26   16   17 2   
    27   16   18 1   
    28   18   19 ar  
    29   18   27 ar  
    30   19   20 ar  
    31   19   37 1   
    32   20   21 ar  
    33   20   39 1   
    34   21   22 1   
    35   21   26 ar  
    36   22   23 1   
    37   22   24 1   
    38   22   25 1   
    39   26   27 ar  
    40   26   40 1   
    41   27   38 1   
@<TRIPOS>SUBSTRUCTURE
     1 21O         1 TEMP              0 ****  ****    0 ROOT
