@<TRIPOS>MOLECULE
21O
   40    36     1     0     0
SMALL
bcc


@<TRIPOS>ATOM
      1 O43        -2.2070   -2.6670    3.5720 o         1 21O     -0.593000
      2 C41        -1.4840   -2.4650    2.5450 c1        1 21O      0.334000
      3 O42        -0.3710   -3.0440    2.4350 os        1 21O     -0.631000
      4 CAW        -1.9810   -1.5460    1.4300 c3        1 21O     -0.206000
      5 CAR        -3.3910   -1.1350    1.7150 c2        1 21O      0.344000
      6 OAE        -4.1480   -0.7930    0.7700 o         1 21O     -0.600500
      7 OAB        -3.8450   -1.2300    2.8740 o         1 21O     -0.600500
      8 CAX        -1.0850   -0.2950    1.3560 c3        1 21O     -0.038000
      9 CAV        -1.9230    0.9370    1.5390 c2        1 21O     -0.017000
     10 CAJ        -1.8550    1.6470    2.7220 c1        1 21O     -0.155000
     11 CAH        -2.5980    2.8120    2.8760 c1        1 21O     -0.168000
     12 CAG        -3.4070    3.2640    1.8420 c1        1 21O     -0.168000
     13 CAI        -3.4740    2.5520    0.6550 c1        1 21O     -0.150000
     14 CAK        -2.7350    1.3890    0.5010 c2        1 21O     -0.105000
     15 CAP        -0.4010   -0.2440    0.0090 c3        1 21O     -0.207000
     16 CAS         1.0960   -0.6850    0.1630 c2        1 21O      0.292000
     17 OAC         1.4660   -1.2240    1.1880 o         1 21O     -0.331000
     18 CAU         2.0530   -0.6000   -1.0500 c2        1 21O     -0.109000
     19 CAO         2.6860    0.6100   -1.3580 c2        1 21O     -0.116000
     20 CAM         3.6210    0.6640   -2.3900 c1        1 21O     -0.129000
     21 CAT         3.9240   -0.4890   -3.1150 c1        1 21O     -0.171000
     22 C36         4.9340   -0.4300   -4.2440 c3        1 21O      0.466000
     23 F39         6.1330   -0.8190   -3.7900 f         1 21O     -0.184333
     24 F38         4.5470   -1.2430   -5.2300 f         1 21O     -0.184333
     25 F37         5.0160    0.8170   -4.7020 f         1 21O     -0.184333
     26 CAL         3.2930   -1.6930   -2.8090 c1        1 21O     -0.093000
     27 CAN         2.3580   -1.7480   -1.7760 c1        1 21O     -0.068000
     28 HAW        -1.9470   -2.0120    0.5920 hc        1 21O      0.077000
     29 HAX        -0.4040   -0.3370    2.0680 hc        1 21O      0.149000
     30 HAP1       -0.8520   -0.8420   -0.6040 hc        1 21O      0.117000
     31 HAP2       -0.4380    0.6680   -0.3400 hc        1 21O      0.117000
     32 HAJ        -1.3530    1.2890    3.4730 ha        1 21O      0.141000
     33 HAK        -2.7830    0.8840   -0.3410 ha        1 21O      0.204000
     34 HAH        -2.5500    3.3120    3.7090 ha        1 21O      0.092500
     35 HAG        -3.9970    4.0300    1.9840 ha        1 21O      0.092500
     36 HAI        -4.0480    2.8710   -0.0790 ha        1 21O      0.107000
     37 HAO         2.5310    1.4000   -0.7970 ha        1 21O      0.133000
     38 HAN         1.9180   -2.5900   -1.5630 ha        1 21O      0.268000
     39 HAM         4.1350    1.5110   -2.5570 ha        1 21O      0.121000
     40 HAL         3.5680   -2.5270   -3.2720 ha        1 21O      0.152000
@<TRIPOS>BOND
     1    1    2 1   
     2    2    4 1   
     3    4    5 1   
     4    4    8 1   
     5    4   28 1   
     6    5    6 1   
     7    5    7 1   
     8    8    9 1   
     9    8   15 1   
    10    8   29 1   
    11    9   10 1   
    12    9   14 1   
    13   10   32 1   
    14   11   12 1   
    15   11   34 1   
    16   12   35 1   
    17   13   14 1   
    18   13   36 1   
    19   14   33 1   
    20   15   16 1   
    21   15   30 1   
    22   15   31 1   
    23   16   17 1   
    24   16   18 1   
    25   18   19 1   
    26   18   27 1   
    27   19   20 1   
    28   19   37 1   
    29   20   39 1   
    30   21   22 1   
    31   21   26 1   
    32   22   23 1   
    33   22   24 1   
    34   22   25 1   
    35   26   40 1   
    36   27   38 1   
@<TRIPOS>SUBSTRUCTURE
     1 21O         1 TEMP              0 ****  ****    0 ROOT
