@<TRIPOS>MOLECULE
21P
   52    55     1     0     0
SMALL
bcc


@<TRIPOS>ATOM
      1 C11        -0.1280    0.0470    0.1760 c1        1 21P     -0.105000
      2 C14        -2.7930    1.0440   -0.1690 c3        1 21P     -0.125000
      3 C9          0.0650   -0.2140    2.5800 c2        1 21P      0.035000
      4 C13        -2.1780   -0.5560    1.5740 c3        1 21P      0.258000
      5 C8          1.4840   -0.0170    2.5110 c2        1 21P     -0.436000
      6 C12         1.3190    0.2140    0.0730 c3        1 21P     -0.182000
      7 C19        -4.7260   -4.3600    1.0120 cu        1 21P      0.090000
      8 C3          4.1940    0.2140    3.2210 c3        1 21P     -0.836000
      9 C18        -3.6050   -3.7190    0.6690 cu        1 21P     -0.232000
     10 C21        -3.5940   -2.4350    2.6300 c2        1 21P     -0.289000
     11 C20        -4.2640   -3.3710    1.9560 cu        1 21P     -0.117000
     12 C10        -0.7040   -0.2270    1.4420 c2        1 21P     -0.183000
     13 C16        -2.3470   -2.0750    1.8220 c3        1 21P     -0.070000
     14 C17        -2.4070   -2.9070    0.4820 c3        1 21P     -0.041000
     15 O2         -5.3570   -6.5380    0.3830 o         1 21P     -0.531500
     16 O1         -6.9760   -5.0590    0.8420 o         1 21P     -0.531500
     17 O4         -2.6610    0.2150    2.6700 oh        1 21P     -0.385000
     18 C15        -3.0230    2.2840    0.5150 c1        1 21P     -0.125000
     19 O3         -3.0340   -0.1880    0.5120 os        1 21P     -0.297000
     20 SI1         2.5340   -0.0320    3.9720 Si        1 21P      1.262000
     21 C2          2.4330   -1.6220    4.8650 c3        1 21P     -0.562500
     22 C7          2.1020    0.1700    1.3220 c2        1 21P     -0.360000
     23 SI2         3.9050    0.3510    1.4190 Si        1 21P      1.246000
     24 H11         1.6710   -0.5940   -0.6400 hc        1 21P      0.156000
     25 H14        -1.7300    1.0570   -0.5860 h1        1 21P      0.175500
     26 H14A       -3.4980    0.9790   -1.0540 h1        1 21P      0.175500
     27 H9         -0.4030   -0.3570    3.5710 ha        1 21P      0.149000
     28 H5          3.9220    2.2170   -0.1930 hc        1 21P      0.088667
     29 H5A         4.2030    2.7990    1.4810 hc        1 21P      0.088667
     30 H5B         5.5300    1.9980    0.5740 hc        1 21P      0.088667
     31 H1          1.0230    1.3490    5.3450 hc        1 21P      0.089833
     32 H1A         2.6540    1.2260    6.0860 hc        1 21P      0.089833
     33 H1B         2.3810    2.3230    4.6910 hc        1 21P      0.089833
     34 H12         1.4920    1.1970   -0.4600 hc        1 21P      0.156000
     35 H3          4.8720   -0.6370    3.4610 hc        1 21P      0.112500
     36 H3A         4.6850    1.1280    3.6250 hc        1 21P      0.112500
     37 H6          4.6960   -1.9520    1.0260 hc        1 21P      0.088667
     38 H6A         4.2860   -1.1300   -0.5150 hc        1 21P      0.088667
     39 H6B         5.8230   -0.7420    0.3270 hc        1 21P      0.088667
     40 H18        -1.4860   -3.5310    0.3740 hc        1 21P      0.101000
     41 H21        -1.4470   -2.4010    2.4100 hc        1 21P      0.072000
     42 H20        -3.7910   -1.9910    3.5990 ha        1 21P      0.133000
     43 H17        -2.4950   -2.2300   -0.4030 hc        1 21P      0.101000
     44 H15        -3.2250    2.2550    1.5950 ha        1 21P      0.064000
     45 H15A       -3.5970   -0.0060    2.7750 ho        1 21P      0.231000
     46 H2          2.9630   -1.5740    5.8440 hc        1 21P      0.089833
     47 H2A         2.8890   -2.4540    4.2800 hc        1 21P      0.089833
     48 H2B         1.3760   -1.9080    5.0740 hc        1 21P      0.089833
     49 C5          4.4330    1.9750    0.7670 c3        1 21P     -0.560500
     50 C1          2.1140    1.3290    5.1170 c3        1 21P     -0.562500
     51 C6          4.7460   -0.9780    0.4880 c3        1 21P     -0.560500
     52 C22        -5.7710   -5.3980    0.7250 c2        1 21P      0.392000
@<TRIPOS>BOND
     1    1    6 1   
     2    1   12 1   
     3    2   18 1   
     4    2   19 1   
     5    2   25 1   
     6    2   26 1   
     7    3    5 1   
     8    3   12 1   
     9    3   27 1   
    10    4   12 1   
    11    4   13 1   
    12    4   17 1   
    13    4   19 1   
    14    5   20 1   
    15    5   22 1   
    16    6   22 1   
    17    6   24 1   
    18    6   34 1   
    19    7    9 1   
    20    7   11 1   
    21    7   52 1   
    22    8   20 1   
    23    8   23 1   
    24    8   35 1   
    25    8   36 1   
    26    9   11 1   
    27    9   14 1   
    28   10   11 1   
    29   10   13 1   
    30   10   42 1   
    31   13   14 1   
    32   13   41 1   
    33   14   40 1   
    34   14   43 1   
    35   15   52 1   
    36   16   52 1   
    37   17   45 1   
    38   18   44 1   
    39   20   21 1   
    40   20   50 1   
    41   21   46 1   
    42   21   47 1   
    43   21   48 1   
    44   22   23 1   
    45   23   49 1   
    46   23   51 1   
    47   28   49 1   
    48   29   49 1   
    49   30   49 1   
    50   31   50 1   
    51   32   50 1   
    52   33   50 1   
    53   37   51 1   
    54   38   51 1   
    55   39   51 1   
@<TRIPOS>SUBSTRUCTURE
     1 21P         1 TEMP              0 ****  ****    0 ROOT
