@<TRIPOS>MOLECULE
21P
   52    50     1     0     0
SMALL
bcc


@<TRIPOS>ATOM
      1 C11         0.1300    0.1140   -1.4850 c1        1 21P     -0.098500
      2 C14        -2.5000   -2.4480   -0.5560 c3        1 21P     -0.042000
      3 C9          0.0960    0.0260    1.0070 c1        1 21P     -0.060000
      4 C13        -2.0980   -0.2330   -0.4740 c3        1 21P      0.290000
      5 C8          1.4590    0.0400    1.0190 c1        1 21P     -0.397500
      6 C5          4.4030   -2.0930   -0.7260 c3        1 21P     -0.559250
      7 C1          2.2010   -1.6760    3.5170 c3        1 21P     -0.559250
      8 C12         1.5550    0.1300   -1.4790 c1        1 21P     -0.098500
      9 C19        -5.0840    2.2630   -2.3380 c1        1 21P     -0.088000
     10 C3          4.2510   -0.5340    1.7480 c3        1 21P     -0.833000
     11 C6          5.2160    0.9190   -0.6040 c3        1 21P     -0.559250
     12 C18        -4.4560    1.2650   -3.0730 c1        1 21P     -0.117000
     13 C21        -3.7670    1.6720   -0.4100 c1        1 21P     -0.130000
     14 C20        -4.7400    2.4670   -1.0070 c1        1 21P     -0.117000
     15 C10        -0.6050    0.0620   -0.2310 c1        1 21P     -0.054000
     16 C16        -3.1390    0.6740   -1.1450 c2        1 21P     -0.157000
     17 C17        -3.4830    0.4700   -2.4770 c2        1 21P     -0.129000
     18 O2         -6.1700    4.0920   -3.4880 o         1 21P     -0.564000
     19 C22        -6.3000    2.9640   -2.9320 c2        1 21P      0.355000
     20 O1         -7.4380    2.4190   -2.8680 o         1 21P     -0.564000
     21 O4         -2.9910   -0.3140    0.4420 os        1 21P     -0.293000
     22 C15        -3.2060   -1.7590    0.6330 c3        1 21P     -0.042000
     23 O3         -2.2390   -1.5400   -1.3440 os        1 21P     -0.293000
     24 SI1         2.7280   -0.2160    2.4520 Si        1 21P      1.265000
     25 C2          2.8230    1.3390    3.5050 c3        1 21P     -0.559250
     26 C7          2.2300    0.0950   -0.2980 c1        1 21P     -0.397500
     27 SI2         4.0660   -0.4150    0.0530 Si        1 21P      1.265000
     28 H11        -0.3550    0.1390   -2.3360 ha        1 21P      0.130000
     29 H14        -3.1000   -3.1030   -0.9770 h1        1 21P      0.091500
     30 H14A       -1.6730   -2.8850   -0.2550 h1        1 21P      0.091500
     31 H9         -0.4020   -0.0100    1.8520 ha        1 21P      0.141000
     32 H5          3.7160   -2.7330   -0.4340 hc        1 21P      0.084750
     33 H5A         4.3790   -2.0110   -1.7040 hc        1 21P      0.084750
     34 H5B         5.2880   -2.4120   -0.4460 hc        1 21P      0.084750
     35 H1          2.1650   -2.4880    2.9650 hc        1 21P      0.084750
     36 H1A         2.8500   -1.8020    4.2430 hc        1 21P      0.084750
     37 H1B         1.3130   -1.5000    3.8980 hc        1 21P      0.084750
     38 H12         2.0490    0.1650   -2.3270 ha        1 21P      0.130000
     39 H3          4.5480   -1.4370    1.9890 hc        1 21P      0.107000
     40 H3A         4.9060    0.1270    2.0590 hc        1 21P      0.107000
     41 H6          6.1190    0.7800   -0.2420 hc        1 21P      0.084750
     42 H6A         4.8840    1.8020   -0.3290 hc        1 21P      0.084750
     43 H6B         5.2460    0.8710   -1.5840 hc        1 21P      0.084750
     44 H18        -4.6990    1.1220   -4.0100 ha        1 21P      0.153000
     45 H21        -3.5250    1.8150    0.5270 ha        1 21P      0.117000
     46 H20        -5.1830    3.1690   -0.4900 ha        1 21P      0.153000
     47 H17        -3.0130   -0.2070   -3.0050 ha        1 21P      0.118000
     48 H15        -4.1690   -1.9640    0.6220 h1        1 21P      0.091500
     49 H15A       -2.8070   -2.0530    1.4820 h1        1 21P      0.091500
     50 H2          2.0300    1.3950    4.0800 hc        1 21P      0.084750
     51 H2A         3.6300    1.3080    4.0630 hc        1 21P      0.084750
     52 H2B         2.8600    2.1290    2.9190 hc        1 21P      0.084750
@<TRIPOS>BOND
     1    1    8 1   
     2    1   28 1   
     3    2   22 1   
     4    2   23 1   
     5    2   29 1   
     6    2   30 1   
     7    3   15 1   
     8    3   31 1   
     9    4   15 1   
    10    4   16 1   
    11    4   21 1   
    12    4   23 1   
    13    5   24 1   
    14    5   26 1   
    15    6   27 1   
    16    6   32 1   
    17    6   33 1   
    18    6   34 1   
    19    7   24 1   
    20    7   35 1   
    21    7   36 1   
    22    7   37 1   
    23    8   38 1   
    24    9   14 1   
    25    9   19 1   
    26   10   24 1   
    27   10   27 1   
    28   10   39 1   
    29   10   40 1   
    30   11   27 1   
    31   11   41 1   
    32   11   42 1   
    33   11   43 1   
    34   12   17 1   
    35   12   44 1   
    36   13   16 1   
    37   13   45 1   
    38   14   46 1   
    39   16   17 1   
    40   17   47 1   
    41   18   19 1   
    42   19   20 1   
    43   21   22 1   
    44   22   48 1   
    45   22   49 1   
    46   24   25 1   
    47   25   50 1   
    48   25   51 1   
    49   25   52 1   
    50   26   27 1   
@<TRIPOS>SUBSTRUCTURE
     1 21P         1 TEMP              0 ****  ****    0 ROOT
