@<TRIPOS>MOLECULE
21P
   52    55     1     0     0
SMALL
bcc


@<TRIPOS>ATOM
      1 C11        -0.7050   -1.0370   -1.6710 ca        1 21P     -0.093000
      2 C14         1.8730   -3.9710   -0.2850 c3        1 21P      0.108400
      3 C9         -1.0250   -0.5560    0.6810 ca        1 21P     -0.060000
      4 C13         1.0560   -1.7880   -0.0330 c3        1 21P      0.448200
      5 C8         -2.2230    0.0830    0.3860 ca        1 21P     -0.208200
      6 C12        -1.9110   -0.3920   -1.9590 ca        1 21P     -0.104000
      7 C19         4.3410    1.0010   -0.0840 ca        1 21P     -0.108600
      8 C3         -4.6540    1.5080    0.5570 c3        1 21P     -0.446400
      9 C18         3.9660    0.3270   -1.2500 ca        1 21P     -0.117000
     10 C21         2.5700   -0.1380    1.1180 ca        1 21P     -0.129500
     11 C20         3.6320    0.7630    1.0980 ca        1 21P     -0.117000
     12 C10        -0.2600   -1.1200   -0.3500 ca        1 21P     -0.061300
     13 C16         2.2050   -0.8160   -0.0500 ca        1 21P     -0.164300
     14 C17         2.9050   -0.5760   -1.2370 ca        1 21P     -0.129500
     15 O2          6.1210    2.1500   -1.1910 o         1 21P     -0.829300
     16 O1          5.8110    2.5550    0.9840 o         1 21P     -0.829300
     17 O4          0.9440   -2.4530    1.2420 os        1 21P     -0.436600
     18 C15         1.6560   -3.6900    1.2010 c3        1 21P      0.108400
     19 O3          1.2640   -2.8710   -0.9620 os        1 21P     -0.436600
     20 SI1        -3.2880    0.8560    1.6010 Si        1 21P      0.611200
     21 C2         -2.4470    2.2030    2.5070 c3        1 21P     -0.288100
     22 C7         -2.6680    0.1660   -0.9370 ca        1 21P     -0.199200
     23 SI2        -4.2210    1.0290   -1.1600 Si        1 21P      0.607200
     24 H11        -0.0980   -1.4790   -2.4760 ha        1 21P      0.144000
     25 H14         2.9570   -4.0070   -0.5600 h1        1 21P      0.052200
     26 H14A        1.3470   -4.8910   -0.6430 h1        1 21P      0.052200
     27 H9         -0.6570   -0.6290    1.7170 ha        1 21P      0.141000
     28 H5         -6.4300    0.5130   -2.1290 hc        1 21P      0.044367
     29 H5A        -5.1520   -0.5450   -2.8180 hc        1 21P      0.044367
     30 H5B        -5.7980   -0.8710   -1.1750 hc        1 21P      0.044367
     31 H1         -3.0990   -0.9590    3.2610 hc        1 21P      0.046533
     32 H1A        -4.4560    0.1510    3.6560 hc        1 21P      0.046533
     33 H1B        -4.6420   -1.0690    2.3500 hc        1 21P      0.046533
     34 H12        -2.2490   -0.3290   -3.0050 ha        1 21P      0.116000
     35 H3         -5.6350    1.0810    0.8630 hc        1 21P      0.067700
     36 H3A        -4.7450    2.6120    0.6590 hc        1 21P      0.067700
     37 H6         -5.0340    2.9640   -2.4540 hc        1 21P      0.044367
     38 H6A        -3.4060    3.2780   -1.7630 hc        1 21P      0.044367
     39 H6B        -3.5780    2.2360   -3.2130 hc        1 21P      0.044367
     40 H18         4.5320    0.5280   -2.1740 ha        1 21P      0.153000
     41 H21         2.0160   -0.3300    2.0490 ha        1 21P      0.117500
     42 H20         3.9380    1.3050    2.0080 ha        1 21P      0.153000
     43 H17         2.6140   -1.1100   -2.1530 ha        1 21P      0.117500
     44 H15         1.0040   -4.4460    1.7040 h1        1 21P      0.052200
     45 H15A        2.6190   -3.5680    1.7580 h1        1 21P      0.052200
     46 H2         -2.2540    3.0810    1.8480 hc        1 21P      0.046533
     47 H2A        -3.0570    2.5590    3.3690 hc        1 21P      0.046533
     48 H2B        -1.4620    1.8710    2.9080 hc        1 21P      0.046533
     49 C5         -5.5080   -0.0600   -1.8810 c3        1 21P     -0.286600
     50 C1         -3.9250   -0.3560    2.8180 c3        1 21P     -0.288100
     51 C6         -4.0460    2.4990   -2.2370 c3        1 21P     -0.286600
     52 C22         5.5110    1.9760   -0.0980 c         1 21P      0.906200
@<TRIPOS>BOND
     1    1    6 ar  
     2    1   12 ar  
     3    1   24 1   
     4    2   18 1   
     5    2   19 1   
     6    2   25 1   
     7    2   26 1   
     8    3    5 ar  
     9    3   12 ar  
    10    3   27 1   
    11    4   12 1   
    12    4   13 1   
    13    4   17 1   
    14    4   19 1   
    15    5   20 1   
    16    5   22 ar  
    17    6   22 ar  
    18    6   34 1   
    19    7    9 ar  
    20    7   11 ar  
    21    7   52 1   
    22    8   20 1   
    23    8   23 1   
    24    8   35 1   
    25    8   36 1   
    26    9   14 ar  
    27    9   40 1   
    28   10   11 ar  
    29   10   13 ar  
    30   10   41 1   
    31   11   42 1   
    32   13   14 ar  
    33   14   43 1   
    34   15   52 1   
    35   16   52 1   
    36   17   18 1   
    37   18   44 1   
    38   18   45 1   
    39   20   21 1   
    40   20   50 1   
    41   21   46 1   
    42   21   47 1   
    43   21   48 1   
    44   22   23 1   
    45   23   49 1   
    46   23   51 1   
    47   28   49 1   
    48   29   49 1   
    49   30   49 1   
    50   31   50 1   
    51   32   50 1   
    52   33   50 1   
    53   37   51 1   
    54   38   51 1   
    55   39   51 1   
@<TRIPOS>SUBSTRUCTURE
     1 21P         1 TEMP              0 ****  ****    0 ROOT
