@<TRIPOS>MOLECULE
21P
   52    54     1     0     0
SMALL
bcc


@<TRIPOS>ATOM
      1 C11        -0.0360   -0.2540    0.1520 ca        1 21P     -0.105000
      2 C14        -2.5830    1.8370    0.3060 c3        1 21P     -0.105000
      3 C9         -0.0110   -0.0730    2.5650 ca        1 21P     -0.060000
      4 C13        -2.2350   -0.3060    1.3730 c3        1 21P      0.276000
      5 C8          1.3770   -0.0140    2.5450 ca        1 21P     -0.400000
      6 C12         1.3590   -0.1950    0.1390 ca        1 21P     -0.101000
      7 C19        -3.7040   -4.3770    0.9670 c2        1 21P     -0.148000
      8 C3          4.0990    0.1280    3.2770 c3        1 21P     -0.835000
      9 C18        -3.3690   -3.6700   -0.2290 c1        1 21P     -0.047000
     10 C21        -2.8630   -2.5260    2.3260 c2        1 21P     -0.125000
     11 C20        -3.3720   -3.8660    2.1870 c2        1 21P     -0.094000
     12 C10        -0.7260   -0.1930    1.3660 ca        1 21P     -0.089000
     13 C16        -2.6780   -1.7420    1.2380 c2        1 21P     -0.167000
     14 C17        -2.9230   -2.2810   -0.1230 c3        1 21P     -0.183000
     15 O2         -5.6360   -5.7490    0.6800 o         1 21P     -0.558000
     16 O1         -3.6770   -6.7620    1.0700 o         1 21P     -0.558000
     17 O4         -2.7250    0.3240    2.5480 oh        1 21P     -0.366000
     18 C15        -3.5210    2.6840    1.0080 c1        1 21P     -0.075000
     19 O3         -2.8530    0.4330    0.3190 os        1 21P     -0.324000
     20 Si1         2.4120    0.1260    4.0030 Si        1 21P      1.268000
     21 C2          2.1830   -1.2800    5.1470 c3        1 21P     -0.560500
     22 C7          2.0650   -0.0760    1.3290 ca        1 21P     -0.386000
     23 Si2         3.8530   -0.0050    1.4640 Si        1 21P      1.265000
     24 H11        -0.6030   -0.3550   -0.7870 ha        1 21P      0.143000
     25 H14        -1.5500    2.0590    0.7080 h1        1 21P      0.148500
     26 H14A       -2.6070    2.1120   -0.7910 h1        1 21P      0.148500
     27 H9         -0.5690   -0.0280    3.5150 ha        1 21P      0.143000
     28 H5          5.6510    1.4370    0.5890 hc        1 21P      0.085500
     29 H5A         4.2240    2.4070    1.0880 hc        1 21P      0.085500
     30 H5B         4.1940    1.5010   -0.4610 hc        1 21P      0.085500
     31 H1          1.0040    1.8130    5.1250 hc        1 21P      0.086500
     32 H1A         2.6250    1.6980    5.8910 hc        1 21P      0.086500
     33 H1B         2.4260    2.5730    4.3350 hc        1 21P      0.086500
     34 H12         1.8900   -0.2520   -0.8240 ha        1 21P      0.122000
     35 H3          4.6520    1.0570    3.5440 hc        1 21P      0.109000
     36 H3A         4.7050   -0.7210    3.6660 hc        1 21P      0.109000
     37 H6          4.4000   -2.4090    1.3930 hc        1 21P      0.085500
     38 H6A         4.3240   -1.7080   -0.2560 hc        1 21P      0.085500
     39 H6B         5.7600   -1.4080    0.7800 hc        1 21P      0.085500
     40 H18        -1.9720   -2.1980   -0.7270 hc        1 21P      0.145000
     41 H21        -2.6650   -2.1500    3.3420 ha        1 21P      0.116000
     42 H20        -3.5070   -4.4590    3.1050 ha        1 21P      0.136000
     43 H17        -3.6890   -1.6400   -0.6530 hc        1 21P      0.145000
     44 H15        -4.3020    2.1860    1.6010 ha        1 21P      0.056000
     45 H15A       -3.6270    0.0080    2.6850 ho        1 21P      0.223000
     46 H2          2.7350   -1.1240    6.1020 hc        1 21P      0.086500
     47 H2A         2.5470   -2.2350    4.7020 hc        1 21P      0.086500
     48 H2B         1.1080   -1.4270    5.4040 hc        1 21P      0.086500
     49 C5          4.5370    1.4570    0.5980 c3        1 21P     -0.559500
     50 C1          2.0910    1.6820    4.9140 c3        1 21P     -0.560500
     51 C6          4.6510   -1.5060    0.7900 c3        1 21P     -0.559500
     52 C22        -4.3920   -5.7400    0.8820 c2        1 21P      0.380000
@<TRIPOS>BOND
     1    1    6 1   
     2    1   12 1   
     3    1   24 1   
     4    2   18 1   
     5    2   19 1   
     6    2   25 1   
     7    2   26 1   
     8    3    5 1   
     9    3   12 1   
    10    3   27 1   
    11    4   12 1   
    12    4   13 1   
    13    4   17 1   
    14    4   19 1   
    15    5   20 1   
    16    5   22 1   
    17    6   22 1   
    18    6   34 1   
    19    7    9 1   
    20    7   11 1   
    21    7   52 1   
    22    8   20 1   
    23    8   23 1   
    24    8   35 1   
    25    8   36 1   
    26    9   14 1   
    27   10   11 1   
    28   10   13 1   
    29   10   41 1   
    30   11   42 1   
    31   13   14 1   
    32   14   40 1   
    33   14   43 1   
    34   15   52 1   
    35   16   52 1   
    36   17   45 1   
    37   18   44 1   
    38   20   21 1   
    39   20   50 1   
    40   21   46 1   
    41   21   47 1   
    42   21   48 1   
    43   22   23 1   
    44   23   49 1   
    45   23   51 1   
    46   28   49 1   
    47   29   49 1   
    48   30   49 1   
    49   31   50 1   
    50   32   50 1   
    51   33   50 1   
    52   37   51 1   
    53   38   51 1   
    54   39   51 1   
@<TRIPOS>SUBSTRUCTURE
     1 21P         1 TEMP              0 ****  ****    0 ROOT
