@<TRIPOS>MOLECULE
21Q
   58    57     1     0     0
SMALL
bcc


@<TRIPOS>ATOM
      1 C1         -0.2840   -0.6610    0.2690 c2        1 21Q     -0.110000
      2 C2          0.9080   -0.0690    0.3970 ce        1 21Q     -0.194200
      3 C3          1.7700   -0.1500    1.5420 cc        1 21Q      0.155200
      4 N6          3.0620   -0.8820    3.3160 na        1 21Q     -0.193100
      5 C7          2.0950   -1.2860    2.3530 cd        1 21Q     -0.320900
      6 C8          1.6660   -2.6220    2.1220 c         1 21Q      0.598700
      7 C11         2.2860   -5.0830    2.2520 ce        1 21Q     -0.180000
      8 C12         2.2090   -5.3830    0.8460 ce        1 21Q      0.192000
      9 C13         2.2130   -6.6120    0.2740 cf        1 21Q     -0.628100
     10 C14         0.9100   -8.3530    2.9710 c1        1 21Q      0.127500
     11 C15         1.4050   -7.2620    3.0720 ch        1 21Q     -0.352300
     12 C16         1.9220   -5.9740    3.2640 cf        1 21Q      0.465400
     13 O17         2.0550   -5.5260    4.5420 oh        1 21Q     -0.489100
     14 C22         3.9520   -8.8140   -1.2220 c3        1 21Q      0.114800
     15 C24         4.5750   -6.5290   -1.9180 c3        1 21Q      0.114800
     16 O28         2.5520    2.4400    0.2320 o         1 21Q     -0.500100
     17 C4          2.5390    0.9500    2.0510 cc        1 21Q     -0.259600
     18 C5          3.2710    0.4860    3.1710 cd        1 21Q      0.081400
     19 C26         4.1600    1.2600    4.0590 c3        1 21Q     -0.082800
     20 C29         2.6020    3.4530    2.4020 c3        1 21Q     -0.199100
     21 C23         4.9280   -9.6740   -2.0010 c3        1 21Q     -0.136100
     22 C25         4.5330   -5.6120   -3.1270 c3        1 21Q     -0.136100
     23 N10         2.6670   -3.7120    2.6080 n4        1 21Q     -0.547600
     24 N21         3.5170   -7.5760   -1.9250 n4        1 21Q     -0.627300
     25 O9          0.6690   -3.0630    1.5650 o         1 21Q     -0.455100
     26 O19         1.0820   -8.0940   -1.3730 o         1 21Q     -0.563800
     27 O20         1.6240   -5.8270   -2.0240 o         1 21Q     -0.563800
     28 S18         1.8530   -6.9540   -1.2590 sy        1 21Q      1.465800
     29 H1          1.8380    1.8440   -2.0950 ha        1 21Q      0.002000
     30 H2          1.7140    2.5030   -2.0000 ha        1 21Q      0.002000
     31 H3         -0.9010   -0.5080   -0.6300 ha        1 21Q      0.139000
     32 H4         -0.7340   -1.3030    1.0400 ha        1 21Q      0.139000
     33 H5          1.2850    0.6160   -0.3970 ha        1 21Q      0.194000
     34 H6          3.1590   -1.3300    4.1960 hn        1 21Q      0.294700
     35 H7          2.1110   -4.4960    0.1720 ha        1 21Q      0.174000
     36 H8          2.3760   -7.4850    0.9420 h4        1 21Q      0.208000
     37 H9          0.4650   -9.3250    2.8850 ha        1 21Q      0.220500
     38 H10         1.7250   -6.1870    5.1840 ho        1 21Q      0.505000
     39 H11         4.4150   -8.5090   -0.2410 hx        1 21Q      0.088950
     40 H12         3.0210   -9.4250   -1.0200 hx        1 21Q      0.088950
     41 H13         5.5890   -7.0240   -1.8730 hx        1 21Q      0.088950
     42 H14         4.4390   -5.9360   -0.9690 hx        1 21Q      0.088950
     43 H15         4.9570    1.7600    3.4480 hc        1 21Q      0.090367
     44 H16         4.6540    0.6290    4.8390 hc        1 21Q      0.090367
     45 H17         3.5630    2.0600    4.5740 hc        1 21Q      0.090367
     46 H18         1.9520    3.2630    3.2900 hc        1 21Q      0.079367
     47 H19         3.6520    3.6240    2.7470 hc        1 21Q      0.079367
     48 H20         2.2480    4.3810    1.8840 hc        1 21Q      0.079367
     49 H21         5.8890   -9.1420   -2.2000 hc        1 21Q      0.083533
     50 H22         4.4920  -10.0080   -2.9750 hc        1 21Q      0.083533
     51 H23         5.1540  -10.5870   -1.3920 hc        1 21Q      0.083533
     52 H24         4.7080   -6.1790   -4.0740 hc        1 21Q      0.083533
     53 H25         5.3530   -4.8580   -3.0200 hc        1 21Q      0.083533
     54 H26         3.5590   -5.0680   -3.2080 hc        1 21Q      0.083533
     55 H27         3.5830   -3.5090    2.1960 hn        1 21Q      0.460300
     56 C27         2.5680    2.2990    1.4580 c         1 21Q      0.600700
     57 H102        2.7510   -3.6430    3.6290 hn        1 21Q      0.460300
     58 H211        3.3620   -7.8350   -2.9070 hn        1 21Q      0.457800
@<TRIPOS>BOND
     1    1    2 2   
     2    1   31 1   
     3    1   32 1   
     4    2    3 1   
     5    2   33 1   
     6    3    5 2   
     7    3   17 1   
     8    4    5 1   
     9    4   18 1   
    10    4   34 1   
    11    5    6 1   
    12    6   23 1   
    13    6   25 2   
    14    7    8 1   
    15    7   12 2   
    16    7   23 1   
    17    8    9 2   
    18    8   35 1   
    19    9   28 1   
    20    9   36 1   
    21   10   11 3   
    22   10   37 1   
    23   11   12 1   
    24   12   13 1   
    25   13   38 1   
    26   14   21 1   
    27   14   24 1   
    28   14   39 1   
    29   14   40 1   
    30   15   22 1   
    31   15   24 1   
    32   15   41 1   
    33   15   42 1   
    34   16   56 2   
    35   17   18 2   
    36   17   56 1   
    37   18   19 1   
    38   19   43 1   
    39   19   44 1   
    40   19   45 1   
    41   20   46 1   
    42   20   47 1   
    43   20   48 1   
    44   20   56 1   
    45   21   49 1   
    46   21   50 1   
    47   21   51 1   
    48   22   52 1   
    49   22   53 1   
    50   22   54 1   
    51   23   55 1   
    52   23   57 1   
    53   24   28 1   
    54   24   58 1   
    55   26   28 2   
    56   27   28 2   
    57   29   30 1   
@<TRIPOS>SUBSTRUCTURE
     1 21Q         1 TEMP              0 ****  ****    0 ROOT
