@<TRIPOS>MOLECULE
21Q
   57    58     1     0     0
SMALL
bcc


@<TRIPOS>ATOM
      1 C1          0.3830    0.1330   -0.0930 c3        1 21Q     -0.213000
      2 C2          1.8870    0.2370   -0.1860 c3        1 21Q     -0.133000
      3 C3          2.5540    0.1680    1.1220 c2        1 21Q     -0.068000
      4 N6          4.1710   -0.5390    2.7600 n2        1 21Q     -0.178000
      5 C7          3.7760   -0.7370    1.3540 c3        1 21Q     -0.083000
      6 C8          3.4780   -2.1850    0.9700 c2        1 21Q      0.355000
      7 C11         2.4700   -4.3200    1.7290 c2        1 21Q      0.048000
      8 C12         3.0780   -5.1440    0.7060 c2        1 21Q      0.104000
      9 C13         2.6740   -6.4150    0.4090 c2        1 21Q     -0.954000
     10 C14         1.5400   -7.0160    1.1810 c3        1 21Q     -0.151000
     11 C15         0.9940   -6.2300    2.2530 c1        1 21Q     -0.069000
     12 C16         1.5340   -4.9540    2.5650 c2        1 21Q      0.032000
     13 O17         1.0810   -4.2750    3.6580 oh        1 21Q     -0.225000
     14 C22         3.7820   -9.9970   -0.5880 c3        1 21Q      0.016000
     15 C24         4.9070   -6.2180   -2.5330 c3        1 21Q     -0.032000
     16 O28         0.4910    1.6350    3.5220 o         1 21Q     -0.266000
     17 C4          2.3410    0.8430    2.2860 c2        1 21Q     -0.197000
     18 C5          3.3690    0.3690    3.2750 c2        1 21Q      0.042000
     19 C26         3.4230    0.9140    4.6490 c3        1 21Q     -0.192000
     20 C29         1.3520    3.1080    1.8360 c3        1 21Q     -0.266000
     21 C23         2.4660  -10.6550   -0.9100 c3        1 21Q     -0.268000
     22 C25         5.3710   -4.7740   -2.4600 c3        1 21Q     -0.252000
     23 N10         2.8280   -2.9890    1.9040 ns        1 21Q     -0.291000
     24 N21         4.6620   -6.8240   -1.2340 n7        1 21Q     -0.895000
     25 O9          3.8020   -2.6170   -0.1530 o         1 21Q     -0.374000
     26 O19         3.5910   -8.7480    0.0770 os        1 21Q     -0.643000
     27 O20         2.3800   -7.6840   -1.7900 o         1 21Q     -0.833000
     28 S18         3.2680   -7.3510   -0.7680 s6        1 21Q      2.777000
     29 H1          2.1620    1.2140   -0.6770 hc        1 21Q      0.108000
     30 H2         -0.0260    0.9250    0.5820 hc        1 21Q      0.086333
     31 H3         -0.0680    0.2600   -1.1070 hc        1 21Q      0.086333
     32 H4          0.0760   -0.8620    0.3090 hc        1 21Q      0.086333
     33 H5          2.2800   -0.5830   -0.8490 hc        1 21Q      0.108000
     34 H6          4.6310   -0.3950    0.6960 h1        1 21Q      0.183000
     35 H7          3.9370   -4.6930    0.1590 ha        1 21Q      0.187000
     36 H8          0.6690   -7.2450    0.4850 hc        1 21Q      0.197000
     37 H9          1.8530   -8.0130    1.6330 hc        1 21Q      0.197000
     38 H10         0.4420   -4.8480    4.1240 ho        1 21Q      0.274000
     39 H11         4.4070   -9.8380   -1.5070 h1        1 21Q      0.120000
     40 H12         4.3690  -10.5930    0.1710 h1        1 21Q      0.120000
     41 H13         3.9610   -6.2840   -3.1470 h1        1 21Q      0.121500
     42 H14         5.6980   -6.8360   -3.0530 h1        1 21Q      0.121500
     43 H15         3.9970    0.2500    5.3410 hc        1 21Q      0.117667
     44 H16         3.9200    1.9180    4.6280 hc        1 21Q      0.117667
     45 H17         2.3800    1.0380    5.0390 hc        1 21Q      0.117667
     46 H18         2.2730    3.6830    2.1000 hc        1 21Q      0.113667
     47 H19         1.3740    2.8800    0.7420 hc        1 21Q      0.113667
     48 H20         0.4570    3.7370    2.0630 hc        1 21Q      0.113667
     49 H21         1.9040  -10.0830   -1.6890 hc        1 21Q      0.113333
     50 H22         1.8310  -10.7370    0.0050 hc        1 21Q      0.113333
     51 H23         2.6630  -11.6860   -1.2980 hc        1 21Q      0.113333
     52 H24         4.6270   -4.1160   -1.9470 hc        1 21Q      0.108667
     53 H25         5.5110   -4.4000   -3.5050 hc        1 21Q      0.108667
     54 H26         6.3470   -4.6900   -1.9230 hc        1 21Q      0.108667
     55 H27         2.5310   -2.5760    2.7680 hn        1 21Q      0.283000
     56 C27         1.3130    1.8400    2.6240 c2        1 21Q      0.284000
     57 H211        5.4690   -6.8020   -0.6460 hn        1 21Q      0.286000
@<TRIPOS>BOND
     1    1    2 1   
     2    1   30 1   
     3    1   31 1   
     4    1   32 1   
     5    2    3 1   
     6    2   29 1   
     7    2   33 1   
     8    3    5 1   
     9    3   17 1   
    10    4    5 1   
    11    4   18 1   
    12    5    6 1   
    13    5   34 1   
    14    6   23 1   
    15    6   25 1   
    16    7    8 1   
    17    7   12 1   
    18    7   23 1   
    19    8    9 1   
    20    8   35 1   
    21    9   10 1   
    22    9   28 1   
    23   10   11 1   
    24   10   36 1   
    25   10   37 1   
    26   11   12 1   
    27   12   13 1   
    28   13   38 1   
    29   14   21 1   
    30   14   26 1   
    31   14   39 1   
    32   14   40 1   
    33   15   22 1   
    34   15   24 1   
    35   15   41 1   
    36   15   42 1   
    37   16   56 1   
    38   17   18 1   
    39   17   56 1   
    40   18   19 1   
    41   19   43 1   
    42   19   44 1   
    43   19   45 1   
    44   20   46 1   
    45   20   47 1   
    46   20   48 1   
    47   20   56 1   
    48   21   49 1   
    49   21   50 1   
    50   21   51 1   
    51   22   52 1   
    52   22   53 1   
    53   22   54 1   
    54   23   55 1   
    55   24   28 1   
    56   24   57 1   
    57   26   28 1   
    58   27   28 1   
@<TRIPOS>SUBSTRUCTURE
     1 21Q         1 TEMP              0 ****  ****    0 ROOT
