@<TRIPOS>MOLECULE
21Q
   57    58     1     0     0
SMALL
bcc


@<TRIPOS>ATOM
      1 C1          1.2280   -0.2120   -0.6570 c3        1 21Q     -0.212000
      2 C2          2.6800   -0.3040   -0.2520 c3        1 21Q     -0.133000
      3 C3          2.8810   -0.2210    1.2020 c2        1 21Q     -0.066000
      4 N6          3.7530   -0.8090    3.3670 n2        1 21Q     -0.184000
      5 C7          3.7960   -1.2080    1.9490 c3        1 21Q     -0.079000
      6 C8          3.4020   -2.6540    1.6670 c2        1 21Q      0.355000
      7 C11         2.1320   -4.6190    2.3900 c2        1 21Q      0.022000
      8 C12         2.1490   -5.2830    1.1110 c2        1 21Q      0.127000
      9 C13         2.0470   -6.6420    0.9460 c2        1 21Q     -1.074000
     10 C14         1.9150   -7.4990    2.1660 c3        1 21Q     -0.130000
     11 C15         1.7640   -6.8070    3.4160 c1        1 21Q     -0.070000
     12 C16         1.6940   -5.3960    3.4830 c2        1 21Q      0.053000
     13 O17         1.3570   -4.7580    4.6360 oh        1 21Q     -0.215000
     14 C22         4.2230   -8.6910   -1.6570 c3        1 21Q     -0.123500
     15 C24         4.6280   -6.3280   -1.0190 c3        1 21Q     -0.123500
     16 O28         0.4440    1.8810    2.5460 o         1 21Q     -0.265000
     17 C4          2.4280    0.6700    2.1270 c2        1 21Q     -0.195000
     18 C5          2.9960    0.2630    3.4580 c2        1 21Q      0.047000
     19 C26         2.7040    1.0340    4.6870 c3        1 21Q     -0.193000
     20 C29         2.0360    2.9230    1.0860 c3        1 21Q     -0.266000
     21 C23         3.3330   -8.7900   -2.8820 c3        1 21Q     -0.256000
     22 C25         4.4970   -5.8000   -2.4330 c3        1 21Q     -0.256000
     23 N10         2.4810   -3.2780    2.5080 n         1 21Q     -0.286000
     24 N21         3.8910   -7.5860   -0.7130 n4        1 21Q     -0.424000
     25 O9          3.8800   -3.2610    0.6870 o         1 21Q     -0.388000
     26 O19         1.5470   -8.6620   -0.4300 o         1 21Q     -0.857500
     27 O20         1.6350   -6.5240   -1.5320 o         1 21Q     -0.857500
     28 S18         1.9880   -7.3520   -0.4870 s6        1 21Q      2.829000
     29 H1          3.2560    0.5330   -0.7400 hc        1 21Q      0.107000
     30 H2          0.6460   -1.0760   -0.2560 hc        1 21Q      0.086333
     31 H3          0.7680    0.7310   -0.2690 hc        1 21Q      0.086333
     32 H4          1.1450   -0.2150   -1.7710 hc        1 21Q      0.086333
     33 H5          3.1170   -1.2680   -0.6350 hc        1 21Q      0.107000
     34 H6          4.8590   -1.0850    1.5810 h1        1 21Q      0.182000
     35 H7          2.2030   -4.6300    0.2080 ha        1 21Q      0.191000
     36 H8          1.0310   -8.2090    2.0660 hc        1 21Q      0.184500
     37 H9          2.8220   -8.1690    2.2830 hc        1 21Q      0.184500
     38 H10         1.0740   -5.4310    5.2840 ho        1 21Q      0.273000
     39 H11         4.1440   -9.6590   -1.0800 hx        1 21Q      0.133000
     40 H12         5.2960   -8.5700   -1.9860 hx        1 21Q      0.133000
     41 H13         5.7230   -6.5030   -0.8040 hx        1 21Q      0.133000
     42 H14         4.2590   -5.5410   -0.2930 hx        1 21Q      0.133000
     43 H15         3.3420    1.9540    4.7060 hc        1 21Q      0.117667
     44 H16         1.6260    1.3430    4.6820 hc        1 21Q      0.117667
     45 H17         2.9110    0.4410    5.6120 hc        1 21Q      0.117667
     46 H18         2.9100    3.4210    1.5750 hc        1 21Q      0.113667
     47 H19         2.3660    2.5060    0.1030 hc        1 21Q      0.113667
     48 H20         1.2370    3.6850    0.9140 hc        1 21Q      0.113667
     49 H21         3.1990   -7.8080   -3.3990 hc        1 21Q      0.119000
     50 H22         3.8180   -9.5000   -3.6000 hc        1 21Q      0.119000
     51 H23         2.3260   -9.2030   -2.6210 hc        1 21Q      0.119000
     52 H24         3.4310   -5.6110   -2.7150 hc        1 21Q      0.119000
     53 H25         5.0490   -4.8270   -2.4810 hc        1 21Q      0.119000
     54 H26         4.9540   -6.4990   -3.1740 hc        1 21Q      0.119000
     55 H27         2.2000   -2.8260    3.3570 hn        1 21Q      0.285000
     56 C27         1.5320    1.8260    1.9660 c2        1 21Q      0.283000
     57 H211        4.2410   -7.8850    0.1990 hn        1 21Q      0.226000
@<TRIPOS>BOND
     1    1    2 1   
     2    1   30 1   
     3    1   31 1   
     4    1   32 1   
     5    2    3 1   
     6    2   29 1   
     7    2   33 1   
     8    3    5 1   
     9    3   17 1   
    10    4    5 1   
    11    4   18 1   
    12    5    6 1   
    13    5   34 1   
    14    6   23 1   
    15    6   25 1   
    16    7    8 1   
    17    7   12 1   
    18    7   23 1   
    19    8    9 1   
    20    8   35 1   
    21    9   10 1   
    22    9   28 1   
    23   10   11 1   
    24   10   36 1   
    25   10   37 1   
    26   11   12 1   
    27   12   13 1   
    28   13   38 1   
    29   14   21 1   
    30   14   24 1   
    31   14   39 1   
    32   14   40 1   
    33   15   22 1   
    34   15   24 1   
    35   15   41 1   
    36   15   42 1   
    37   16   56 1   
    38   17   18 1   
    39   17   56 1   
    40   18   19 1   
    41   19   43 1   
    42   19   44 1   
    43   19   45 1   
    44   20   46 1   
    45   20   47 1   
    46   20   48 1   
    47   20   56 1   
    48   21   49 1   
    49   21   50 1   
    50   21   51 1   
    51   22   52 1   
    52   22   53 1   
    53   22   54 1   
    54   23   55 1   
    55   24   28 1   
    56   24   57 1   
    57   26   28 1   
    58   27   28 1   
@<TRIPOS>SUBSTRUCTURE
     1 21Q         1 TEMP              0 ****  ****    0 ROOT
