@<TRIPOS>MOLECULE
21Q
   56    49     1     0     0
SMALL
bcc


@<TRIPOS>ATOM
      1 C1         -3.1180    3.4910    3.0060 c3        1 21Q     -0.204000
      2 C2         -2.5340    3.8020    1.6400 c3        1 21Q     -0.120000
      3 C3         -1.0230    3.9220    1.7500 c2        1 21Q      0.017000
      4 N6          1.1450    3.4500    1.6000 n2        1 21Q     -0.159000
      5 C7         -0.1090    2.9140    1.5050 c1        1 21Q     -0.172000
      6 C8         -0.4430    1.4600    1.1480 c1        1 21Q      0.391000
      7 C11         0.3060   -0.8590    0.5720 c1        1 21Q      0.028000
      8 C12         0.5890   -1.3430   -0.7070 c1        1 21Q     -0.011000
      9 C13         0.2870   -2.6640   -1.0360 c1        1 21Q     -0.820000
     10 C14        -0.2960   -3.4990   -0.0900 c1        1 21Q     -0.004000
     11 C15        -0.5790   -3.0150    1.1890 c1        1 21Q     -0.217000
     12 C16        -0.2770   -1.6940    1.5190 c2        1 21Q      0.089000
     13 O17        -0.4630   -1.2390    2.8380 oh        1 21Q     -0.266000
     14 C22        -0.3060   -5.7930   -2.4760 c3        1 21Q     -0.011500
     15 C24         2.1150   -5.4500   -2.9720 c3        1 21Q     -0.011500
     16 C27        -0.9350    6.4580    2.1870 c1        1 21Q      0.296000
     17 O28        -2.1370    6.6100    2.1280 o         1 21Q     -0.301000
     18 C4         -0.3300    5.0680    1.9940 c1        1 21Q     -0.233000
     19 C5          1.0170    4.7780    1.9010 c1        1 21Q      0.003000
     20 C26         2.1510    5.7530    2.1130 c2        1 21Q     -0.174000
     21 C29        -0.0230    7.6630    2.4010 c3        1 21Q     -0.266000
     22 C23        -1.0400   -6.0500   -3.7760 c3        1 21Q     -0.235000
     23 C25         2.2770   -5.7110   -4.4720 c3        1 21Q     -0.235000
     24 N10         0.6210    0.5090    0.9130 n2        1 21Q     -0.326000
     25 N21         0.7950   -4.9100   -2.7160 n3        1 21Q     -0.834000
     26 O9         -1.5990    1.1090    1.0590 o         1 21Q     -0.344000
     27 O19        -0.5340   -2.8910   -3.5810 o         1 21Q     -0.540900
     28 O20         1.6500   -2.5740   -3.3450 o         1 21Q     -0.540900
     29 S18         0.5550   -3.2590   -2.7180 s4        1 21Q      2.061800
     30 H1         -3.6460    2.6600    2.9570 hc        1 21Q      0.079667
     31 H2         -3.6980    4.2310    3.2900 hc        1 21Q      0.079667
     32 H3         -2.3930    3.3790    3.6520 hc        1 21Q      0.079667
     33 H4         -2.9050    4.6470    1.3110 hc        1 21Q      0.108000
     34 H5         -2.7600    3.0810    1.0160 hc        1 21Q      0.108000
     35 H6          1.9310    3.0010    1.4830 DU        1 21Q      0.252000
     36 H7          0.9950   -0.7610   -1.3670 ha        1 21Q      0.181000
     37 H8         -0.5060   -4.4200   -0.3190 ha        1 21Q      0.167000
     38 H9         -0.9880   -3.6020    1.8540 ha        1 21Q      0.142000
     39 H10        -0.4580   -1.9310    3.3930 ho        1 21Q      0.232000
     40 H11        -0.9160   -5.3840   -1.8330 h1        1 21Q      0.090250
     41 H12         0.0280   -6.6390   -2.1170 h1        1 21Q      0.090250
     42 H13         2.7920   -4.8090   -2.6780 h1        1 21Q      0.090250
     43 H14         2.2240   -6.2910   -2.4800 h1        1 21Q      0.090250
     44 H15         2.0220    6.2230    2.9630 ha        1 21Q      0.098333
     45 H16         3.0000    5.2670    2.1350 ha        1 21Q      0.098333
     46 H17         2.1640    6.4020    1.3790 ha        1 21Q      0.098333
     47 H18         0.4310    7.5810    3.2650 hc        1 21Q      0.100333
     48 H19        -0.5610    8.4890    2.3900 hc        1 21Q      0.100333
     49 H20         0.6410    7.6990    1.6870 hc        1 21Q      0.100333
     50 H21        -0.7120   -6.8870   -4.1780 hc        1 21Q      0.085333
     51 H22        -0.8810   -5.3080   -4.3930 hc        1 21Q      0.085333
     52 H23        -2.0010   -6.1280   -3.5990 hc        1 21Q      0.085333
     53 H24         1.7050   -5.0960   -4.9740 hc        1 21Q      0.085333
     54 H25         3.2190   -5.5690   -4.7300 hc        1 21Q      0.085333
     55 H26         2.0190   -6.6380   -4.6730 hc        1 21Q      0.085333
     56 H27         1.4920    0.7710    0.9890 hn        1 21Q      0.244000
@<TRIPOS>BOND
     1    1    2 1   
     2    1   30 1   
     3    1   31 1   
     4    1   32 1   
     5    2    3 1   
     6    2   33 1   
     7    2   34 1   
     8    3    5 1   
     9    3   18 1   
    10    4    5 1   
    11    4   19 1   
    12    6   24 1   
    13    6   26 1   
    14    7    8 1   
    15    7   12 1   
    16    8   36 1   
    17    9   10 1   
    18   10   37 1   
    19   11   12 1   
    20   11   38 1   
    21   12   13 1   
    22   13   39 1   
    23   14   22 1   
    24   14   25 1   
    25   14   40 1   
    26   14   41 1   
    27   15   23 1   
    28   15   25 1   
    29   15   42 1   
    30   15   43 1   
    31   16   17 1   
    32   16   21 1   
    33   18   19 1   
    34   20   44 1   
    35   20   45 1   
    36   20   46 1   
    37   21   47 1   
    38   21   48 1   
    39   21   49 1   
    40   22   50 1   
    41   22   51 1   
    42   22   52 1   
    43   23   53 1   
    44   23   54 1   
    45   23   55 1   
    46   24   56 1   
    47   25   29 1   
    48   27   29 1   
    49   28   29 1   
@<TRIPOS>SUBSTRUCTURE
     1 21Q         1 TEMP              0 ****  ****    0 ROOT
