@<TRIPOS>MOLECULE
21Q
   56    57     1     0     0
SMALL
bcc


@<TRIPOS>ATOM
      1 C1          3.6670    2.0830    1.9440 c3        1 21Q     -0.090100
      2 C2          3.2810    2.0580    0.4830 c3        1 21Q     -0.040100
      3 C3          3.6420    0.7880   -0.1720 cc        1 21Q     -0.006300
      4 N6          3.4280   -1.3060   -1.0600 na        1 21Q     -0.163100
      5 C7          2.7260   -0.2350   -0.4890 cd        1 21Q     -0.214900
      6 C8          1.2600   -0.2310   -0.2890 c         1 21Q      0.715700
      7 C11        -0.6690   -1.6770    0.3230 ca        1 21Q      0.018600
      8 C12        -1.6150   -0.6620    0.5490 ca        1 21Q     -0.011000
      9 C13        -2.9740   -0.9460    0.7060 ca        1 21Q     -0.377500
     10 C14        -3.4110   -2.2720    0.6590 ca        1 21Q     -0.004000
     11 C15        -2.5070   -3.3080    0.4590 ca        1 21Q     -0.217000
     12 C16        -1.1480   -3.0220    0.2860 ca        1 21Q      0.135100
     13 O17        -0.2200   -4.0190    0.0830 oh        1 21Q     -0.511100
     14 C22        -5.1600    0.4850   -1.4380 c3        1 21Q      0.226300
     15 C24        -3.4440    2.1470   -0.8560 c3        1 21Q      0.226300
     16 O28         7.3000    0.3490   -0.4430 o         1 21Q     -0.561100
     17 C4          4.9440    0.3230   -0.5800 cc        1 21Q     -0.255600
     18 C5          4.7710   -0.9770   -1.1290 cd        1 21Q     -0.004600
     19 C26         5.7950   -1.8830   -1.6840 c3        1 21Q     -0.056800
     20 C29         6.2590    2.4860   -0.4930 c3        1 21Q     -0.195100
     21 C23        -6.6080    0.9190   -1.2550 c3        1 21Q     -0.117600
     22 C25        -4.2250    3.4300   -1.0960 c3        1 21Q     -0.117600
     23 N10         0.7030   -1.4250    0.1550 n         1 21Q     -0.470100
     24 N21        -4.2340    1.0060   -0.4650 n3        1 21Q     -0.813500
     25 O9          0.5750    0.7870   -0.4980 o         1 21Q     -0.587100
     26 O19        -5.2980   -0.2780    1.3970 o         1 21Q     -0.653300
     27 O20        -3.4900    1.2160    1.9080 o         1 21Q     -0.653300
     28 S18        -4.0770    0.3110    0.9970 sy        1 21Q      1.506200
     29 H1          3.0990    1.3100    2.5150 hc        1 21Q      0.038367
     30 H2          4.7580    1.8810    2.0750 hc        1 21Q      0.038367
     31 H3          3.4350    3.0850    2.3790 hc        1 21Q      0.038367
     32 H4          2.1690    2.2180    0.3920 hc        1 21Q      0.066700
     33 H5          3.7740    2.9110   -0.0560 hc        1 21Q      0.066700
     34 H6          3.0150   -2.1110   -1.4550 hn        1 21Q      0.302700
     35 H7         -1.2800    0.3930    0.6110 ha        1 21Q      0.183000
     36 H8         -4.4840   -2.4970    0.7980 ha        1 21Q      0.165000
     37 H9         -2.8530   -4.3520    0.4350 ha        1 21Q      0.143000
     38 H10        -0.6740   -4.8720    0.1550 ho        1 21Q      0.434000
     39 H11        -5.1190   -0.6440   -1.3850 h1        1 21Q      0.049950
     40 H12        -4.8200    0.7860   -2.4710 h1        1 21Q      0.049950
     41 H13        -2.8780    1.8930   -1.8000 h1        1 21Q      0.049950
     42 H14        -2.6820    2.3390   -0.0430 h1        1 21Q      0.049950
     43 H15         5.4410   -2.3820   -2.6190 hc        1 21Q      0.067367
     44 H16         6.7250   -1.3000   -1.9100 hc        1 21Q      0.067367
     45 H17         6.0560   -2.6700   -0.9320 hc        1 21Q      0.067367
     46 H18         7.3000    2.8550   -0.6660 hc        1 21Q      0.065367
     47 H19         5.5940    2.8810   -1.2990 hc        1 21Q      0.065367
     48 H20         5.9040    2.8710    0.4950 hc        1 21Q      0.065367
     49 H21        -7.0060    0.5690   -0.2710 hc        1 21Q      0.046367
     50 H22        -6.7040    2.0300   -1.3040 hc        1 21Q      0.046367
     51 H23        -7.2230    0.4690   -2.0720 hc        1 21Q      0.046367
     52 H24        -4.9470    3.3080   -1.9380 hc        1 21Q      0.046367
     53 H25        -4.7930    3.7360   -0.1840 hc        1 21Q      0.046367
     54 H26        -3.5040    4.2420   -1.3570 hc        1 21Q      0.046367
     55 H27         1.3010   -2.1960    0.3520 hn        1 21Q      0.331500
     56 C27         6.2370    0.9900   -0.4890 c         1 21Q      0.608700
@<TRIPOS>BOND
     1    1    2 1   
     2    1   29 1   
     3    1   30 1   
     4    1   31 1   
     5    2    3 1   
     6    2   32 1   
     7    2   33 1   
     8    3    5 2   
     9    3   17 1   
    10    4    5 1   
    11    4   18 1   
    12    4   34 1   
    13    5    6 1   
    14    6   23 1   
    15    6   25 2   
    16    7    8 ar  
    17    7   12 ar  
    18    7   23 1   
    19    8    9 ar  
    20    8   35 1   
    21    9   10 ar  
    22    9   28 1   
    23   10   11 ar  
    24   10   36 1   
    25   11   12 ar  
    26   11   37 1   
    27   12   13 1   
    28   13   38 1   
    29   14   21 1   
    30   14   24 1   
    31   14   39 1   
    32   14   40 1   
    33   15   22 1   
    34   15   24 1   
    35   15   41 1   
    36   15   42 1   
    37   16   56 2   
    38   17   18 2   
    39   17   56 1   
    40   18   19 1   
    41   19   43 1   
    42   19   44 1   
    43   19   45 1   
    44   20   46 1   
    45   20   47 1   
    46   20   48 1   
    47   20   56 1   
    48   21   49 1   
    49   21   50 1   
    50   21   51 1   
    51   22   52 1   
    52   22   53 1   
    53   22   54 1   
    54   23   55 1   
    55   24   28 1   
    56   26   28 2   
    57   27   28 2   
@<TRIPOS>SUBSTRUCTURE
     1 21Q         1 TEMP              0 ****  ****    0 ROOT
