@<TRIPOS>MOLECULE
21R
   51    52     1     0     0
SMALL
bcc


@<TRIPOS>ATOM
      1 C13        -4.8350   -1.0910    0.9980 ca        1 21R      0.032400
      2 C15        -5.6470    0.0130    1.2910 ca        1 21R      0.000400
      3 C17        -5.3010    1.2700    0.7900 ca        1 21R     -0.099000
      4 C20        -4.3130    3.0910   -1.8660 c3        1 21R     -0.092100
      5 C22         1.9180    1.7740    1.1600 c3        1 21R      0.083500
      6 C24         6.7160   -1.6610    0.0650 c3        1 21R     -0.313600
      7 O01         7.7270    0.6720    0.0610 o         1 21R     -0.649300
      8 S02         6.6250   -0.0240    0.5980 s6        1 21R      1.454900
      9 N03         5.2760    0.5050   -0.1180 n3        1 21R     -0.923100
     10 C04         3.9650    0.4780    0.4790 c3        1 21R      0.235500
     11 C05         3.0240   -0.5390   -0.1920 c3        1 21R     -0.117900
     12 C06         1.6700   -0.5570    0.5230 c3        1 21R      0.083500
     13 N07         1.0480    0.7420    0.6300 n         1 21R     -0.456800
     14 C08        -0.0890    1.0950   -0.0850 c         1 21R      0.621100
     15 C09        -0.9630   -0.0120   -0.7010 c3        1 21R      0.110800
     16 C11        -3.3450    0.3330   -0.3080 ca        1 21R      0.117600
     17 C12        -3.7000   -0.9330    0.2050 ca        1 21R     -0.142000
     18 CL1        -5.2100   -2.6380    1.5890 cl        1 21R     -0.073400
     19 CL2        -7.0400   -0.1450    2.2460 cl        1 21R     -0.071400
     20 C18        -4.1610    1.4510    0.0060 ca        1 21R     -0.093300
     21 C19        -3.8310    2.8290   -0.4600 c3        1 21R     -0.055100
     22 O21        -0.4270    2.2940   -0.1860 o         1 21R     -0.614100
     23 C23         3.2800    1.8550    0.4700 c3        1 21R     -0.117900
     24 C25         7.9100   -2.3510    0.6710 c3        1 21R     -0.076100
     25 O26         6.4740   -0.0270    2.0000 o         1 21R     -0.649300
     26 H171       -5.9370    2.1390    1.0260 ha        1 21R      0.152000
     27 H201       -5.4230    2.9850   -1.9270 hc        1 21R      0.038033
     28 H202       -4.0390    4.1300   -2.1720 hc        1 21R      0.038033
     29 H203       -3.8560    2.3780   -2.5930 hc        1 21R      0.038033
     30 H221        1.4050    2.7750    1.0760 h1        1 21R      0.065200
     31 H222        2.0760    1.5480    2.2540 h1        1 21R      0.065200
     32 H241        5.7940   -2.2390    0.3370 h1        1 21R      0.103700
     33 H242        6.7980   -1.7270   -1.0520 h1        1 21R      0.103700
     34 H031        5.2960    0.9360   -1.0110 hn        1 21R      0.449800
     35 H041        4.0930    0.1680    1.5650 h1        1 21R      0.078700
     36 H051        2.8890   -0.2810   -1.2730 hc        1 21R      0.057200
     37 H052        3.4620   -1.5690   -0.1360 hc        1 21R      0.057200
     38 H061        0.9970   -1.2820   -0.0100 h1        1 21R      0.065200
     39 H062        1.8250   -0.9420    1.5740 h1        1 21R      0.065200
     40 H091       -0.3980   -0.4220   -1.5890 h1        1 21R      0.078700
     41 H092       -1.1060   -0.8360    0.0540 h1        1 21R      0.078700
     42 H101       -2.1750    1.3460   -1.6050 hn        1 21R      0.407800
     43 H121       -3.0870   -1.8170   -0.0340 ha        1 21R      0.151000
     44 H191       -2.7200    3.0060   -0.3920 hc        1 21R      0.064700
     45 H192       -4.3090    3.5750    0.2320 hc        1 21R      0.064700
     46 H231        3.1580    2.2180   -0.5830 hc        1 21R      0.057200
     47 H232        3.9070    2.6020    1.0220 hc        1 21R      0.057200
     48 H251        7.9630   -3.4120    0.3300 hc        1 21R      0.054700
     49 H253        8.8550   -1.8370    0.3640 hc        1 21R      0.054700
     50 H2          7.8410   -2.3440    1.7870 hc        1 21R      0.054700
     51 N10        -2.2440    0.4290   -1.1960 nh        1 21R     -0.694600
@<TRIPOS>BOND
     1    1    2 ar  
     2    1   17 ar  
     3    1   18 1   
     4    2    3 ar  
     5    2   19 1   
     6    3   20 ar  
     7    3   26 1   
     8    4   21 1   
     9    4   27 1   
    10    4   28 1   
    11    4   29 1   
    12    5   13 1   
    13    5   23 1   
    14    5   30 1   
    15    5   31 1   
    16    6    8 1   
    17    6   24 1   
    18    6   32 1   
    19    6   33 1   
    20    7    8 2   
    21    8    9 1   
    22    8   25 2   
    23    9   10 1   
    24    9   34 1   
    25   10   11 1   
    26   10   23 1   
    27   10   35 1   
    28   11   12 1   
    29   11   36 1   
    30   11   37 1   
    31   12   13 1   
    32   12   38 1   
    33   12   39 1   
    34   13   14 1   
    35   14   15 1   
    36   14   22 2   
    37   15   40 1   
    38   15   41 1   
    39   15   51 1   
    40   16   17 ar  
    41   16   20 ar  
    42   16   51 1   
    43   17   43 1   
    44   20   21 1   
    45   21   44 1   
    46   21   45 1   
    47   23   46 1   
    48   23   47 1   
    49   24   48 1   
    50   24   49 1   
    51   24   50 1   
    52   42   51 1   
@<TRIPOS>SUBSTRUCTURE
     1 21R         1 TEMP              0 ****  ****    0 ROOT
