@<TRIPOS>MOLECULE
21R
   53    51     1     0     0
SMALL
bcc


@<TRIPOS>ATOM
      1 C13       601.1510  134.8640 -182.9070 c2        1 21R     -0.041000
      2 C15       600.0020  134.4350 -182.2760 c2        1 21R     -0.109000
      3 C17       599.4090  135.2240 -181.2500 c1        1 21R      0.023000
      4 C20       597.9950  137.8140 -182.2750 c3        1 21R     -0.230000
      5 C22       603.9980  142.4980 -182.3720 c3        1 21R     -0.029000
      6 C24     -1688.8060 -390.1420  524.8520 c3        1 21R     -0.940000
      7 O01     -1690.4260 -390.7900  526.7200 o         1 21R     -0.821000
      8 S02     -1690.3160 -390.1010  525.5350 s6        1 21R      2.751000
      9 N03     -1690.2620 -388.3130  526.1870 n4        1 21R     -0.520000
     10 C04       602.5270  143.5930 -184.0790 c2        1 21R     -0.193000
     11 C05       601.3050  143.9140 -184.4970 c2        1 21R     -0.202000
     12 C06       604.0930  140.6030 -183.8550 c1        1 21R     -0.031000
     13 N07       603.6270  141.1150 -182.7380 n         1 21R     -0.164000
     14 C08       602.7120  140.4820 -181.8430 c2        1 21R      0.239000
     15 C09       602.4560  138.9880 -182.0640 c2        1 21R      0.012000
     16 C11       600.9470  137.0850 -181.8910 c2        1 21R     -0.108000
     17 C12       601.5910  136.2280 -182.7430 c2        1 21R     -0.070000
     18 CL1       602.0700  133.8820 -183.9120 cl        1 21R      0.101000
     19 CL2       599.2990  132.9510 -182.6100 cl        1 21R      0.125000
     20 C18       599.8260  136.5970 -181.0050 c3        1 21R     -0.129000
     21 C19       598.6010  137.5140 -180.9310 c3        1 21R     -0.139000
     22 O21       602.1300  141.0280 -180.9030 o         1 21R     -0.221000
     23 C23       602.9120  143.5320 -182.6490 c3        1 21R     -0.156000
     24 C25     -1688.5650 -391.5090  524.2280 c3        1 21R     -0.215000
     25 O26     -1691.3490 -390.0010  524.6330 o         1 21R     -0.821000
     26 H171      600.2540  136.5260 -179.9430 hc        1 21R      0.197000
     27 H201      598.7210  138.3240 -182.9530 hc        1 21R      0.090667
     28 H202      597.6500  136.8740 -182.7730 hc        1 21R      0.090667
     29 H203      597.1070  138.4820 -182.1460 hc        1 21R      0.090667
     30 H221      604.2450  142.5030 -181.2730 h1        1 21R      0.134000
     31 H222      604.9230  142.7490 -182.9670 h1        1 21R      0.134000
     32 H241    -1688.6420 -389.3840  524.0320 h1        1 21R      0.201000
     33 H242    -1687.9590 -389.9680  525.5770 h1        1 21R      0.201000
     34 H031    -1689.3930 -387.8260  525.9870 hn        1 21R      0.260000
     35 H041    -1691.0220 -387.7660  525.7780 hn        1 21R      0.260000
     36 H051      603.3410  143.3820 -184.7940 ha        1 21R      0.140000
     37 H052      601.0550  143.9880 -185.5650 ha        1 21R      0.121500
     38 H061      600.4790  144.1440 -183.8110 ha        1 21R      0.121500
     39 H062      603.7830  139.5730 -184.1350 ha        1 21R      0.041000
     40 H091      604.3420  137.3800 -183.9330 ha        1 21R      0.002500
     41 H092      604.8200  137.1660 -184.3660 ha        1 21R      0.002500
     42 H101      603.3110  138.3450 -182.3790 h4        1 21R      0.220000
     43 H121      602.4370  136.5500 -183.3820 ha        1 21R      0.169000
     44 H191      598.8730  138.4630 -180.3980 hc        1 21R      0.116500
     45 H192      597.8350  136.9930 -180.2880 hc        1 21R      0.116500
     46 H231      602.0180  143.3360 -181.9970 hc        1 21R      0.114500
     47 H232      603.3350  144.5300 -182.3410 hc        1 21R      0.114500
     48 H251    -1689.3100 -391.7150  523.4200 hc        1 21R      0.128000
     49 H253    -1688.6100 -392.3140  525.0030 hc        1 21R      0.128000
     50 H2      -1687.5450 -391.5380  523.7660 hc        1 21R      0.128000
     51 N10       601.2890  138.4640 -181.8090 n3        1 21R      0.004000
     52 H032    -1690.3930 -388.3040  527.2010 hn        1 21R      0.260000
     53 H102      600.5320  139.0620 -181.4780 hn        1 21R      0.301000
@<TRIPOS>BOND
     1    1    2 1   
     2    1   17 1   
     3    1   18 1   
     4    2    3 1   
     5    2   19 1   
     6    3   20 1   
     7    4   21 1   
     8    4   27 1   
     9    4   28 1   
    10    4   29 1   
    11    5   13 1   
    12    5   23 1   
    13    5   30 1   
    14    5   31 1   
    15    6    8 1   
    16    6   24 1   
    17    6   32 1   
    18    6   33 1   
    19    7    8 1   
    20    8    9 1   
    21    8   25 1   
    22    9   34 1   
    23    9   35 1   
    24    9   52 1   
    25   10   11 1   
    26   10   23 1   
    27   10   36 1   
    28   11   37 1   
    29   11   38 1   
    30   12   13 1   
    31   12   39 1   
    32   13   14 1   
    33   14   15 1   
    34   14   22 1   
    35   15   42 1   
    36   15   51 1   
    37   16   17 1   
    38   16   20 1   
    39   16   51 1   
    40   17   43 1   
    41   20   21 1   
    42   20   26 1   
    43   21   44 1   
    44   21   45 1   
    45   23   46 1   
    46   23   47 1   
    47   24   48 1   
    48   24   49 1   
    49   24   50 1   
    50   40   41 1   
    51   51   53 1   
@<TRIPOS>SUBSTRUCTURE
     1 21R         1 TEMP              0 ****  ****    0 ROOT
