@<TRIPOS>MOLECULE
21R
   52    52     1     0     0
SMALL
bcc


@<TRIPOS>ATOM
      1 C13        -2.5520   -0.2720    2.1840 ce        1 21R      0.185400
      2 C15        -1.2020   -0.8040    2.0060 ce        1 21R     -0.112700
      3 C17        -0.2090   -0.1200    1.4980 c1        1 21R      0.003200
      4 C20         3.1790    1.1210    1.2350 c3        1 21R     -0.100100
      5 C22        -4.5400   -0.8970    8.0440 c3        1 21R      0.071000
      6 C24        -8.9000    0.2660    4.4020 c3        1 21R     -0.330600
      7 O01        -7.5450   -1.7130    3.4610 o         1 21R     -0.679800
      8 S02        -7.6190   -0.3110    3.4730 s6        1 21R      1.315000
      9 N03        -6.8260   -3.1990    6.0550 n8        1 21R     -0.916800
     10 C04        -5.9150   -2.1160    6.3250 c3        1 21R      0.194500
     11 C05        -4.7080   -2.0190    5.3630 c3        1 21R     -0.147400
     12 C06        -3.9100   -0.7460    5.7010 c3        1 21R      0.011400
     13 N07        -3.4640   -0.6900    7.0830 n         1 21R     -0.440800
     14 C08        -2.1700   -1.0730    7.4240 c         1 21R      0.674500
     15 C09        -1.0890   -1.0800    6.3380 c3        1 21R     -0.097700
     16 C11        -2.7970   -0.5810    4.6680 cf        1 21R      0.449600
     17 C12        -3.2490   -0.2100    3.3450 cf        1 21R     -0.352600
     18 Cl1        -3.2880    0.2800    0.7670 cl        1 21R      0.004600
     19 Cl2        -1.0130   -2.4590    2.3980 cl        1 21R     -0.068400
     20 C18         0.7910    0.5330    0.9780 c2        1 21R     -0.087300
     21 C19         1.7750    1.3390    1.7450 c3        1 21R     -0.054200
     22 O21        -1.8210   -1.3220    8.5870 o         1 21R     -0.559500
     23 C23        -5.3940   -2.1320    7.7690 c3        1 21R     -0.112400
     24 C25       -10.2530    0.0750    3.7670 c3        1 21R     -0.079100
     25 O26        -6.4030    0.3100    3.8520 o         1 21R     -0.679800
     26 H171        0.9360    0.5140   -0.1230 ha        1 21R      0.183000
     27 H201        3.4820    0.0520    1.3450 hc        1 21R      0.053367
     28 H202        3.2590    1.4020    0.1570 hc        1 21R      0.053367
     29 H203        3.8930    1.7530    1.8180 hc        1 21R      0.053367
     30 H221       -4.0910   -0.9740    9.0760 h1        1 21R      0.087200
     31 H222       -5.1880    0.0260    8.0060 h1        1 21R      0.087200
     32 H241       -8.9140   -0.2560    5.4030 h1        1 21R      0.137700
     33 H242       -8.7760    1.3570    4.6500 h1        1 21R      0.137700
     34 H031       -7.9660    0.1140    2.3830 hs        1 21R     -0.005200
     35 H041       -7.1500   -3.1760    5.1060 hn        1 21R      0.377300
     36 H051       -6.5120   -1.1610    6.1810 h1        1 21R      0.041700
     37 H052       -4.0660   -2.9300    5.4520 hc        1 21R      0.071200
     38 H061       -5.0810   -1.9390    4.3070 hc        1 21R      0.071200
     39 H062       -4.6130    0.1440    5.5530 h1        1 21R      0.146700
     40 H091       -0.6370   -2.1180    6.3150 h1        1 21R      0.125700
     41 H092       -0.2850   -0.3490    6.6540 h1        1 21R      0.125700
     42 H101       -0.7940   -0.6190    4.3200 hn        1 21R      0.329700
     43 H121       -4.3020    0.1660    3.3290 ha        1 21R      0.233000
     44 H191        1.7270    1.0950    2.8390 hc        1 21R      0.063700
     45 H192        1.4960    2.4240    1.6310 hc        1 21R      0.063700
     46 H231       -4.8020   -3.0650    7.9570 hc        1 21R      0.076200
     47 H232       -6.2570   -2.1280    8.4860 hc        1 21R      0.076200
     48 H251      -10.4290   -1.0040    3.5310 hc        1 21R      0.063033
     49 H253      -11.0600    0.4100    4.4640 hc        1 21R      0.063033
     50 H2        -10.3400    0.6740    2.8270 hc        1 21R      0.063033
     51 N10        -1.5260   -0.7340    5.0030 nu        1 21R     -0.244100
     52 H032       -6.4190   -4.0880    6.2600 hn        1 21R      0.377300
@<TRIPOS>BOND
     1    1    2 1   
     2    1   17 2   
     3    1   18 1   
     4    2    3 2   
     5    2   19 1   
     6    3   20 2   
     7    4   21 1   
     8    4   27 1   
     9    4   28 1   
    10    4   29 1   
    11    5   13 1   
    12    5   23 1   
    13    5   30 1   
    14    5   31 1   
    15    6    8 1   
    16    6   24 1   
    17    6   32 1   
    18    6   33 1   
    19    7    8 2   
    20    8   25 2   
    21    8   34 1   
    22    9   10 1   
    23    9   35 1   
    24    9   52 1   
    25   10   11 1   
    26   10   23 1   
    27   10   36 1   
    28   11   12 1   
    29   11   37 1   
    30   11   38 1   
    31   12   13 1   
    32   12   16 1   
    33   12   39 1   
    34   13   14 1   
    35   14   15 1   
    36   14   22 2   
    37   15   40 1   
    38   15   41 1   
    39   15   51 1   
    40   16   17 1   
    41   16   51 2   
    42   17   43 1   
    43   20   21 1   
    44   20   26 1   
    45   21   44 1   
    46   21   45 1   
    47   23   46 1   
    48   23   47 1   
    49   24   48 1   
    50   24   49 1   
    51   24   50 1   
    52   42   51 1   
@<TRIPOS>SUBSTRUCTURE
     1 21R         1 TEMP              0 ****  ****    0 ROOT
