@<TRIPOS>MOLECULE
21R
   51    49     1     0     0
SMALL
bcc


@<TRIPOS>ATOM
      1 C13         5.8210    0.6990   -1.8880 c1        1 21R     -0.063000
      2 C15         6.6270   -0.0230   -1.0080 c1        1 21R     -0.063000
      3 C17         6.2320   -0.1940    0.3130 c1        1 21R     -0.101000
      4 C20         5.6800    0.2390    3.1380 c3        1 21R     -0.209000
      5 C22        -2.0030    1.9090    0.6340 c3        1 21R     -0.033500
      6 C24        -6.3180   -2.8550   -0.0880 c3        1 21R     -0.854000
      7 O01        -5.4040   -1.5520   -2.2230 o         1 21R     -0.537400
      8 S02        -5.5190   -1.4290   -0.7970 s4        1 21R      2.026800
      9 N03        -4.0300   -1.1890   -0.0890 n2        1 21R     -0.896000
     10 C04        -3.2560    0.0010   -0.4100 c3        1 21R      0.040000
     11 C05        -1.9990   -0.4120   -1.1210 c3        1 21R     -0.197500
     12 C06        -1.0390    0.7610   -1.3290 c3        1 21R     -0.033500
     13 N07        -0.7790    1.4930   -0.0830 n         1 21R     -0.314000
     14 C08         0.5510    1.7770    0.4000 c2        1 21R      0.264000
     15 C09         1.7680    1.3880   -0.4380 c3        1 21R     -0.077000
     16 N10         2.9750    1.6320    0.3200 n3        1 21R     -0.249000
     17 C11         4.2300    1.0770   -0.1310 c2        1 21R      0.030000
     18 C12         4.6260    1.2460   -1.4460 c1        1 21R     -0.144000
     19 CL1         6.3420    0.9580   -3.5430 cl        1 21R      0.005500
     20 CL2         8.1910   -0.5980   -1.5330 cl        1 21R      0.005500
     21 C18         5.0370    0.3530    0.7550 c2        1 21R     -0.081000
     22 C19         4.5440    0.0610    2.1610 c3        1 21R     -0.141000
     23 O21         0.7000    2.3870    1.4420 o         1 21R     -0.377000
     24 C23        -2.9680    0.7480    0.8540 c3        1 21R     -0.197500
     25 C25        -7.5660   -3.1990   -0.9020 c3        1 21R     -0.194000
     26 O26        -6.3500   -0.2510   -0.6810 o         1 21R     -0.537400
     27 H171        6.8040   -0.7070    0.9390 ha        1 21R      0.155000
     28 H201        6.2460    0.9780    2.8470 hc        1 21R      0.077333
     29 H202        6.2120   -0.5850    3.1740 hc        1 21R      0.077333
     30 H203        5.3210    0.4340    4.0250 hc        1 21R      0.077333
     31 H221       -2.4540    2.6010    0.1140 h1        1 21R      0.104500
     32 H222       -1.7440    2.2880    1.5210 h1        1 21R      0.104500
     33 H241       -5.6990   -3.6180   -0.1010 h1        1 21R      0.144500
     34 H242       -6.5760   -2.6590    0.8410 h1        1 21R      0.144500
     35 H031       -3.7000   -1.8010    0.4960 hn        1 21R      0.246000
     36 H041       -3.7870    0.5780   -1.0080 h1        1 21R      0.116000
     37 H051       -2.2390   -0.7880   -1.9990 hc        1 21R      0.097500
     38 H052       -1.5470   -1.1030   -0.5910 hc        1 21R      0.097500
     39 H061       -1.4250    1.3740   -1.9790 h1        1 21R      0.104500
     40 H062       -0.1760    0.4130   -1.6860 h1        1 21R      0.104500
     41 H091        1.7140    0.4350   -0.6680 h1        1 21R      0.119000
     42 H092        1.7840    1.9280   -1.2670 h1        1 21R      0.119000
     43 H101        2.9630    2.2220    1.0190 hn        1 21R      0.201000
     44 H121        4.0600    1.7550   -2.0690 ha        1 21R      0.151000
     45 H191        3.8260    0.6720    2.3850 hc        1 21R      0.105000
     46 H192        4.2180   -0.8530    2.2080 hc        1 21R      0.105000
     47 H231       -2.5750    0.1250    1.5110 hc        1 21R      0.097500
     48 H232       -3.8210    1.1030    1.2170 hc        1 21R      0.097500
     49 H251       -7.9700   -4.0300   -0.5500 hc        1 21R      0.093333
     50 H253       -7.3150   -3.3310   -1.8530 hc        1 21R      0.093333
     51 H2         -8.2160   -2.4620   -0.8330 hc        1 21R      0.093333
@<TRIPOS>BOND
     1    1    2 1   
     2    1   19 1   
     3    2   20 1   
     4    3   21 1   
     5    3   27 1   
     6    4   22 1   
     7    4   28 1   
     8    4   29 1   
     9    4   30 1   
    10    5   13 1   
    11    5   24 1   
    12    5   31 1   
    13    5   32 1   
    14    6    8 1   
    15    6   25 1   
    16    6   33 1   
    17    6   34 1   
    18    7    8 1   
    19    8   26 1   
    20    9   10 1   
    21    9   35 1   
    22   10   11 1   
    23   10   24 1   
    24   10   36 1   
    25   11   12 1   
    26   11   37 1   
    27   11   38 1   
    28   12   13 1   
    29   12   39 1   
    30   12   40 1   
    31   13   14 1   
    32   14   15 1   
    33   14   23 1   
    34   15   16 1   
    35   15   41 1   
    36   15   42 1   
    37   16   17 1   
    38   16   43 1   
    39   17   18 1   
    40   17   21 1   
    41   18   44 1   
    42   21   22 1   
    43   22   45 1   
    44   22   46 1   
    45   24   47 1   
    46   24   48 1   
    47   25   49 1   
    48   25   50 1   
    49   25   51 1   
@<TRIPOS>SUBSTRUCTURE
     1 21R         1 TEMP              0 ****  ****    0 ROOT
