@<TRIPOS>MOLECULE
21S
   47    47     1     0     0
SMALL
bcc


@<TRIPOS>ATOM
      1 C10        -1.1180   -1.6580    0.6570 c1        1 21S     -0.111000
      2 C13        -2.4050    0.2600   -0.7480 c3        1 21S     -0.875000
      3 C17         5.3970    2.7720    0.4820 c3        1 21S     -0.245000
      4 C20         5.4810   -3.2330    1.8600 ca        1 21S     -0.094000
      5 C24         6.3450   -4.2430    2.5260 ca        1 21S     -0.073000
      6 C02         4.4680   -2.7270    3.9950 ca        1 21S     -0.039000
      7 C03         4.5290   -2.4680    2.6390 ca        1 21S      0.031000
      8 N04         3.6530   -1.5490    2.0060 nh        1 21S     -0.262000
      9 C05         4.0530   -0.1580    2.1280 c3        1 21S     -0.090000
     10 C06         2.9540    0.8040    1.6640 c2        1 21S      0.316000
     11 N07         3.2400    2.1400    1.5780 n         1 21S     -0.350000
     12 C08         0.3850   -1.1710    2.4270 c2        1 21S      0.221000
     13 C09        -0.0210   -2.0200    1.4200 c2        1 21S     -0.327000
     14 N11        -1.6290   -2.4110   -0.4440 n4        1 21S     -0.478000
     15 S12        -3.0580   -1.2740   -0.8530 s6        1 21S      2.785000
     16 C14        -3.3580    1.2760   -1.3400 c3        1 21S     -0.214000
     17 O15        -4.0010   -1.5830    0.1050 o         1 21S     -0.861500
     18 O16        -3.2760   -1.6500   -2.1700 o         1 21S     -0.861500
     19 C18         4.5470    2.7200    1.7430 c3        1 21S     -0.037000
     20 O19         1.7820    0.4280    1.3990 o         1 21S     -0.455000
     21 N21         5.7120   -3.1570    0.5410 n2        1 21S     -0.356000
     22 S22         6.8820   -4.2350    0.1890 ss        1 21S      0.687000
     23 N23         7.1660   -4.8590    1.6650 n2        1 21S     -0.284000
     24 C25         6.2160   -4.4330    3.9430 ca        1 21S     -0.003000
     25 CL2         7.1960   -5.5690    4.7100 cl        1 21S      0.066000
     26 C27         5.3030   -3.6900    4.6390 ca        1 21S     -0.122000
     27 H101        4.8900    3.3550   -0.3230 hc        1 21S      0.092000
     28 H131       -2.1850    0.5600    0.3190 h1        1 21S      0.193000
     29 H132       -1.4150    0.3690   -1.2710 h1        1 21S      0.193000
     30 H171        6.3660    3.2730    0.7250 hc        1 21S      0.092000
     31 H172        5.6140    1.7480    0.0940 hc        1 21S      0.092000
     32 H041        4.2630    0.0630    3.2150 h1        1 21S      0.119500
     33 H051        3.5020   -1.7880    1.0420 hn        1 21S      0.195000
     34 H052        4.9910    0.0630    1.5360 h1        1 21S      0.119500
     35 H081        2.5260    2.7340    1.2160 hn        1 21S      0.241000
     36 H082        1.2450   -1.4190    3.0750 ha        1 21S      0.164000
     37 H091       -0.1460   -0.2260    2.6360 ha        1 21S      0.164000
     38 H092        0.5510   -2.9500    1.2440 ha        1 21S      0.145000
     39 H111       -1.9450   -3.3440   -0.1630 hn        1 21S      0.243000
     40 H141       -3.5750    1.0420   -2.4130 hc        1 21S      0.115000
     41 H142       -2.9000    2.2950   -1.2950 hc        1 21S      0.115000
     42 H1         -4.3170    1.3060   -0.7650 hc        1 21S      0.115000
     43 H181        4.3960    3.7740    2.1210 h1        1 21S      0.102500
     44 H182        5.1050    2.1530    2.5430 h1        1 21S      0.102500
     45 H271        5.1930   -3.8250    5.7310 ha        1 21S      0.179000
     46 H112       -0.9600   -2.5470   -1.2030 hn        1 21S      0.243000
     47 CL1         3.3720   -1.8920    4.9960 cl        1 21S      0.005000
@<TRIPOS>BOND
     1    1   13 1   
     2    1   14 1   
     3    2   15 1   
     4    2   16 1   
     5    2   28 1   
     6    2   29 1   
     7    3   19 1   
     8    3   27 1   
     9    3   30 1   
    10    3   31 1   
    11    4    5 1   
    12    4    7 1   
    13    4   21 1   
    14    5   23 1   
    15    5   24 1   
    16    6    7 1   
    17    6   26 1   
    18    6   47 1   
    19    7    8 1   
    20    8    9 1   
    21    8   33 1   
    22    9   10 1   
    23    9   32 1   
    24    9   34 1   
    25   10   11 1   
    26   10   20 1   
    27   11   19 1   
    28   11   35 1   
    29   12   13 1   
    30   12   36 1   
    31   12   37 1   
    32   13   38 1   
    33   14   15 1   
    34   14   39 1   
    35   14   46 1   
    36   15   17 1   
    37   15   18 1   
    38   16   40 1   
    39   16   41 1   
    40   16   42 1   
    41   19   43 1   
    42   19   44 1   
    43   21   22 1   
    44   22   23 1   
    45   24   25 1   
    46   24   26 1   
    47   26   45 1   
@<TRIPOS>SUBSTRUCTURE
     1 21S         1 TEMP              0 ****  ****    0 ROOT
