@<TRIPOS>MOLECULE
21S
   48    49     1     0     0
SMALL
bcc


@<TRIPOS>ATOM
      1 C10        -0.1000   -0.0700    0.0490 c3        1 21S     -0.027000
      2 C13        -2.0500    2.6980   -1.9420 c3        1 21S     -0.936000
      3 C17         1.3450   -0.5140   -0.2270 c3        1 21S     -0.195000
      4 C20         7.3200   -2.9620    2.9630 c2        1 21S     -0.020000
      5 C24         8.7160   -3.2020    3.4550 c2        1 21S     -0.117000
      6 C02         6.6600   -1.8260    5.1190 c3        1 21S      0.053000
      7 C03         6.2940   -2.5280    3.8530 c2        1 21S     -0.361000
      8 N04         4.9460   -2.9940    3.6250 n4        1 21S      0.082000
      9 C05         4.1950   -2.0710    2.7140 c3        1 21S     -0.148000
     10 C06         2.7050   -2.4340    2.6900 c2        1 21S      0.286000
     11 N07         1.8400   -1.7370    1.8880 n         1 21S     -0.369000
     12 C08        -1.6510   -1.0820    1.7140 c2        1 21S     -0.104000
     13 C09        -0.9000   -1.2050    0.6190 c2        1 21S     -0.294000
     14 N11        -0.7710    0.4510   -1.1940 n4        1 21S     -0.481000
     15 S12        -2.3540    1.4880   -0.8480 s6        1 21S      2.750000
     16 C14        -3.2120    3.6820   -1.9440 c3        1 21S     -0.216000
     17 O15        -2.1750    1.8600    0.4660 o         1 21S     -0.827500
     18 O16        -3.3250    0.5980   -1.2420 o         1 21S     -0.827500
     19 C18         2.1750   -0.6170    1.0580 c3        1 21S     -0.014000
     20 O19         2.2800   -3.3620    3.4090 o         1 21S     -0.345000
     21 N21         7.2160   -3.2360    1.6530 n2        1 21S     -0.405000
     22 S22         8.7000   -3.6430    1.1070 ss        1 21S      0.808000
     23 N23         9.5610   -3.5310    2.4760 n2        1 21S     -0.259000
     24 C25         8.9620   -3.0500    4.8910 c2        1 21S      0.028000
     25 CL2        10.2960   -3.6900    5.6350 cl        1 21S      0.195000
     26 C27         7.9940   -2.3070    5.4110 c1        1 21S      0.064000
     27 H101        1.3450   -1.4940   -0.7740 hc        1 21S      0.119000
     28 H131       -1.1210    3.3020   -1.7280 h1        1 21S      0.199000
     29 H132       -1.9290    2.3500   -3.0090 h1        1 21S      0.199000
     30 H171       -0.0790    0.8010    0.7780 hx        1 21S      0.154000
     31 H172        1.8660    0.2410   -0.8760 hc        1 21S      0.119000
     32 H041        4.6450   -2.1570    1.6830 hx        1 21S      0.168500
     33 H051        4.9540   -3.9320    3.1970 hn        1 21S      0.260000
     34 H052        4.3290   -1.0160    3.0870 hx        1 21S      0.168500
     35 H081        0.8770   -2.0080    1.9360 hn        1 21S      0.261000
     36 H082       -2.2060   -1.9370    2.1340 ha        1 21S      0.157500
     37 H091       -1.7710   -0.1320    2.2620 ha        1 21S      0.157500
     38 H092       -0.8060   -2.1650    0.0820 ha        1 21S      0.160000
     39 H111       -1.0410   -0.3550   -1.7630 hn        1 21S      0.242500
     40 H141       -4.1630    3.1740   -2.2430 hc        1 21S      0.130000
     41 H142       -3.3330    4.1570   -0.9390 hc        1 21S      0.130000
     42 H1         -3.0150    4.4980   -2.6850 hc        1 21S      0.130000
     43 H181        2.0480    0.3380    1.6500 h1        1 21S      0.101000
     44 H182        3.2590   -0.6870    0.7500 h1        1 21S      0.101000
     45 H271        6.7130   -0.7040    4.9620 h1        1 21S      0.194000
     46 H042        4.4310   -3.0650    4.5210 hn        1 21S      0.260000
     47 H112       -0.0880    0.9810   -1.7290 hn        1 21S      0.242500
     48 CL1         5.5440   -2.0790    6.4420 cl        1 21S      0.027000
@<TRIPOS>BOND
     1    1    3 1   
     2    1   13 1   
     3    1   14 1   
     4    1   30 1   
     5    2   15 1   
     6    2   16 1   
     7    2   28 1   
     8    2   29 1   
     9    3   19 1   
    10    3   27 1   
    11    3   31 1   
    12    4    5 1   
    13    4    7 1   
    14    4   21 1   
    15    5   23 1   
    16    5   24 1   
    17    6    7 1   
    18    6   26 1   
    19    6   45 1   
    20    6   48 1   
    21    7    8 1   
    22    8    9 1   
    23    8   33 1   
    24    8   46 1   
    25    9   10 1   
    26    9   32 1   
    27    9   34 1   
    28   10   11 1   
    29   10   20 1   
    30   11   19 1   
    31   11   35 1   
    32   12   13 1   
    33   12   36 1   
    34   12   37 1   
    35   13   38 1   
    36   14   15 1   
    37   14   39 1   
    38   14   47 1   
    39   15   17 1   
    40   15   18 1   
    41   16   40 1   
    42   16   41 1   
    43   16   42 1   
    44   19   43 1   
    45   19   44 1   
    46   21   22 1   
    47   22   23 1   
    48   24   25 1   
    49   24   26 1   
@<TRIPOS>SUBSTRUCTURE
     1 21S         1 TEMP              0 ****  ****    0 ROOT
