@<TRIPOS>MOLECULE
21S
   47    48     1     0     0
SMALL
bcc


@<TRIPOS>ATOM
      1 C10         0.0220   -0.0970    0.3860 c3        1 21S      0.177700
      2 C13        -1.4450    2.5370   -2.0190 c3        1 21S     -0.385600
      3 C17         1.5320   -0.3320    0.5080 c3        1 21S     -0.138400
      4 C20         6.7630   -2.6220    2.4520 ca        1 21S     -0.072000
      5 C24         8.2290   -2.7990    2.6700 ca        1 21S     -0.057000
      6 C02         6.5330   -2.0470    4.7920 ca        1 21S     -0.036600
      7 C03         5.9150   -2.2270    3.5610 ca        1 21S      0.167600
      8 N04         4.5560   -1.9330    3.3600 nu        1 21S     -0.710600
      9 C05         3.7890   -2.7840    2.4750 c3        1 21S      0.120800
     10 C06         2.2900   -2.7620    2.7860 c         1 21S      0.634100
     11 N07         1.5610   -1.5850    2.6820 ns        1 21S     -0.572900
     12 C08        -1.7880   -1.2820    1.6120 c2        1 21S     -0.114000
     13 C09        -0.7460   -1.3220    0.7800 c2        1 21S     -0.279200
     14 N11        -0.3560    0.3120   -1.0210 ny        1 21S     -0.727900
     15 S12        -1.9920    1.2210   -1.1490 s6        1 21S      1.384900
     16 C14        -2.6080    3.4700   -2.3110 c3        1 21S     -0.095100
     17 O15        -2.3170    1.5290    0.1560 o         1 21S     -0.554300
     18 O16        -2.7350    0.3360   -1.9030 o         1 21S     -0.554300
     19 C18         1.9750   -0.4150    1.9800 c3        1 21S      0.100000
     20 O19         1.7000   -3.7920    3.1520 o         1 21S     -0.565100
     21 N21         6.4140   -2.8600    1.1810 nc        1 21S     -0.317500
     22 S22         7.7650   -3.2650    0.3630 ss        1 21S      0.574000
     23 N23         8.8740   -3.1580    1.5540 nc        1 21S     -0.251500
     24 C25         8.7710   -2.5760    3.9800 ca        1 21S      0.040400
     25 Cl2        10.4290   -2.7720    4.2260 cl        1 21S     -0.027400
     26 C27         7.9360   -2.2100    4.9950 ca        1 21S     -0.084000
     27 H101        1.8220   -1.2680   -0.0350 hc        1 21S      0.068700
     28 H131       -0.6630    3.1510   -1.4870 h1        1 21S      0.153200
     29 H132       -0.9840    2.2760   -3.0140 h1        1 21S      0.153200
     30 H171       -0.2620    0.7780    1.0510 hx        1 21S      0.110700
     31 H172        2.0950    0.5250    0.0500 hc        1 21S      0.068700
     32 H041        4.1120   -3.8650    2.5270 h1        1 21S      0.083700
     33 H051        4.0790   -1.7610    4.2280 hn        1 21S      0.411800
     34 H052        3.9330   -2.4250    1.4150 h1        1 21S      0.083700
     35 H081        0.5870   -1.6570    2.8850 hn        1 21S      0.312500
     36 H082       -2.1920   -0.3460    2.0290 ha        1 21S      0.152500
     37 H091       -2.3060   -2.2010    1.9310 ha        1 21S      0.152500
     38 H092       -0.3530   -2.2740    0.3840 ha        1 21S      0.162000
     39 H111       -0.4160   -0.5450   -1.5800 hn        1 21S      0.452800
     40 H141       -3.3880    2.9520   -2.9240 hc        1 21S      0.085033
     41 H142       -2.2480    4.3540   -2.8930 hc        1 21S      0.085033
     42 H1         -3.0630    3.8470   -1.3610 hc        1 21S      0.085033
     43 H181        1.5630    0.4850    2.5250 h1        1 21S      0.081200
     44 H182        3.1000   -0.3320    1.9860 h1        1 21S      0.081200
     45 H271        8.3340   -2.0370    6.0110 ha        1 21S      0.176000
     46 H112        0.4140    0.8590   -1.4030 hn        1 21S      0.452800
     47 Cl1         5.6250   -1.6030    6.1630 cl        1 21S     -0.071400
@<TRIPOS>BOND
     1    1    3 1   
     2    1   13 1   
     3    1   14 1   
     4    1   30 1   
     5    2   15 1   
     6    2   16 1   
     7    2   28 1   
     8    2   29 1   
     9    3   19 1   
    10    3   27 1   
    11    3   31 1   
    12    4    5 ar  
    13    4    7 ar  
    14    4   21 2   
    15    5   23 2   
    16    5   24 ar  
    17    6    7 ar  
    18    6   26 ar  
    19    6   47 1   
    20    7    8 1   
    21    8    9 1   
    22    8   33 1   
    23    9   10 1   
    24    9   32 1   
    25    9   34 1   
    26   10   11 1   
    27   10   20 2   
    28   11   19 1   
    29   11   35 1   
    30   12   13 2   
    31   12   36 1   
    32   12   37 1   
    33   13   38 1   
    34   14   15 1   
    35   14   39 1   
    36   14   46 1   
    37   15   17 2   
    38   15   18 2   
    39   16   40 1   
    40   16   41 1   
    41   16   42 1   
    42   19   43 1   
    43   19   44 1   
    44   21   22 1   
    45   22   23 1   
    46   24   25 1   
    47   24   26 ar  
    48   26   45 1   
@<TRIPOS>SUBSTRUCTURE
     1 21S         1 TEMP              0 ****  ****    0 ROOT
