@<TRIPOS>MOLECULE
21S
   46    44     1     0     0
SMALL
bcc


@<TRIPOS>ATOM
      1 C10        -1.9870    1.5210   -1.0600 c3        1 21S      0.039000
      2 C13        -4.2220    1.7300   -4.5940 c3        1 21S     -0.854000
      3 C17        -0.4990    1.4650   -1.0430 c3        1 21S     -0.197500
      4 C20         3.6920   -3.2940    2.3420 c1        1 21S     -0.099000
      5 C24         4.9640   -4.0180    2.5500 c1        1 21S     -0.057000
      6 CL1         5.4030    0.3100    3.5950 cl        1 21S     -0.003000
      7 C02         4.8040   -1.2030    2.9650 c2        1 21S     -0.112000
      8 C03         3.6360   -1.9090    2.5530 c2        1 21S      0.108000
      9 N04         2.2560   -1.6030    2.6400 n3        1 21S     -0.254000
     10 C05         1.7310   -0.4520    1.9590 c3        1 21S     -0.070000
     11 C06         0.2050   -0.5150    1.9650 c2        1 21S      0.269000
     12 N07        -0.5600    0.4440    1.2040 n         1 21S     -0.315000
     13 C08        -2.0160    0.4780    1.2040 c3        1 21S     -0.034500
     14 C09        -2.5930    0.4710   -0.2010 c3        1 21S     -0.197500
     15 N11        -2.4550    1.3410   -2.4300 n3        1 21S     -0.896000
     16 S12        -3.5880    2.3670   -3.0530 s6        1 21S      2.810000
     17 C14        -5.0910    2.7980   -5.2640 c3        1 21S     -0.194000
     18 O15        -3.0550    3.6940   -3.2170 o         1 21S     -0.929500
     19 O16        -4.6470    2.6050   -2.1180 o         1 21S     -0.929500
     20 C18         0.0560    1.4630    0.3700 c3        1 21S     -0.034500
     21 O19        -0.3690   -1.3490    2.6490 o         1 21S     -0.359000
     22 N21         2.6910   -4.2420    2.0200 n1        1 21S     -0.302500
     23 S22         3.3170   -5.5780    2.0190 ss        1 21S      0.630000
     24 N23         4.7260   -5.4070    2.3510 n1        1 21S     -0.302500
     25 C25         6.1150   -3.3130    2.9580 c1        1 21S     -0.045000
     26 CL2         7.4160   -4.4500    3.2480 cl        1 21S      0.030000
     27 C27         6.0520   -1.9150    3.1680 c2        1 21S     -0.086000
     28 H101       -2.2680    2.3760   -0.7470 h1        1 21S      0.116000
     29 H131       -3.4740    1.4980   -5.1860 h1        1 21S      0.144500
     30 H132       -4.7700    0.9190   -4.4190 h1        1 21S      0.144500
     31 H171       -0.2060    0.6480   -1.5000 hc        1 21S      0.097000
     32 H172       -0.1430    2.2470   -1.5260 hc        1 21S      0.097000
     33 H041        1.6870   -2.1670    3.0970 hn        1 21S      0.234000
     34 H051        2.0590   -0.4430    1.0230 h1        1 21S      0.121000
     35 H052        2.0320    0.3730    2.4230 h1        1 21S      0.121000
     36 H081       -2.3480   -0.3030    1.6840 h1        1 21S      0.105500
     37 H082       -2.3160    1.2860    1.6670 h1        1 21S      0.105500
     38 H091       -3.5670    0.6240   -0.1480 hc        1 21S      0.097000
     39 H092       -2.4300   -0.4130   -0.6100 hc        1 21S      0.097000
     40 H111       -2.1940    0.6140   -2.9060 hn        1 21S      0.245000
     41 H141       -5.3870    2.4770   -6.1360 hc        1 21S      0.093667
     42 H142       -4.5620    3.6290   -5.3800 hc        1 21S      0.093667
     43 H1         -5.8740    2.9850   -4.6990 hc        1 21S      0.093667
     44 H181       -0.1010    2.3410    0.7740 h1        1 21S      0.105500
     45 H182        1.0280    1.2970    0.3320 h1        1 21S      0.105500
     46 H271        6.8510   -1.4290    3.4780 ha        1 21S      0.167000
@<TRIPOS>BOND
     1    1    3 1   
     2    1   14 1   
     3    1   15 1   
     4    1   28 1   
     5    2   16 1   
     6    2   17 1   
     7    2   29 1   
     8    2   30 1   
     9    3   20 1   
    10    3   31 1   
    11    3   32 1   
    12    4    8 1   
    13    5   25 1   
    14    6    7 1   
    15    7    8 1   
    16    7   27 1   
    17    8    9 1   
    18    9   10 1   
    19    9   33 1   
    20   10   11 1   
    21   10   34 1   
    22   10   35 1   
    23   11   12 1   
    24   11   21 1   
    25   12   13 1   
    26   12   20 1   
    27   13   14 1   
    28   13   36 1   
    29   13   37 1   
    30   14   38 1   
    31   14   39 1   
    32   15   16 1   
    33   15   40 1   
    34   16   18 1   
    35   16   19 1   
    36   17   41 1   
    37   17   42 1   
    38   17   43 1   
    39   20   44 1   
    40   20   45 1   
    41   22   23 1   
    42   23   24 1   
    43   25   27 1   
    44   27   46 1   
@<TRIPOS>SUBSTRUCTURE
     1 21S         1 TEMP              0 ****  ****    0 ROOT
