@<TRIPOS>MOLECULE
21S
   46    48     1     0     0
SMALL
bcc


@<TRIPOS>ATOM
      1 C10         4.0340   -0.1720    0.3110 c3        1 21S      0.235500
      2 C13         6.2250    0.6000   -2.3230 c3        1 21S     -0.313600
      3 C17         2.9120   -0.5280   -0.6820 c3        1 21S     -0.118900
      4 C20        -3.7010    0.3600    0.9660 ca        1 21S     -0.099000
      5 C24        -4.6040    1.3660    0.3390 ca        1 21S     -0.057000
      6 C02        -3.1590   -0.4920   -1.2310 ca        1 21S     -0.034600
      7 C03        -2.9480   -0.5710    0.1380 ca        1 21S      0.190600
      8 N04        -2.1540   -1.5560    0.7440 nh        1 21S     -0.698600
      9 C05        -0.7750   -1.6790    0.3290 c3        1 21S      0.116800
     10 C06         0.2500   -1.3630    1.4310 c         1 21S      0.625100
     11 N07         1.6000   -1.5670    1.1660 n         1 21S     -0.456800
     12 C08         2.5920   -1.1420    2.1350 c3        1 21S      0.081500
     13 C09         3.4060    0.0750    1.6940 c3        1 21S     -0.118900
     14 N11         4.8460    0.9320   -0.1360 n3        1 21S     -0.923100
     15 S12         6.3830    0.8070   -0.6190 s6        1 21S      1.454900
     16 C14         7.5770    0.4230   -2.9630 c3        1 21S     -0.076100
     17 O15         6.9770   -0.3560   -0.0880 o         1 21S     -0.649300
     18 O16         7.0330    2.0370   -0.3870 o         1 21S     -0.649300
     19 C18         2.1250   -1.7360   -0.1690 c3        1 21S      0.081500
     20 O19        -0.1220   -1.0060    2.5670 o         1 21S     -0.596100
     21 N21        -3.7010    0.4480    2.3030 nc        1 21S     -0.274500
     22 S22        -4.7140    1.6540    2.7180 ss        1 21S      0.569000
     23 N23        -5.2160    2.1410    1.2400 nc        1 21S     -0.267500
     24 C25        -4.7140    1.3880   -1.0910 ca        1 21S      0.033400
     25 CL2        -5.7140    2.5390   -1.8210 cl        1 21S     -0.048400
     26 C27        -4.0130    0.4810   -1.8320 ca        1 21S     -0.086000
     27 H101        4.7140   -1.0770    0.4030 h1        1 21S      0.078700
     28 H131        5.5910   -0.2890   -2.5770 h1        1 21S      0.103700
     29 H132        5.7190    1.4800   -2.8000 h1        1 21S      0.103700
     30 H171        2.2300    0.3490   -0.8220 hc        1 21S      0.057200
     31 H172        3.3460   -0.7900   -1.6810 hc        1 21S      0.057200
     32 H041       -2.2480   -1.5870    1.7460 hn        1 21S      0.439800
     33 H051       -0.6290   -2.7550    0.0160 h1        1 21S      0.080200
     34 H052       -0.5560   -1.0100   -0.5510 h1        1 21S      0.080200
     35 H081        2.0840   -0.9080    3.1140 h1        1 21S      0.066200
     36 H082        3.2920   -2.0110    2.2990 h1        1 21S      0.066200
     37 H091        4.2080    0.2530    2.4550 hc        1 21S      0.057200
     38 H092        2.7530    0.9850    1.6630 hc        1 21S      0.057200
     39 H111        4.3900    1.8110   -0.0720 hn        1 21S      0.449800
     40 H141        7.4720    0.2820   -4.0660 hc        1 21S      0.054700
     41 H142        8.2140    1.3250   -2.7850 hc        1 21S      0.054700
     42 H1          8.0950   -0.4750   -2.5420 hc        1 21S      0.054700
     43 H181        1.3040   -1.9710   -0.9000 h1        1 21S      0.066200
     44 H182        2.8180   -2.6290   -0.1420 h1        1 21S      0.066200
     45 H271       -4.1010    0.4780   -2.9330 ha        1 21S      0.167000
     46 CL1        -2.4230   -1.5850   -2.3110 cl        1 21S     -0.083400
@<TRIPOS>BOND
     1    1    3 1   
     2    1   13 1   
     3    1   14 1   
     4    1   27 1   
     5    2   15 1   
     6    2   16 1   
     7    2   28 1   
     8    2   29 1   
     9    3   19 1   
    10    3   30 1   
    11    3   31 1   
    12    4    5 ar  
    13    4    7 ar  
    14    4   21 2   
    15    5   23 2   
    16    5   24 ar  
    17    6    7 ar  
    18    6   26 ar  
    19    6   46 1   
    20    7    8 1   
    21    8    9 1   
    22    8   32 1   
    23    9   10 1   
    24    9   33 1   
    25    9   34 1   
    26   10   11 1   
    27   10   20 2   
    28   11   12 1   
    29   11   19 1   
    30   12   13 1   
    31   12   35 1   
    32   12   36 1   
    33   13   37 1   
    34   13   38 1   
    35   14   15 1   
    36   14   39 1   
    37   15   17 2   
    38   15   18 2   
    39   16   40 1   
    40   16   41 1   
    41   16   42 1   
    42   19   43 1   
    43   19   44 1   
    44   21   22 1   
    45   22   23 1   
    46   24   25 1   
    47   24   26 ar  
    48   26   45 1   
@<TRIPOS>SUBSTRUCTURE
     1 21S         1 TEMP              0 ****  ****    0 ROOT
