@<TRIPOS>MOLECULE
21T
   62    66     1     0     0
SMALL
bcc


@<TRIPOS>ATOM
      1 C1          0.1720   -0.1510    1.0800 c3        1 21T     -0.100100
      2 C2          1.5880   -0.4910    0.6230 c3        1 21T     -0.000700
      3 C3          2.5490   -0.3930    1.8070 c3        1 21T     -0.100100
      4 C7          2.7960    1.4820   -2.3590 cc        1 21T      0.299200
      5 C8          1.9030    2.6200    0.8740 ca        1 21T     -0.099200
      6 C9          0.6120    3.1360    1.0930 ca        1 21T     -0.130000
      7 C10         0.3740    3.8960    2.2340 ca        1 21T     -0.105500
      8 C11         1.4000    4.1650    3.1450 ca        1 21T     -0.089600
      9 C12         2.6890    3.6840    2.8910 ca        1 21T     -0.105500
     10 C13         2.9570    2.9220    1.7580 ca        1 21T     -0.130000
     11 C14         1.1160    4.9740    4.4150 c         1 21T      0.909200
     12 C15         2.4180   -1.0140   -2.5770 c         1 21T      0.643700
     13 C16         3.3350   -1.3880   -4.9170 c3        1 21T      0.120500
     14 C19         3.5870   -1.2430   -7.8120 c3        1 21T     -0.068200
     15 C20         4.8340   -0.3750   -7.9560 c3        1 21T     -0.074400
     16 C21         5.3520    0.0060   -6.5720 c3        1 21T     -0.068200
     17 C22         2.5100   -0.4700   -7.0600 c3        1 21T     -0.078400
     18 C24         4.4650   -2.1390   -5.6540 c3        1 21T     -0.076200
     19 C4          1.5920   -1.9360    0.1390 c3        1 21T     -0.100100
     20 C5          2.0170    0.4560   -0.4610 cd        1 21T      0.086400
     21 C6          2.4200    0.1850   -1.8150 cc        1 21T     -0.455900
     22 N1          2.6190    2.4350   -1.4290 nd        1 21T     -0.437800
     23 N2          2.1690    1.8330   -0.3080 na        1 21T      0.223300
     24 O1          2.0860    5.1690    5.1940 o         1 21T     -0.800300
     25 O2         -0.0670    5.3710    4.5840 o         1 21T     -0.800300
     26 O3          1.6360   -1.9500   -2.6790 o         1 21T     -0.464100
     27 N3          3.6670   -1.1520   -3.4740 n4        1 21T     -0.684800
     28 C17         3.0240   -0.0790   -5.6740 c3        1 21T     -0.076200
     29 C18         4.2720    0.7820   -5.8270 c3        1 21T     -0.078400
     30 C23         5.7000   -1.2580   -5.7940 c3        1 21T     -0.078400
     31 C25         3.9380   -2.5090   -7.0390 c3        1 21T     -0.078400
     32 H1          0.1480    0.8380    1.6010 hc        1 21T      0.053478
     33 H2         -0.5250   -0.1220    0.2090 hc        1 21T      0.053478
     34 H3         -0.1810   -0.9320    1.7960 hc        1 21T      0.053478
     35 H4          2.5010    0.6170    2.2830 hc        1 21T      0.053478
     36 H5          2.2640   -1.1510    2.5770 hc        1 21T      0.053478
     37 H6          3.5960   -0.5930    1.4780 hc        1 21T      0.053478
     38 H7          3.1240    1.7200   -3.3720 h4        1 21T      0.041100
     39 H8         -0.2020    2.9460    0.3780 ha        1 21T      0.126000
     40 H9         -0.6290    4.3070    2.4460 ha        1 21T      0.176500
     41 H10         3.4870    3.9300    3.6140 ha        1 21T      0.176500
     42 H11         3.9770    2.5630    1.5640 ha        1 21T      0.126000
     43 H12         2.4080   -2.0410   -4.9210 hx        1 21T      0.116700
     44 H13         3.2030   -1.5220   -8.8300 hc        1 21T      0.074200
     45 H16         6.2690    0.6450   -6.6760 hc        1 21T      0.074200
     46 H18         1.5840   -1.0930   -6.9640 hc        1 21T      0.057575
     47 H19         4.7280   -3.0810   -5.0990 hc        1 21T      0.067200
     48 H20         1.4110   -2.6150    1.0090 hc        1 21T      0.053478
     49 H21         0.7790   -2.1070   -0.6080 hc        1 21T      0.053478
     50 H22         2.5760   -2.2040   -0.3130 hc        1 21T      0.053478
     51 H24         4.2050   -1.9530   -3.1310 hn        1 21T      0.448800
     52 H25         2.2260    0.4960   -5.1310 hc        1 21T      0.067200
     53 H26         4.6600    1.1210   -4.8320 hc        1 21T      0.057575
     54 H27         4.0070    1.7070   -6.4060 hc        1 21T      0.057575
     55 H28         6.4970   -1.8280   -6.3410 hc        1 21T      0.057575
     56 H29         6.1130   -0.9900   -4.7880 hc        1 21T      0.057575
     57 H30         3.0360   -3.1650   -6.9440 hc        1 21T      0.057575
     58 H31         4.7270   -3.0850   -7.5880 hc        1 21T      0.057575
     59 H14         5.6250   -0.9350   -8.5170 hc        1 21T      0.057700
     60 H15         4.5880    0.5510   -8.5370 hc        1 21T      0.057700
     61 H32         4.2470   -0.3120   -3.3850 hn        1 21T      0.448800
     62 H17         2.2420    0.4600   -7.6250 hc        1 21T      0.057575
@<TRIPOS>BOND
     1    1    2 1   
     2    1   32 1   
     3    1   33 1   
     4    1   34 1   
     5    2    3 1   
     6    2   19 1   
     7    2   20 1   
     8    3   35 1   
     9    3   36 1   
    10    3   37 1   
    11    4   21 1   
    12    4   22 2   
    13    4   38 1   
    14    5    6 ar  
    15    5   10 ar  
    16    5   23 1   
    17    6    7 ar  
    18    6   39 1   
    19    7    8 ar  
    20    7   40 1   
    21    8    9 ar  
    22    8   11 1   
    23    9   10 ar  
    24    9   41 1   
    25   10   42 1   
    26   11   24 1   
    27   11   25 1   
    28   12   21 1   
    29   12   26 2   
    30   12   27 1   
    31   13   18 1   
    32   13   27 1   
    33   13   28 1   
    34   13   43 1   
    35   14   15 1   
    36   14   17 1   
    37   14   31 1   
    38   14   44 1   
    39   15   16 1   
    40   15   59 1   
    41   15   60 1   
    42   16   29 1   
    43   16   30 1   
    44   16   45 1   
    45   17   28 1   
    46   17   46 1   
    47   17   62 1   
    48   18   30 1   
    49   18   31 1   
    50   18   47 1   
    51   19   48 1   
    52   19   49 1   
    53   19   50 1   
    54   20   21 2   
    55   20   23 1   
    56   22   23 1   
    57   27   51 1   
    58   27   61 1   
    59   28   29 1   
    60   28   52 1   
    61   29   53 1   
    62   29   54 1   
    63   30   55 1   
    64   30   56 1   
    65   31   57 1   
    66   31   58 1   
@<TRIPOS>SUBSTRUCTURE
     1 21T         1 TEMP              0 ****  ****    0 ROOT
