@<TRIPOS>MOLECULE
21T
   62    66     1     0     0
SMALL
bcc


@<TRIPOS>ATOM
      1 C1          0.1640   -0.1700    1.0720 c3        1 21T     -0.100100
      2 C2          1.5830   -0.5020    0.6190 c3        1 21T     -0.000700
      3 C3          2.5400   -0.4000    1.8050 c3        1 21T     -0.100100
      4 C7          2.7910    1.4820   -2.3570 cc        1 21T      0.299200
      5 C8          1.8800    2.6110    0.8740 ca        1 21T     -0.099200
      6 C9          0.5850    3.1190    1.0890 ca        1 21T     -0.130000
      7 C10         0.3380    3.8760    2.2300 ca        1 21T     -0.105500
      8 C11         1.3600    4.1500    3.1450 ca        1 21T     -0.089600
      9 C12         2.6530    3.6770    2.8950 ca        1 21T     -0.105500
     10 C13         2.9280    2.9180    1.7630 ca        1 21T     -0.130000
     11 C14         1.0660    4.9560    4.4150 c         1 21T      0.909200
     12 C15         2.4270   -1.0160   -2.5790 c         1 21T      0.643700
     13 C16         3.3530   -1.3820   -4.9170 c3        1 21T      0.120500
     14 C19         3.6140   -1.2310   -7.8110 c3        1 21T     -0.068200
     15 C20         4.8560   -0.3560   -7.9500 c3        1 21T     -0.074400
     16 C21         5.3670    0.0260   -6.5640 c3        1 21T     -0.068200
     17 C22         2.5300   -0.4660   -7.0610 c3        1 21T     -0.078400
     18 C24         4.4900   -2.1260   -5.6510 c3        1 21T     -0.076200
     19 C4          1.5960   -1.9460    0.1320 c3        1 21T     -0.100100
     20 C5          2.0110    0.4490   -0.4640 cd        1 21T      0.086400
     21 C6          2.4190    0.1820   -1.8160 cc        1 21T     -0.455900
     22 N1          2.6050    2.4320   -1.4270 nd        1 21T     -0.437800
     23 N2          2.1550    1.8260   -0.3070 na        1 21T      0.223300
     24 O1          2.0320    5.1550    5.1970 o         1 21T     -0.800300
     25 O2         -0.1190    5.3460    4.5800 o         1 21T     -0.800300
     26 O3          1.6510   -1.9560   -2.6860 o         1 21T     -0.464100
     27 N3          3.6790   -1.1460   -3.4730 n4        1 21T     -0.684800
     28 C17         3.0370   -0.0740   -5.6740 c3        1 21T     -0.076200
     29 C18         4.2810    0.7950   -5.8220 c3        1 21T     -0.078400
     30 C23         5.7210   -1.2370   -5.7870 c3        1 21T     -0.078400
     31 C25         3.9700   -2.4960   -7.0390 c3        1 21T     -0.078400
     32 H1         -0.1870   -0.9550    1.7850 hc        1 21T      0.053478
     33 H2         -0.5300   -0.1430    0.1980 hc        1 21T      0.053478
     34 H3          0.1330    0.8180    1.5940 hc        1 21T      0.053478
     35 H4          2.2570   -1.1610    2.5730 hc        1 21T      0.053478
     36 H5          3.5890   -0.5940    1.4790 hc        1 21T      0.053478
     37 H6          2.4860    0.6090    2.2820 hc        1 21T      0.053478
     38 H7          3.1210    1.7230   -3.3690 h4        1 21T      0.041100
     39 H8         -0.2250    2.9250    0.3710 ha        1 21T      0.126000
     40 H9         -0.6680    4.2810    2.4390 ha        1 21T      0.176500
     41 H10         3.4460    3.9260    3.6220 ha        1 21T      0.176500
     42 H11         3.9520    2.5640    1.5720 ha        1 21T      0.126000
     43 H12         2.4300   -2.0400   -4.9250 hx        1 21T      0.116700
     44 H13         3.2350   -1.5110   -8.8310 hc        1 21T      0.074200
     45 H16         6.2810    0.6710   -6.6640 hc        1 21T      0.074200
     46 H18         1.6070   -1.0940   -6.9690 hc        1 21T      0.057575
     47 H19         4.7570   -3.0660   -5.0960 hc        1 21T      0.067200
     48 H20         2.5830   -2.2080   -0.3160 hc        1 21T      0.053478
     49 H21         1.4150   -2.6270    1.0000 hc        1 21T      0.053478
     50 H22         0.7870   -2.1200   -0.6170 hc        1 21T      0.053478
     51 H24         4.2540   -0.3030   -3.3810 hn        1 21T      0.448800
     52 H25         2.2340    0.4960   -5.1320 hc        1 21T      0.067200
     53 H26         4.0120    1.7180   -6.4000 hc        1 21T      0.057575
     54 H27         4.6640    1.1350   -4.8250 hc        1 21T      0.057575
     55 H28         6.1280   -0.9680   -4.7790 hc        1 21T      0.057575
     56 H29         6.5230   -1.8010   -6.3320 hc        1 21T      0.057575
     57 H30         4.7640   -3.0670   -7.5860 hc        1 21T      0.057575
     58 H31         3.0710   -3.1580   -6.9470 hc        1 21T      0.057575
     59 H14         4.6070    0.5690   -8.5300 hc        1 21T      0.057700
     60 H15         5.6520   -0.9110   -8.5090 hc        1 21T      0.057700
     61 H32         4.2200   -1.9450   -3.1300 hn        1 21T      0.448800
     62 H17         2.2580    0.4630   -7.6260 hc        1 21T      0.057575
@<TRIPOS>BOND
     1    1    2 1   
     2    1   32 1   
     3    1   33 1   
     4    1   34 1   
     5    2    3 1   
     6    2   19 1   
     7    2   20 1   
     8    3   35 1   
     9    3   36 1   
    10    3   37 1   
    11    4   21 1   
    12    4   22 2   
    13    4   38 1   
    14    5    6 ar  
    15    5   10 ar  
    16    5   23 1   
    17    6    7 ar  
    18    6   39 1   
    19    7    8 ar  
    20    7   40 1   
    21    8    9 ar  
    22    8   11 1   
    23    9   10 ar  
    24    9   41 1   
    25   10   42 1   
    26   11   24 1   
    27   11   25 1   
    28   12   21 1   
    29   12   26 2   
    30   12   27 1   
    31   13   18 1   
    32   13   27 1   
    33   13   28 1   
    34   13   43 1   
    35   14   15 1   
    36   14   17 1   
    37   14   31 1   
    38   14   44 1   
    39   15   16 1   
    40   15   59 1   
    41   15   60 1   
    42   16   29 1   
    43   16   30 1   
    44   16   45 1   
    45   17   28 1   
    46   17   46 1   
    47   17   62 1   
    48   18   30 1   
    49   18   31 1   
    50   18   47 1   
    51   19   48 1   
    52   19   49 1   
    53   19   50 1   
    54   20   21 2   
    55   20   23 1   
    56   22   23 1   
    57   27   51 1   
    58   27   61 1   
    59   28   29 1   
    60   28   52 1   
    61   29   53 1   
    62   29   54 1   
    63   30   55 1   
    64   30   56 1   
    65   31   57 1   
    66   31   58 1   
@<TRIPOS>SUBSTRUCTURE
     1 21T         1 TEMP              0 ****  ****    0 ROOT
