@<TRIPOS>MOLECULE
21T
   62    66     1     0     0
SMALL
bcc


@<TRIPOS>ATOM
      1 C1          0.2250   -0.1910    1.1150 c3        1 21T     -0.100100
      2 C2          1.6450   -0.4950    0.6450 c3        1 21T     -0.000700
      3 C3          2.6160   -0.3570    1.8170 c3        1 21T     -0.100100
      4 C7          2.7630    1.4810   -2.3700 cc        1 21T      0.299200
      5 C8          1.8730    2.6270    0.8610 ca        1 21T     -0.099200
      6 C9          0.5700    3.1070    1.0900 ca        1 21T     -0.130000
      7 C10         0.3230    3.8710    2.2260 ca        1 21T     -0.105500
      8 C11         1.3510    4.1780    3.1220 ca        1 21T     -0.089600
      9 C12         2.6510    3.7330    2.8580 ca        1 21T     -0.105500
     10 C13         2.9270    2.9680    1.7310 ca        1 21T     -0.130000
     11 C14         1.0570    4.9920    4.3880 c         1 21T      0.909200
     12 C15         2.4540   -1.0260   -2.5590 c         1 21T      0.643700
     13 C16         3.3520   -1.3960   -4.9070 c3        1 21T      0.120500
     14 C19         3.5660   -1.2720   -7.8060 c3        1 21T     -0.068200
     15 C20         4.7850   -0.3720   -7.9730 c3        1 21T     -0.074400
     16 C21         5.3090    0.0370   -6.6000 c3        1 21T     -0.068200
     17 C22         2.4760   -0.5230   -7.0480 c3        1 21T     -0.078400
     18 C24         4.4940   -2.1230   -5.6510 c3        1 21T     -0.076200
     19 C4          1.6850   -1.9440    0.1750 c3        1 21T     -0.100100
     20 C5          2.0350    0.4530   -0.4540 cd        1 21T      0.086400
     21 C6          2.4300    0.1800   -1.8090 cc        1 21T     -0.455900
     22 N1          2.5690    2.4380   -1.4480 nd        1 21T     -0.437800
     23 N2          2.1490    1.8350   -0.3150 na        1 21T      0.223300
     24 O1          2.0300    5.2230    5.1530 o         1 21T     -0.800300
     25 O2         -0.1340    5.3560    4.5660 o         1 21T     -0.800300
     26 O3          1.6980   -1.9850   -2.6430 o         1 21T     -0.464100
     27 N3          3.6950   -1.1380   -3.4710 ny        1 21T     -0.684800
     28 C17         2.9960   -0.1040   -5.6730 c3        1 21T     -0.076200
     29 C18         4.2170    0.7900   -5.8490 c3        1 21T     -0.078400
     30 C23         5.7020   -1.2100   -5.8150 c3        1 21T     -0.078400
     31 C25         3.9620   -2.5210   -7.0260 c3        1 21T     -0.078400
     32 H1          0.1790    0.8020    1.6260 hc        1 21T      0.053478
     33 H2         -0.4810   -0.1920    0.2510 hc        1 21T      0.053478
     34 H3         -0.0970   -0.9750    1.8420 hc        1 21T      0.053478
     35 H4          2.3620   -1.1150    2.5970 hc        1 21T      0.053478
     36 H5          2.5450    0.6560    2.2830 hc        1 21T      0.053478
     37 H6          3.6650   -0.5300    1.4770 hc        1 21T      0.053478
     38 H7          3.0720    1.7190   -3.3890 h4        1 21T      0.041100
     39 H8         -0.2460    2.8860    0.3860 ha        1 21T      0.126000
     40 H9         -0.6890    4.2550    2.4460 ha        1 21T      0.176500
     41 H10         3.4490    4.0090    3.5700 ha        1 21T      0.176500
     42 H11         3.9560    2.6360    1.5290 ha        1 21T      0.126000
     43 H12         2.4440   -2.0750   -4.8940 hx        1 21T      0.116700
     44 H13         3.1770   -1.5720   -8.8170 hc        1 21T      0.074200
     45 H16         6.2060    0.7010   -6.7210 hc        1 21T      0.074200
     46 H18         2.1750    0.3940   -7.6190 hc        1 21T      0.057575
     47 H19         4.7900   -3.0510   -5.0900 hc        1 21T      0.067200
     48 H20         2.6720   -2.1880   -0.2850 hc        1 21T      0.053478
     49 H21         1.5340   -2.6190    1.0530 hc        1 21T      0.053478
     50 H22         0.8700   -2.1470   -0.5600 hc        1 21T      0.053478
     51 H24         4.2590   -1.9200   -3.1270 hn        1 21T      0.448800
     52 H25         2.1880    0.4540   -5.1250 hc        1 21T      0.067200
     53 H26         3.9190    1.7010   -6.4330 hc        1 21T      0.057575
     54 H27         4.6070    1.1490   -4.8620 hc        1 21T      0.057575
     55 H28         6.5080   -1.7620   -6.3660 hc        1 21T      0.057575
     56 H29         6.1190   -0.9200   -4.8160 hc        1 21T      0.057575
     57 H30         3.0790   -3.2010   -6.9140 hc        1 21T      0.057575
     58 H31         4.7600   -3.0800   -7.5800 hc        1 21T      0.057575
     59 H14         4.5070    0.5410   -8.5600 hc        1 21T      0.057700
     60 H15         5.5850   -0.9140   -8.5390 hc        1 21T      0.057700
     61 H32         4.2510   -0.2810   -3.3970 hn        1 21T      0.448800
     62 H17         1.5690   -1.1710   -6.9350 hc        1 21T      0.057575
@<TRIPOS>BOND
     1    1    2 1   
     2    1   32 1   
     3    1   33 1   
     4    1   34 1   
     5    2    3 1   
     6    2   19 1   
     7    2   20 1   
     8    3   35 1   
     9    3   36 1   
    10    3   37 1   
    11    4   21 1   
    12    4   22 2   
    13    4   38 1   
    14    5    6 ar  
    15    5   10 ar  
    16    5   23 1   
    17    6    7 ar  
    18    6   39 1   
    19    7    8 ar  
    20    7   40 1   
    21    8    9 ar  
    22    8   11 1   
    23    9   10 ar  
    24    9   41 1   
    25   10   42 1   
    26   11   24 1   
    27   11   25 1   
    28   12   21 1   
    29   12   26 2   
    30   12   27 1   
    31   13   18 1   
    32   13   27 1   
    33   13   28 1   
    34   13   43 1   
    35   14   15 1   
    36   14   17 1   
    37   14   31 1   
    38   14   44 1   
    39   15   16 1   
    40   15   59 1   
    41   15   60 1   
    42   16   29 1   
    43   16   30 1   
    44   16   45 1   
    45   17   28 1   
    46   17   46 1   
    47   17   62 1   
    48   18   30 1   
    49   18   31 1   
    50   18   47 1   
    51   19   48 1   
    52   19   49 1   
    53   19   50 1   
    54   20   21 2   
    55   20   23 1   
    56   22   23 1   
    57   27   51 1   
    58   27   61 1   
    59   28   29 1   
    60   28   52 1   
    61   29   53 1   
    62   29   54 1   
    63   30   55 1   
    64   30   56 1   
    65   31   57 1   
    66   31   58 1   
@<TRIPOS>SUBSTRUCTURE
     1 21T         1 TEMP              0 ****  ****    0 ROOT
