@<TRIPOS>MOLECULE
21U
   50    51     1     0     0
SMALL
bcc


@<TRIPOS>ATOM
      1 N2          3.7900    2.2140    0.5940 n3        1 21U     -0.888800
      2 C15         3.7210    0.8020    0.2920 c3        1 21U      0.118500
      3 C16         4.6920    0.3810   -0.8240 c3        1 21U     -0.071400
      4 C12         6.1350    0.3330   -0.3450 c3        1 21U     -0.069700
      5 C13         6.4040   -0.9190    0.4640 c3        1 21U     -0.092100
      6 C18         7.0740    0.3930   -1.5340 c3        1 21U     -0.092100
      7 C14         2.3070    0.3520   -0.1570 c         1 21U      0.616100
      8 O32         1.5880    1.1240   -0.8310 o         1 21U     -0.640100
      9 N1          1.8260   -0.8800    0.2360 n         1 21U     -0.455800
     10 C1          0.5880   -1.4350   -0.3000 c3        1 21U      0.031700
     11 C7         -0.6650   -0.9920    0.4930 c         1 21U      0.649100
     12 O22        -1.4350   -1.8280    1.0070 o         1 21U     -0.619100
     13 C2          0.7380   -2.9720   -0.2770 c3        1 21U     -0.088400
     14 C3          1.9980   -3.2720    0.5270 c3        1 21U     -0.090400
     15 C4          2.6520   -1.9150    0.8320 c3        1 21U      0.084000
     16 N23        -0.8850    0.3630    0.6070 n         1 21U     -0.551900
     17 C24        -2.0790    0.8900    1.2100 c3        1 21U      0.131300
     18 C25        -3.2200    1.1240    0.2570 ca        1 21U     -0.112300
     19 C26        -3.5840    2.4220   -0.1100 ca        1 21U     -0.119000
     20 C27        -4.6620    2.6280   -0.9720 ca        1 21U     -0.126000
     21 C28        -5.3770    1.5440   -1.4770 ca        1 21U     -0.121000
     22 C29        -5.0060    0.2460   -1.1100 ca        1 21U      0.014400
     23 C30        -3.9300    0.0290   -0.2450 ca        1 21U     -0.108000
     24 CL21       -5.8740   -1.0820   -1.7230 cl        1 21U     -0.096400
     25 HN2         3.6270    2.7620   -0.2290 hn        1 21U      0.361800
     26 HN2A        3.1080    2.4550    1.2860 hn        1 21U      0.361800
     27 H15         3.9950    0.2580    1.2460 h1        1 21U      0.077700
     28 H16         4.3930   -0.6310   -1.2030 hc        1 21U      0.052200
     29 H16A        4.6040    1.0950   -1.6860 hc        1 21U      0.052200
     30 H12         6.3310    1.2310    0.3080 hc        1 21U      0.071700
     31 H13         6.2150   -1.8330   -0.1490 hc        1 21U      0.034367
     32 H13A        7.4680   -0.9360    0.8040 hc        1 21U      0.034367
     33 H13B        5.7470   -0.9570    1.3670 hc        1 21U      0.034367
     34 H18         6.9330    1.3480   -2.0950 hc        1 21U      0.034367
     35 H18A        8.1340    0.3380   -1.1900 hc        1 21U      0.034367
     36 H18B        6.8820   -0.4590   -2.2300 hc        1 21U      0.034367
     37 H1          0.4400   -1.0690   -1.3600 h1        1 21U      0.085700
     38 H2          0.8340   -3.3490   -1.3240 hc        1 21U      0.075700
     39 H2A        -0.1610   -3.4530    0.1860 hc        1 21U      0.075700
     40 H3          2.6990   -3.9210   -0.0510 hc        1 21U      0.057700
     41 H3A         1.7450   -3.7990    1.4800 hc        1 21U      0.057700
     42 H4          3.7000   -1.8770    0.4210 h1        1 21U      0.051200
     43 H4A         2.7080   -1.7420    1.9430 h1        1 21U      0.051200
     44 HN23       -0.3580    0.9820    0.0280 hn        1 21U      0.336500
     45 H24        -2.4260    0.1680    2.0080 h1        1 21U      0.068700
     46 H24A       -1.8050    1.8650    1.7080 h1        1 21U      0.068700
     47 H26        -3.0240    3.2840    0.2820 ha        1 21U      0.134000
     48 H27        -4.9480    3.6510   -1.2580 ha        1 21U      0.137000
     49 H28        -6.2260    1.7080   -2.1580 ha        1 21U      0.146000
     50 H30        -3.6330   -0.9920    0.0500 ha        1 21U      0.169000
@<TRIPOS>BOND
     1    1    2 1   
     2    1   25 1   
     3    1   26 1   
     4    2    3 1   
     5    2    7 1   
     6    2   27 1   
     7    3    4 1   
     8    3   28 1   
     9    3   29 1   
    10    4    5 1   
    11    4    6 1   
    12    4   30 1   
    13    5   31 1   
    14    5   32 1   
    15    5   33 1   
    16    6   34 1   
    17    6   35 1   
    18    6   36 1   
    19    7    8 2   
    20    7    9 1   
    21    9   10 1   
    22    9   15 1   
    23   10   11 1   
    24   10   13 1   
    25   10   37 1   
    26   11   12 2   
    27   11   16 1   
    28   13   14 1   
    29   13   38 1   
    30   13   39 1   
    31   14   15 1   
    32   14   40 1   
    33   14   41 1   
    34   15   42 1   
    35   15   43 1   
    36   16   17 1   
    37   16   44 1   
    38   17   18 1   
    39   17   45 1   
    40   17   46 1   
    41   18   19 ar  
    42   18   23 ar  
    43   19   20 ar  
    44   19   47 1   
    45   20   21 ar  
    46   20   48 1   
    47   21   22 ar  
    48   21   49 1   
    49   22   23 ar  
    50   22   24 1   
    51   23   50 1   
@<TRIPOS>SUBSTRUCTURE
     1 21U         1 TEMP              0 ****  ****    0 ROOT
