@<TRIPOS>MOLECULE
21U
   52    53     1     0     0
SMALL
bcc


@<TRIPOS>ATOM
      1 N2         -0.0280    0.0930    0.4080 nz        1 21U     -0.835600
      2 C15         1.4590   -0.0210    0.2240 c3        1 21U      0.062500
      3 C16         2.2000    0.0220    1.5650 c3        1 21U     -0.113400
      4 C12         1.7840   -1.0670    2.5460 c3        1 21U     -0.079700
      5 C13         1.8120   -2.4460    1.9240 c3        1 21U     -0.105100
      6 C18         2.7100   -1.0160    3.7490 c3        1 21U     -0.105100
      7 C14         1.9510    1.1580   -0.6460 c         1 21U      0.652100
      8 O32         1.3340    2.2430   -0.6150 o         1 21U     -0.597100
      9 N1          3.0560    0.9940   -1.4420 n         1 21U     -0.447800
     10 C1          3.6500    2.1180   -2.1470 c3        1 21U      0.052700
     11 C7          2.7890    2.5840   -3.3330 c         1 21U      0.520100
     12 O22         1.8320    2.0140   -3.8290 o         1 21U     -0.399100
     13 C2          5.0350    1.6520   -2.6580 c3        1 21U     -0.092400
     14 C3          5.1400    0.1650   -2.3310 c3        1 21U     -0.091400
     15 C4          3.8640   -0.2130   -1.5640 c3        1 21U      0.080000
     16 N23         3.1820    3.9070   -3.9320 ny        1 21U     -0.680800
     17 C24         3.4080    3.8160   -5.4250 c3        1 21U      0.185100
     18 C25         3.7360    5.1540   -5.9830 ca        1 21U     -0.196300
     19 C26         2.7410    5.9200   -6.6020 ca        1 21U     -0.091000
     20 C27         3.0700    7.1510   -7.1700 ca        1 21U     -0.106000
     21 C28         4.3800    7.6250   -7.1190 ca        1 21U     -0.062000
     22 C29         5.3750    6.8560   -6.4950 ca        1 21U      0.019400
     23 C30         5.0560    5.6190   -5.9300 ca        1 21U     -0.111000
     24 Cl21        6.9660    7.4200   -6.4310 cl        1 21U     -0.022400
     25 HN2        -0.3330   -0.5890    1.1150 hn        1 21U      0.477133
     26 HN2A       -0.5120   -0.0840   -0.4770 hn        1 21U      0.477133
     27 H15         1.6520   -1.0130   -0.2900 hx        1 21U      0.134700
     28 H16         2.0610    1.0290    2.0450 hc        1 21U      0.093700
     29 H16A        3.2960   -0.0930    1.3400 hc        1 21U      0.093700
     30 H12         0.7410   -0.8550    2.9180 hc        1 21U      0.042700
     31 H13         2.8000   -2.6460    1.4420 hc        1 21U      0.056367
     32 H13A        1.0070   -2.5650    1.1590 hc        1 21U      0.056367
     33 H13B        1.6520   -3.2230    2.7140 hc        1 21U      0.056367
     34 H18         2.3650   -1.7440    4.5240 hc        1 21U      0.056367
     35 H18A        3.7540   -1.2830    3.4560 hc        1 21U      0.056367
     36 H18B        2.7130    0.0050    4.2010 hc        1 21U      0.056367
     37 H1          3.7380    2.9920   -1.4310 h1        1 21U      0.114700
     38 H2          5.1460    1.8240   -3.7570 hc        1 21U      0.084200
     39 H2A         5.8370    2.2310   -2.1310 hc        1 21U      0.084200
     40 H3          6.0460   -0.0420   -1.7070 hc        1 21U      0.097200
     41 H3A         5.2240   -0.4470   -3.2650 hc        1 21U      0.097200
     42 H4          4.1180   -0.6110   -0.5420 h1        1 21U      0.074200
     43 H4A         3.2800   -0.9980   -2.1220 h1        1 21U      0.074200
     44 HN23        2.4270    4.5880   -3.7640 hn        1 21U      0.464800
     45 H24         2.4640    3.3970   -5.8830 hx        1 21U      0.114200
     46 H24A        4.2530    3.0870   -5.5900 hx        1 21U      0.114200
     47 H26         1.7060    5.5490   -6.6640 ha        1 21U      0.148000
     48 H27         2.2900    7.7510   -7.6690 ha        1 21U      0.174000
     49 H28         4.6360    8.5980   -7.5740 ha        1 21U      0.184000
     50 H30         5.8470    5.0060   -5.4700 ha        1 21U      0.143000
     51 H23        -0.2600    1.0460    0.7260 hn        1 21U      0.477133
     52 H232        4.0350    4.2640   -3.4880 hn        1 21U      0.464800
@<TRIPOS>BOND
     1    1    2 1   
     2    1   25 1   
     3    1   26 1   
     4    1   51 1   
     5    2    3 1   
     6    2    7 1   
     7    2   27 1   
     8    3    4 1   
     9    3   28 1   
    10    3   29 1   
    11    4    5 1   
    12    4    6 1   
    13    4   30 1   
    14    5   31 1   
    15    5   32 1   
    16    5   33 1   
    17    6   34 1   
    18    6   35 1   
    19    6   36 1   
    20    7    8 2   
    21    7    9 1   
    22    9   10 1   
    23    9   15 1   
    24   10   11 1   
    25   10   13 1   
    26   10   37 1   
    27   11   12 2   
    28   11   16 1   
    29   13   14 1   
    30   13   38 1   
    31   13   39 1   
    32   14   15 1   
    33   14   40 1   
    34   14   41 1   
    35   15   42 1   
    36   15   43 1   
    37   16   17 1   
    38   16   44 1   
    39   16   52 1   
    40   17   18 1   
    41   17   45 1   
    42   17   46 1   
    43   18   19 ar  
    44   18   23 ar  
    45   19   20 ar  
    46   19   47 1   
    47   20   21 ar  
    48   20   48 1   
    49   21   22 ar  
    50   21   49 1   
    51   22   23 ar  
    52   22   24 1   
    53   23   50 1   
@<TRIPOS>SUBSTRUCTURE
     1 21U         1 TEMP              0 ****  ****    0 ROOT
