@<TRIPOS>MOLECULE
21U
   52    53     1     0     0
SMALL
bcc


@<TRIPOS>ATOM
      1 N2         -0.0420    0.0530    0.3570 n4        1 21U     -0.835600
      2 C15         1.4490   -0.0390    0.2010 c3        1 21U      0.062500
      3 C16         2.1640    0.0190    1.5550 c3        1 21U     -0.113400
      4 C12         1.7480   -1.0740    2.5310 c3        1 21U     -0.079700
      5 C13         1.8100   -2.4540    1.9130 c3        1 21U     -0.105100
      6 C18         2.6500   -1.0050    3.7510 c3        1 21U     -0.105100
      7 C14         1.9390    1.1450   -0.6630 c         1 21U      0.652100
      8 O32         1.3040    2.2200   -0.6480 o         1 21U     -0.597100
      9 N1          3.0610    0.9960   -1.4380 n         1 21U     -0.447800
     10 C1          3.6500    2.1270   -2.1360 c3        1 21U      0.051700
     11 C7          2.8040    2.5770   -3.3400 c         1 21U      0.520100
     12 O22         1.8640    1.9900   -3.8510 o         1 21U     -0.399100
     13 C2          5.0510    1.6810   -2.6200 c3        1 21U     -0.092400
     14 C3          5.1740    0.1970   -2.2850 c3        1 21U     -0.091400
     15 C4          3.8890   -0.1990   -1.5410 c3        1 21U      0.080000
     16 N23         3.1870    3.9030   -3.9360 n4        1 21U     -0.680800
     17 C24         3.4410    3.8110   -5.4240 c3        1 21U      0.185100
     18 C25         3.7590    5.1520   -5.9800 ca        1 21U     -0.196300
     19 C26         2.7640    5.9020   -6.6170 ca        1 21U     -0.091000
     20 C27         3.0850    7.1360   -7.1830 ca        1 21U     -0.106000
     21 C28         4.3870    7.6290   -7.1130 ca        1 21U     -0.062000
     22 C29         5.3830    6.8760   -6.4710 ca        1 21U      0.019400
     23 C30         5.0720    5.6360   -5.9070 ca        1 21U     -0.111000
     24 CL21        6.9640    7.4630   -6.3830 cl        1 21U     -0.022400
     25 HN2        -0.5080   -0.1350   -0.5360 hn        1 21U      0.477133
     26 HN2A       -0.2950    1.0030    0.6680 hn        1 21U      0.477133
     27 H15         1.6670   -1.0290   -0.3070 hx        1 21U      0.134700
     28 H16         2.0000    1.0250    2.0300 hc        1 21U      0.093700
     29 H16A        3.2660   -0.0780    1.3500 hc        1 21U      0.093700
     30 H12         0.6940   -0.8780    2.8830 hc        1 21U      0.042700
     31 H13         1.6470   -3.2310    2.7020 hc        1 21U      0.056367
     32 H13A        2.8090   -2.6390    1.4500 hc        1 21U      0.056367
     33 H13B        1.0210   -2.5880    1.1340 hc        1 21U      0.056367
     34 H18         2.6280    0.0170    4.2000 hc        1 21U      0.056367
     35 H18A        3.7030   -1.2560    3.4780 hc        1 21U      0.056367
     36 H18B        2.3020   -1.7380    4.5210 hc        1 21U      0.056367
     37 H1          3.7120    3.0040   -1.4220 h1        1 21U      0.114700
     38 H2          5.8340    2.2750   -2.0820 hc        1 21U      0.083700
     39 H2A         5.1790    1.8500   -3.7180 hc        1 21U      0.083700
     40 H3          5.2870   -0.4160   -3.2150 hc        1 21U      0.097200
     41 H3A         6.0710    0.0080   -1.6420 hc        1 21U      0.097200
     42 H4          3.3290   -0.9940   -2.1090 h1        1 21U      0.074200
     43 H4A         4.1300   -0.5900   -0.5140 h1        1 21U      0.074200
     44 HN23        2.4200    4.5730   -3.7830 hn        1 21U      0.464800
     45 H24         4.3000    3.0950   -5.5720 hx        1 21U      0.114200
     46 H24A        2.5120    3.3770   -5.8970 hx        1 21U      0.114200
     47 H26         1.7360    5.5170   -6.6950 ha        1 21U      0.148000
     48 H27         2.3050    7.7240   -7.6970 ha        1 21U      0.174000
     49 H28         4.6360    8.6050   -7.5660 ha        1 21U      0.184000
     50 H30         5.8640    5.0360   -5.4330 ha        1 21U      0.143000
     51 H23        -0.3500   -0.6330    1.0600 hn        1 21U      0.477133
     52 H232        4.0270    4.2740   -3.4780 hn        1 21U      0.464800
@<TRIPOS>BOND
     1    1    2 1   
     2    1   25 1   
     3    1   26 1   
     4    1   51 1   
     5    2    3 1   
     6    2    7 1   
     7    2   27 1   
     8    3    4 1   
     9    3   28 1   
    10    3   29 1   
    11    4    5 1   
    12    4    6 1   
    13    4   30 1   
    14    5   31 1   
    15    5   32 1   
    16    5   33 1   
    17    6   34 1   
    18    6   35 1   
    19    6   36 1   
    20    7    8 2   
    21    7    9 1   
    22    9   10 1   
    23    9   15 1   
    24   10   11 1   
    25   10   13 1   
    26   10   37 1   
    27   11   12 2   
    28   11   16 1   
    29   13   14 1   
    30   13   38 1   
    31   13   39 1   
    32   14   15 1   
    33   14   40 1   
    34   14   41 1   
    35   15   42 1   
    36   15   43 1   
    37   16   17 1   
    38   16   44 1   
    39   16   52 1   
    40   17   18 1   
    41   17   45 1   
    42   17   46 1   
    43   18   19 ar  
    44   18   23 ar  
    45   19   20 ar  
    46   19   47 1   
    47   20   21 ar  
    48   20   48 1   
    49   21   22 ar  
    50   21   49 1   
    51   22   23 ar  
    52   22   24 1   
    53   23   50 1   
@<TRIPOS>SUBSTRUCTURE
     1 21U         1 TEMP              0 ****  ****    0 ROOT
