@<TRIPOS>MOLECULE
21U
   52    53     1     0     0
SMALL
bcc


@<TRIPOS>ATOM
      1 N2         -0.0460    0.0480    0.3470 n4        1 21U     -0.835600
      2 C15         1.4460   -0.0430    0.1930 c3        1 21U      0.062500
      3 C16         2.1590    0.0150    1.5490 c3        1 21U     -0.113400
      4 C12         1.7410   -1.0790    2.5230 c3        1 21U     -0.079700
      5 C13         1.8040   -2.4590    1.9040 c3        1 21U     -0.105100
      6 C18         2.6420   -1.0110    3.7440 c3        1 21U     -0.105100
      7 C14         1.9370    1.1430   -0.6690 c         1 21U      0.652100
      8 O32         1.3010    2.2170   -0.6530 o         1 21U     -0.597100
      9 N1          3.0600    0.9950   -1.4420 n         1 21U     -0.447800
     10 C1          3.6500    2.1280   -2.1370 c3        1 21U      0.052700
     11 C7          2.8060    2.5780   -3.3410 c         1 21U      0.520100
     12 O22         1.8690    1.9910   -3.8560 o         1 21U     -0.399100
     13 C2          5.0520    1.6840   -2.6180 c3        1 21U     -0.092400
     14 C3          5.1740    0.1990   -2.2870 c3        1 21U     -0.091400
     15 C4          3.8890   -0.1990   -1.5450 c3        1 21U      0.080000
     16 N23         3.1880    3.9060   -3.9340 n4        1 21U     -0.680800
     17 C24         3.4480    3.8170   -5.4220 c3        1 21U      0.185100
     18 C25         3.7650    5.1600   -5.9750 ca        1 21U     -0.196300
     19 C26         2.7710    5.9070   -6.6170 ca        1 21U     -0.091000
     20 C27         3.0900    7.1430   -7.1800 ca        1 21U     -0.106000
     21 C28         4.3900    7.6400   -7.1010 ca        1 21U     -0.062000
     22 C29         5.3840    6.8900   -6.4550 ca        1 21U      0.019400
     23 C30         5.0750    5.6480   -5.8940 ca        1 21U     -0.111000
     24 CL21        6.9630    7.4830   -6.3560 cl        1 21U     -0.022400
     25 HN2        -0.3000    0.9980    0.6580 hn        1 21U      0.477133
     26 HN2A       -0.5090   -0.1390   -0.5470 hn        1 21U      0.477133
     27 H15         1.6660   -1.0320   -0.3150 hx        1 21U      0.134700
     28 H16         1.9940    1.0200    2.0240 hc        1 21U      0.093700
     29 H16A        3.2610   -0.0820    1.3460 hc        1 21U      0.093700
     30 H12         0.6870   -0.8830    2.8730 hc        1 21U      0.042700
     31 H13         1.6410   -3.2360    2.6930 hc        1 21U      0.056367
     32 H13A        2.8040   -2.6430    1.4430 hc        1 21U      0.056367
     33 H13B        1.0170   -2.5920    1.1240 hc        1 21U      0.056367
     34 H18         2.2930   -1.7440    4.5130 hc        1 21U      0.056367
     35 H18A        3.6950   -1.2620    3.4730 hc        1 21U      0.056367
     36 H18B        2.6190    0.0110    4.1940 hc        1 21U      0.056367
     37 H1          3.7090    3.0040   -1.4210 h1        1 21U      0.114700
     38 H2          5.1830    1.8560   -3.7150 hc        1 21U      0.084200
     39 H2A         5.8330    2.2770   -2.0760 hc        1 21U      0.084200
     40 H3          6.0710    0.0080   -1.6440 hc        1 21U      0.097200
     41 H3A         5.2880   -0.4130   -3.2180 hc        1 21U      0.097200
     42 H4          3.3300   -0.9930   -2.1140 h1        1 21U      0.074200
     43 H4A         4.1290   -0.5910   -0.5180 h1        1 21U      0.074200
     44 HN23        4.0250    4.2790   -3.4730 hn        1 21U      0.464800
     45 H24         4.3090    3.1030   -5.5670 hx        1 21U      0.114200
     46 H24A        2.5220    3.3810   -5.8990 hx        1 21U      0.114200
     47 H26         1.7440    5.5180   -6.7010 ha        1 21U      0.148000
     48 H27         2.3110    7.7280   -7.6980 ha        1 21U      0.174000
     49 H28         4.6380    8.6170   -7.5530 ha        1 21U      0.184000
     50 H30         5.8660    5.0510   -5.4150 ha        1 21U      0.143000
     51 H23        -0.3540   -0.6380    1.0490 hn        1 21U      0.477133
     52 H232        2.4180    4.5740   -3.7830 hn        1 21U      0.464800
@<TRIPOS>BOND
     1    1    2 1   
     2    1   25 1   
     3    1   26 1   
     4    1   51 1   
     5    2    3 1   
     6    2    7 1   
     7    2   27 1   
     8    3    4 1   
     9    3   28 1   
    10    3   29 1   
    11    4    5 1   
    12    4    6 1   
    13    4   30 1   
    14    5   31 1   
    15    5   32 1   
    16    5   33 1   
    17    6   34 1   
    18    6   35 1   
    19    6   36 1   
    20    7    8 2   
    21    7    9 1   
    22    9   10 1   
    23    9   15 1   
    24   10   11 1   
    25   10   13 1   
    26   10   37 1   
    27   11   12 2   
    28   11   16 1   
    29   13   14 1   
    30   13   38 1   
    31   13   39 1   
    32   14   15 1   
    33   14   40 1   
    34   14   41 1   
    35   15   42 1   
    36   15   43 1   
    37   16   17 1   
    38   16   44 1   
    39   16   52 1   
    40   17   18 1   
    41   17   45 1   
    42   17   46 1   
    43   18   19 ar  
    44   18   23 ar  
    45   19   20 ar  
    46   19   47 1   
    47   20   21 ar  
    48   20   48 1   
    49   21   22 ar  
    50   21   49 1   
    51   22   23 ar  
    52   22   24 1   
    53   23   50 1   
@<TRIPOS>SUBSTRUCTURE
     1 21U         1 TEMP              0 ****  ****    0 ROOT
