@<TRIPOS>MOLECULE
21U
   50    49     1     0     0
SMALL
bcc


@<TRIPOS>ATOM
      1 N2         -2.2650    1.2670    2.2290 n3        1 21U     -0.336000
      2 C15        -0.8070    1.2810    2.2820 c3        1 21U     -0.028000
      3 C16        -0.3680    1.3220    3.6800 c3        1 21U     -0.150000
      4 C12        -1.1150    0.2070    4.4970 c3        1 21U     -0.101000
      5 C13        -0.1050   -0.6370    5.2560 c3        1 21U     -0.208500
      6 C18        -2.0640    0.8540    5.4780 c3        1 21U     -0.208500
      7 C14        -0.2780    2.5270    1.5450 c2        1 21U      0.270000
      8 O32        -0.0580    3.5610    2.1710 o         1 21U     -0.355000
      9 N1         -0.1560    2.5130    0.0750 n         1 21U     -0.324000
     10 C1         -0.4060    1.2350   -0.8980 c3        1 21U      0.017000
     11 C7          0.9020    0.4170   -1.2240 c2        1 21U      0.266000
     12 O22         1.9430    0.7480   -0.7520 o         1 21U     -0.348000
     13 C2         -0.9730    1.7670   -1.9460 c3        1 21U     -0.164000
     14 C3         -0.4820    3.2240   -1.9960 c3        1 21U     -0.169000
     15 C4          0.1680    3.4930   -0.6710 c3        1 21U     -0.027000
     16 N23         0.8600   -0.6460   -2.1830 n         1 21U     -0.365000
     17 C24         1.9140   -1.6450   -2.2030 c3        1 21U      0.003000
     18 C25         1.6080   -2.6850   -3.2690 c2        1 21U     -0.113000
     19 C26         0.6100   -3.6470   -3.0460 c2        1 21U     -0.121000
     20 C27         0.4210   -4.6860   -3.9690 c1        1 21U     -0.125000
     21 C28         1.2270   -4.7610   -5.1090 c1        1 21U     -0.119000
     22 C29         2.2200   -3.8020   -5.3290 c1        1 21U     -0.064000
     23 C30         2.4110   -2.7640   -4.4100 c1        1 21U     -0.110000
     24 CL21        3.2960   -3.9530   -6.7240 cl        1 21U     -0.011000
     25 HN2        -2.5490    0.6440    1.5970 hn        1 21U      0.152500
     26 HN2A       -2.5740    2.1120    1.9920 hn        1 21U      0.152500
     27 H15        -0.4560    0.4710    1.8520 h1        1 21U      0.112000
     28 H16         0.6200    1.1650    3.7240 hc        1 21U      0.103000
     29 H16A       -0.5770    2.2070    4.0620 hc        1 21U      0.103000
     30 H12        -1.6200   -0.3630    3.8830 hc        1 21U      0.095000
     31 H13         0.4620   -0.0600    5.7890 hc        1 21U      0.072667
     32 H13A        0.4490   -1.1460    4.6150 hc        1 21U      0.072667
     33 H13B       -0.5790   -1.2620    5.8440 hc        1 21U      0.072667
     34 H18        -2.0410    0.3680    6.3170 hc        1 21U      0.072667
     35 H18A       -1.7970    1.7740    5.6310 hc        1 21U      0.072667
     36 H18B       -2.9860    0.8340    5.1080 hc        1 21U      0.072667
     37 H1         -0.9690    0.5570   -0.4790 h1        1 21U      0.111000
     38 H2         -1.9260    1.7430   -1.8540 hc        1 21U      0.097000
     39 H2A        -0.6990    1.2910   -2.7570 hc        1 21U      0.097000
     40 H3          0.1630    3.3350   -2.7130 hc        1 21U      0.097000
     41 H3A        -1.2580    3.8430   -2.1290 hc        1 21U      0.097000
     42 H4         -0.1730    4.3460   -0.2900 h1        1 21U      0.101000
     43 H4A         1.1610    3.5330   -0.7750 h1        1 21U      0.101000
     44 HN23        0.1750   -0.6990   -2.7730 hn        1 21U      0.217000
     45 H24         1.9660   -2.0830   -1.3280 h1        1 21U      0.114000
     46 H24A        2.7650   -1.2140   -2.4030 h1        1 21U      0.114000
     47 H26         0.0470   -3.5930   -2.2480 ha        1 21U      0.135000
     48 H27        -0.3000   -5.3820   -3.8110 ha        1 21U      0.139000
     49 H28         1.0920   -5.5100   -5.7750 ha        1 21U      0.148000
     50 H30         3.1000   -2.1010   -4.5660 ha        1 21U      0.169000
@<TRIPOS>BOND
     1    1    2 1   
     2    1   25 1   
     3    1   26 1   
     4    2    3 1   
     5    2    7 1   
     6    2   27 1   
     7    3    4 1   
     8    3   28 1   
     9    3   29 1   
    10    4    5 1   
    11    4    6 1   
    12    4   30 1   
    13    5   31 1   
    14    5   32 1   
    15    5   33 1   
    16    6   34 1   
    17    6   35 1   
    18    6   36 1   
    19    7    8 1   
    20    7    9 1   
    21    9   10 1   
    22    9   15 1   
    23   10   11 1   
    24   10   13 1   
    25   10   37 1   
    26   11   12 1   
    27   11   16 1   
    28   13   14 1   
    29   13   38 1   
    30   13   39 1   
    31   14   15 1   
    32   14   40 1   
    33   14   41 1   
    34   15   42 1   
    35   15   43 1   
    36   16   17 1   
    37   16   44 1   
    38   17   18 1   
    39   17   45 1   
    40   17   46 1   
    41   18   19 1   
    42   18   23 1   
    43   19   20 1   
    44   19   47 1   
    45   20   48 1   
    46   21   22 1   
    47   21   49 1   
    48   22   24 1   
    49   23   50 1   
@<TRIPOS>SUBSTRUCTURE
     1 21U         1 TEMP              0 ****  ****    0 ROOT
