@<TRIPOS>MOLECULE
21V
   57    59     1     0     0
SMALL
bcc


@<TRIPOS>ATOM
      1 OE2        -0.2080   -5.6980   -3.3680 oh        1 21V     -0.584100
      2 CD          1.0710   -5.2540   -3.3890 c         1 21V      0.661100
      3 OE1         1.8590   -5.8600   -4.1360 o         1 21V     -0.633000
      4 CG          1.3120   -4.0780   -2.4950 c3        1 21V     -0.128400
      5 CB          2.6920   -4.0750   -1.8790 c3        1 21V     -0.093400
      6 CA          3.8570   -3.5980   -2.7750 c3        1 21V      0.016700
      7 CT          4.9890   -4.6230   -2.6220 c         1 21V      0.598100
      8 O1          6.0600   -4.4240   -2.0550 o         1 21V     -0.471000
      9 O2          4.8400   -5.8840   -3.1190 oh        1 21V     -0.583100
     10 N           3.5220   -3.3740   -4.1510 ns        1 21V     -0.588900
     11 C           3.8910   -2.2250   -4.8460 c         1 21V      0.682700
     12 O           4.4080   -1.2530   -4.2750 o         1 21V     -0.562100
     13 C11         3.5790   -2.2800   -6.3030 ca        1 21V     -0.151600
     14 C12         2.2570   -2.1420   -6.7340 ca        1 21V     -0.096000
     15 C13         1.9410   -2.3670   -8.0710 ca        1 21V     -0.134500
     16 C16         4.5980   -2.5400   -7.2240 ca        1 21V     -0.096000
     17 C15         4.2750   -2.7710   -8.5600 ca        1 21V     -0.134500
     18 C14         2.9380   -2.7490   -8.9800 ca        1 21V     -0.053300
     19 C10         2.5600   -3.2050  -10.3460 c3        1 21V     -0.044100
     20 C9          2.5750   -4.7240  -10.4790 c3        1 21V     -0.066400
     21 C6          1.9750   -5.4410   -9.2810 c3        1 21V     -0.097700
     22 C7          3.0860   -5.9840   -8.3680 c3        1 21V      0.182800
     23 N8          2.6170   -6.6610   -7.1780 nu        1 21V     -0.726000
     24 C5          1.0780   -6.6080   -9.6700 c3        1 21V     -0.004200
     25 C4A         0.6220   -7.3230   -8.4530 cc        1 21V     -0.329400
     26 C4         -0.6370   -8.0800   -8.5110 c         1 21V      0.717700
     27 O4         -1.3070   -8.1860   -9.5530 o         1 21V     -0.559100
     28 C8A         1.3450   -7.2700   -7.2710 cd        1 21V      0.346000
     29 N1          0.8380   -7.8890   -6.1170 na        1 21V     -0.742000
     30 C2         -0.4020   -8.5660   -6.2020 cc        1 21V      0.797100
     31 N3         -1.1010   -8.6980   -7.3210 nd        1 21V     -0.715100
     32 NA2        -0.9110   -9.0520   -4.9520 nv        1 21V     -0.886800
     33 H2          0.5430   -4.1000   -1.6730 hc        1 21V      0.099200
     34 H3          1.1250   -3.1460   -3.0950 hc        1 21V      0.099200
     35 H4          2.6650   -3.3930   -0.9860 hc        1 21V      0.071200
     36 H5          2.9190   -5.1080   -1.4980 hc        1 21V      0.071200
     37 H6          4.2530   -2.6190   -2.3540 h1        1 21V      0.129700
     38 H8          3.9630   -5.9900   -3.5190 ho        1 21V      0.439000
     39 H9          1.4680   -1.8690   -6.0180 ha        1 21V      0.145500
     40 H10         0.8980   -2.2740   -8.4100 ha        1 21V      0.144000
     41 H11         5.6470   -2.5780   -6.8920 ha        1 21V      0.145500
     42 H12         5.0710   -3.0010   -9.2850 ha        1 21V      0.144000
     43 H13         1.5320   -2.8260  -10.5960 hc        1 21V      0.056700
     44 H14         3.2680   -2.7700  -11.1020 hc        1 21V      0.056700
     45 H15         2.0020   -4.9970  -11.4040 hc        1 21V      0.051200
     46 H16         3.6330   -5.0660  -10.6340 hc        1 21V      0.051200
     47 H17         1.3460   -4.7090   -8.6970 hc        1 21V      0.057700
     48 H18         3.6970   -6.7330   -8.9500 h1        1 21V      0.060700
     49 H19         3.7660   -5.1390   -8.0600 h1        1 21V      0.060700
     50 H20         1.6330   -7.3160  -10.3420 hc        1 21V      0.066200
     51 H21         0.1830   -6.2420  -10.2420 hc        1 21V      0.066200
     52 H24        -0.2970   -9.7220   -4.5330 hn        1 21V      0.404300
     53 H25        -0.3260   -6.4540   -3.9730 ho        1 21V      0.462000
     54 H26         2.7600   -6.1460   -6.3300 hn        1 21V      0.406800
     55 H22         1.3230   -7.8030   -5.2500 hn        1 21V      0.464800
     56 H23         3.1670   -4.1500   -4.6630 hn        1 21V      0.320500
     57 HA23       -1.8380   -9.4230   -5.0480 hn        1 21V      0.404300
@<TRIPOS>BOND
     1    1    2 1   
     2    1   53 1   
     3    2    3 2   
     4    2    4 1   
     5    4    5 1   
     6    4   33 1   
     7    4   34 1   
     8    5    6 1   
     9    5   35 1   
    10    5   36 1   
    11    6    7 1   
    12    6   10 1   
    13    6   37 1   
    14    7    8 2   
    15    7    9 1   
    16    9   38 1   
    17   10   11 1   
    18   10   56 1   
    19   11   12 2   
    20   11   13 1   
    21   13   14 ar  
    22   13   16 ar  
    23   14   15 ar  
    24   14   39 1   
    25   15   18 ar  
    26   15   40 1   
    27   16   17 ar  
    28   16   41 1   
    29   17   18 ar  
    30   17   42 1   
    31   18   19 1   
    32   19   20 1   
    33   19   43 1   
    34   19   44 1   
    35   20   21 1   
    36   20   45 1   
    37   20   46 1   
    38   21   22 1   
    39   21   24 1   
    40   21   47 1   
    41   22   23 1   
    42   22   48 1   
    43   22   49 1   
    44   23   28 1   
    45   23   54 1   
    46   24   25 1   
    47   24   50 1   
    48   24   51 1   
    49   25   26 1   
    50   25   28 2   
    51   26   27 2   
    52   26   31 1   
    53   28   29 1   
    54   29   30 1   
    55   29   55 1   
    56   30   31 2   
    57   30   32 1   
    58   32   52 1   
    59   32   57 1   
@<TRIPOS>SUBSTRUCTURE
     1 21V         1 TEMP              0 ****  ****    0 ROOT
