@<TRIPOS>MOLECULE
21V
   55    57     1     0     0
SMALL
bcc


@<TRIPOS>ATOM
      1 OE2        -8.7990    3.2390   -0.0640 o         1 21V     -0.874800
      2 CD         -7.8170    2.6140   -0.5690 c         1 21V      0.904600
      3 OE1        -7.3960    2.8510   -1.7420 o         1 21V     -0.874800
      4 CG         -7.0860    1.5780    0.2940 c3        1 21V     -0.182400
      5 CB         -7.1360    0.1880   -0.2950 c3        1 21V     -0.054400
      6 CA         -6.1940   -0.8050    0.4040 c3        1 21V     -0.045300
      7 CT         -6.5600   -2.2580   -0.0610 c         1 21V      0.903600
      8 O1         -5.8940   -2.7850   -1.0020 o         1 21V     -0.851800
      9 O2         -7.5000   -2.8400    0.5460 o         1 21V     -0.851800
     10 N          -4.7970   -0.5090    0.1260 n         1 21V     -0.476900
     11 C          -3.8240   -0.4370    1.0770 c         1 21V      0.648700
     12 O          -4.0210   -0.3640    2.3140 o         1 21V     -0.655100
     13 C11        -2.4070   -0.3710    0.5660 ca        1 21V     -0.103600
     14 C12        -2.0470    0.4920   -0.4730 ca        1 21V     -0.094500
     15 C13        -0.7280    0.5270   -0.9250 ca        1 21V     -0.144000
     16 C16        -1.4370   -1.1860    1.1580 ca        1 21V     -0.094500
     17 C15        -0.1230   -1.1550    0.6990 ca        1 21V     -0.144000
     18 C14         0.2410   -0.3020   -0.3510 ca        1 21V     -0.104300
     19 C10         1.6310   -0.3170   -0.8800 c3        1 21V     -0.026100
     20 C9          2.6470    0.1680    0.1380 c3        1 21V     -0.073400
     21 C6          4.0700   -0.0920   -0.3270 c3        1 21V     -0.094700
     22 C7          4.4560   -1.5560   -0.0810 c3        1 21V      0.168800
     23 N8          5.8040   -1.9110   -0.4870 nh        1 21V     -0.715000
     24 C5          5.0610    0.8030    0.4030 c3        1 21V     -0.015200
     25 C4A         6.4630    0.3640    0.2000 cc        1 21V     -0.291400
     26 C4          7.5400    1.3120    0.5400 c         1 21V      0.713700
     27 O4          7.3140    2.4580    0.9670 o         1 21V     -0.554100
     28 C8A         6.7770   -0.8950   -0.2700 cd        1 21V      0.303000
     29 N1          8.1230   -1.2350   -0.5290 na        1 21V     -0.728000
     30 C2          9.1270   -0.3240   -0.1050 cc        1 21V      0.806100
     31 N3          8.8820    0.8970    0.3510 nd        1 21V     -0.730100
     32 NA2        10.4710   -0.8060   -0.1810 nh        1 21V     -0.881800
     33 H2         -6.0230    1.9180    0.3920 hc        1 21V      0.018700
     34 H3         -7.5370    1.5710    1.3190 hc        1 21V      0.018700
     35 H4         -8.1720   -0.2300   -0.1930 hc        1 21V      0.050700
     36 H5         -6.9000    0.2420   -1.3900 hc        1 21V      0.050700
     37 H6         -6.3560   -0.7430    1.5180 h1        1 21V      0.069700
     38 H8         -4.5220   -0.7760   -0.7980 hn        1 21V      0.314500
     39 H9         -2.8070    1.1430   -0.9360 ha        1 21V      0.156500
     40 H10        -0.4540    1.2070   -1.7450 ha        1 21V      0.115000
     41 H11        -1.7290   -1.8470    1.9890 ha        1 21V      0.156500
     42 H12         0.6320   -1.8100    1.1560 ha        1 21V      0.115000
     43 H13         1.8830   -1.3670   -1.1920 hc        1 21V      0.035700
     44 H14         1.7000    0.3240   -1.8000 hc        1 21V      0.035700
     45 H15         2.5080    1.2690    0.3030 hc        1 21V      0.055200
     46 H16         2.4700   -0.3380    1.1240 hc        1 21V      0.055200
     47 H17         4.1340    0.1240   -1.4300 hc        1 21V      0.051700
     48 H18         4.3800   -1.7700    1.0240 h1        1 21V      0.067700
     49 H19         3.7390   -2.2370   -0.6190 h1        1 21V      0.067700
     50 H20         4.9530    1.8650    0.0490 hc        1 21V      0.070200
     51 H21         4.8340    0.8040    1.5050 hc        1 21V      0.070200
     52 H24        10.6900   -1.2130   -1.0660 hn        1 21V      0.401300
     53 H25        11.1390   -0.1100    0.0860 hn        1 21V      0.401300
     54 H26         5.8390   -2.2670   -1.4250 hn        1 21V      0.386800
     55 H22         8.3560   -2.1970   -0.6400 hn        1 21V      0.447800
@<TRIPOS>BOND
     1    1    2 1   
     2    2    3 1   
     3    2    4 1   
     4    4    5 1   
     5    4   33 1   
     6    4   34 1   
     7    5    6 1   
     8    5   35 1   
     9    5   36 1   
    10    6    7 1   
    11    6   10 1   
    12    6   37 1   
    13    7    8 1   
    14    7    9 1   
    15   10   11 1   
    16   10   38 1   
    17   11   12 2   
    18   11   13 1   
    19   13   14 ar  
    20   13   16 ar  
    21   14   15 ar  
    22   14   39 1   
    23   15   18 ar  
    24   15   40 1   
    25   16   17 ar  
    26   16   41 1   
    27   17   18 ar  
    28   17   42 1   
    29   18   19 1   
    30   19   20 1   
    31   19   43 1   
    32   19   44 1   
    33   20   21 1   
    34   20   45 1   
    35   20   46 1   
    36   21   22 1   
    37   21   24 1   
    38   21   47 1   
    39   22   23 1   
    40   22   48 1   
    41   22   49 1   
    42   23   28 1   
    43   23   54 1   
    44   24   25 1   
    45   24   50 1   
    46   24   51 1   
    47   25   26 1   
    48   25   28 2   
    49   26   27 2   
    50   26   31 1   
    51   28   29 1   
    52   29   30 1   
    53   29   55 1   
    54   30   31 2   
    55   30   32 1   
    56   32   52 1   
    57   32   53 1   
@<TRIPOS>SUBSTRUCTURE
     1 21V         1 TEMP              0 ****  ****    0 ROOT
