@<TRIPOS>MOLECULE
21V
   55    49     1     0     0
SMALL
bcc


@<TRIPOS>ATOM
      1 OE2        -4.8250    0.3060   -7.6880 o         1 21V     -0.608000
      2 CD         -5.0240   -0.8690   -8.0610 c2        1 21V      0.324000
      3 OE1        -5.9890   -1.1310   -8.8100 o         1 21V     -0.608000
      4 CG         -4.0560   -1.9310   -7.7050 c3        1 21V     -0.211000
      5 CB         -3.7410   -1.8560   -6.2090 c3        1 21V     -0.128000
      6 CA         -2.2560   -1.8440   -6.0140 c3        1 21V     -0.080000
      7 CT         -1.6980   -0.5480   -6.5200 c2        1 21V      0.316000
      8 O1         -2.0870    0.5350   -6.0280 o         1 21V     -0.592500
      9 O2         -0.8490   -0.5500   -7.4330 o         1 21V     -0.592500
     10 N          -1.9510   -1.9850   -4.6030 n3        1 21V     -0.271000
     11 C          -0.6010   -1.7620   -4.1270 c1        1 21V      0.325000
     12 O           0.3210   -1.7980   -4.8970 o         1 21V     -0.395000
     13 C11        -0.3340   -1.5550   -2.6000 c1        1 21V     -0.114000
     14 C12         0.3450   -2.5320   -1.8730 c1        1 21V     -0.127000
     15 C13         0.6460   -2.3170   -0.5250 c1        1 21V     -0.127000
     16 C16        -0.7130   -0.3630   -1.9830 c1        1 21V     -0.097000
     17 C15        -0.4120   -0.1480   -0.6400 c1        1 21V     -0.157000
     18 C14         0.2690   -1.1270    0.0910 c1        1 21V     -0.094000
     19 C10         0.4550   -0.9590    1.5740 c3        1 21V     -0.116000
     20 C9          0.8520    0.4770    1.8770 c3        1 21V     -0.148000
     21 C6          1.5350    0.5570    3.4430 c3        1 21V     -0.109000
     22 C7          0.6980    0.5100    4.1930 c3        1 21V     -0.047000
     23 N8          1.1310    0.6260    5.6650 n3        1 21V     -0.296000
     24 C5          2.4890    1.9380    3.5240 c3        1 21V     -0.084000
     25 C4A         2.9490    2.1930    4.8620 c1        1 21V     -0.326000
     26 C4          4.0670    3.0700    5.1890 c1        1 21V      0.325000
     27 O4          4.7940    3.4940    4.3000 o         1 21V     -0.350000
     28 C8A         1.9730    1.7110    6.0090 c1        1 21V      0.204000
     29 N1          2.1980    2.1300    7.3380 n2        1 21V     -0.301000
     30 C2          3.2950    3.0880    7.6410 c1        1 21V      0.215000
     31 N3          4.2760    3.4920    6.5590 n1        1 21V     -0.309000
     32 NA2         3.4330    3.6150    8.9540 n2        1 21V     -0.322000
     33 H2         -3.2260   -1.8060   -8.2220 hc        1 21V      0.060500
     34 H3         -4.4390   -2.8020   -7.9130 hc        1 21V      0.060500
     35 H4         -4.1260   -1.0390   -5.8340 hc        1 21V      0.091500
     36 H5         -4.1190   -2.6240   -5.7610 hc        1 21V      0.091500
     37 H6         -1.8580   -2.5850   -6.5080 h1        1 21V      0.109000
     38 H8         -2.6120   -2.2450   -4.0120 hn        1 21V      0.199000
     39 H9          0.6090   -3.3640   -2.3050 ha        1 21V      0.127000
     40 H10         1.1440   -2.9970   -0.0170 ha        1 21V      0.127000
     41 H11        -1.1890    0.3210   -2.4930 ha        1 21V      0.220000
     42 H12        -0.6810    0.6980   -0.2020 ha        1 21V      0.125000
     43 H13         1.1550   -1.5610    1.8830 hc        1 21V      0.079500
     44 H14        -0.3810   -1.1690    2.0320 hc        1 21V      0.079500
     45 H15         1.5170    0.7840    1.2110 hc        1 21V      0.080000
     46 H16         0.0570    1.0530    1.8360 hc        1 21V      0.080000
     47 H17         2.1130   -0.2290    3.5710 hc        1 21V      0.101000
     48 H18         0.2340   -0.3360    4.0780 h1        1 21V      0.110500
     49 H19         0.0710    1.2340    3.9980 h1        1 21V      0.110500
     50 H20         2.0440    2.7450    3.2060 hc        1 21V      0.091500
     51 H21         3.2220    1.8610    2.8810 hc        1 21V      0.091500
     52 H24         2.7280    3.5870    9.5340 hn        1 21V      0.196000
     53 H25         4.2150    4.0020    9.2080 hn        1 21V      0.196000
     54 H26         0.6620    0.1900    6.3140 hn        1 21V      0.227000
     55 H22         1.6700    1.8140    8.0100 hn        1 21V      0.246000
@<TRIPOS>BOND
     1    1    2 1   
     2    2    3 1   
     3    2    4 1   
     4    4    5 1   
     5    4   33 1   
     6    4   34 1   
     7    5    6 1   
     8    5   35 1   
     9    5   36 1   
    10    6    7 1   
    11    6   10 1   
    12    6   37 1   
    13    7    8 1   
    14    7    9 1   
    15   10   11 1   
    16   10   38 1   
    17   11   12 1   
    18   13   16 1   
    19   14   15 1   
    20   14   39 1   
    21   15   40 1   
    22   16   41 1   
    23   17   18 1   
    24   17   42 1   
    25   18   19 1   
    26   19   20 1   
    27   19   43 1   
    28   19   44 1   
    29   20   21 1   
    30   20   45 1   
    31   20   46 1   
    32   21   22 1   
    33   21   24 1   
    34   21   47 1   
    35   22   23 1   
    36   22   48 1   
    37   22   49 1   
    38   23   28 1   
    39   23   54 1   
    40   24   25 1   
    41   24   50 1   
    42   24   51 1   
    43   25   28 1   
    44   26   27 1   
    45   29   30 1   
    46   29   55 1   
    47   30   31 1   
    48   32   52 1   
    49   32   53 1   
@<TRIPOS>SUBSTRUCTURE
     1 21V         1 TEMP              0 ****  ****    0 ROOT
