@<TRIPOS>MOLECULE
21W
   46    49     1     0     0
SMALL
bcc


@<TRIPOS>ATOM
      1 C2          1.4010    1.1030   -0.8250 ca        1 21W     -0.114500
      2 C4          0.9650   -0.0320    1.2650 ca        1 21W     -0.114500
      3 C1          2.5830    0.3800   -0.9690 ca        1 21W     -0.125500
      4 C5          2.1470   -0.7540    1.1210 ca        1 21W     -0.125500
      5 C13         9.3690    0.9590    0.4390 cc        1 21W     -0.260600
      6 C12         9.7860    0.5470   -0.8440 cd        1 21W      0.288200
      7 C20        -4.1450   -1.3920    1.9830 cc        1 21W     -0.160100
      8 C23        -4.8460   -0.1170    0.1810 cd        1 21W     -0.205600
      9 C19        -3.8230   -0.3270    1.1560 cd        1 21W     -0.093600
     10 C3          0.5880    0.9020    0.2940 ca        1 21W     -0.104300
     11 C6          2.9600   -0.5540    0.0010 ca        1 21W     -0.089300
     12 C22        -5.9010   -1.0560    0.3440 cc        1 21W      0.125300
     13 C10         7.8330   -0.3900   -0.4960 cc        1 21W      0.377800
     14 C27        -7.1140   -0.1540   -1.3800 cd        1 21W      0.487800
     15 C24        -4.9650    0.8830   -0.8780 c         1 21W      0.729100
     16 C17        -2.5660    0.4260    1.3990 c         1 21W      0.689700
     17 C15        -0.6730    1.7000    0.4790 c3        1 21W      0.138300
     18 C7          4.2180   -1.3520   -0.1730 c3        1 21W      0.209100
     19 C9          6.5870   -1.2180   -0.6310 c3        1 21W      0.136500
     20 N14         8.1340    0.3570    0.6550 na        1 21W     -0.294900
     21 N28        -7.0390   -1.0800   -0.4450 nc        1 21W     -0.585100
     22 N11         8.8300   -0.2840   -1.4160 nd        1 21W     -0.667000
     23 N26        -6.1560    0.8160   -1.6370 n         1 21W     -0.485400
     24 N16        -1.8790    0.9320    0.3230 n         1 21W     -0.546900
     25 N8          5.4230   -0.5440   -0.0860 n3        1 21W     -0.835200
     26 O25        -4.1420    1.7660   -1.1840 o         1 21W     -0.635500
     27 O18        -2.1220    0.5360    2.5650 o         1 21W     -0.622100
     28 S21        -5.5930   -2.1070    1.6120 ss        1 21W      0.163200
     29 H1          1.1100    1.8350   -1.5940 ha        1 21W      0.144000
     30 H2          0.3180   -0.1840    2.1450 ha        1 21W      0.144000
     31 H3          3.2170    0.5400   -1.8530 ha        1 21W      0.132000
     32 H4          2.4420   -1.4820    1.8920 ha        1 21W      0.132000
     33 H6         10.7040    0.8030   -1.3690 h4        1 21W      0.041100
     34 H7         -3.5120   -1.7130    2.8160 h4        1 21W      0.201000
     35 H8         -8.0190   -0.1410   -2.0250 h5        1 21W      0.060800
     36 H9         -0.6550    2.1490    1.5170 h1        1 21W      0.067200
     37 H10        -0.6960    2.5430   -0.2710 h1        1 21W      0.067200
     38 H11         4.2900   -2.1350    0.6360 h1        1 21W      0.040700
     39 H12         4.1470   -1.9010   -1.1610 h1        1 21W      0.040700
     40 H13         6.4630   -1.4970   -1.7200 h1        1 21W      0.057700
     41 H14         6.7370   -2.1750   -0.0510 h1        1 21W      0.057700
     42 H15         7.5520    0.4590    1.4440 hn        1 21W      0.311700
     43 H17        -6.2950    1.4840   -2.3610 hn        1 21W      0.343500
     44 H18        -2.2860    0.8920   -0.5830 hn        1 21W      0.334500
     45 H19         5.2880    0.3460   -0.5300 hn        1 21W      0.368800
     46 H5          9.8430    1.6040    1.1740 h4        1 21W      0.176000
@<TRIPOS>BOND
     1    1    3 ar  
     2    1   10 ar  
     3    1   29 1   
     4    2    4 ar  
     5    2   10 ar  
     6    2   30 1   
     7    3   11 ar  
     8    3   31 1   
     9    4   11 ar  
    10    4   32 1   
    11    5    6 2   
    12    5   20 1   
    13    5   46 1   
    14    6   22 1   
    15    6   33 1   
    16    7    9 2   
    17    7   28 1   
    18    7   34 1   
    19    8    9 1   
    20    8   12 2   
    21    8   15 1   
    22    9   16 1   
    23   10   17 1   
    24   11   18 1   
    25   12   21 1   
    26   12   28 1   
    27   13   19 1   
    28   13   20 1   
    29   13   22 2   
    30   14   21 2   
    31   14   23 1   
    32   14   35 1   
    33   15   23 1   
    34   15   26 2   
    35   16   24 1   
    36   16   27 2   
    37   17   24 1   
    38   17   36 1   
    39   17   37 1   
    40   18   25 1   
    41   18   38 1   
    42   18   39 1   
    43   19   25 1   
    44   19   40 1   
    45   19   41 1   
    46   20   42 1   
    47   23   43 1   
    48   24   44 1   
    49   25   45 1   
@<TRIPOS>SUBSTRUCTURE
     1 21W         1 TEMP              0 ****  ****    0 ROOT
