@<TRIPOS>MOLECULE
21W
   48    51     1     0     0
SMALL
bcc


@<TRIPOS>ATOM
      1 C2         -0.4190   -0.6420    0.9470 ca        1 21W     -0.092500
      2 C4          0.4980   -1.1170    3.1410 ca        1 21W     -0.092500
      3 C1          0.8470   -0.2640    0.5000 ca        1 21W     -0.097000
      4 C5          1.7640   -0.7360    2.6940 ca        1 21W     -0.097000
      5 C13         6.1930    5.3290    0.8730 cc        1 21W     -0.185600
      6 C12         4.7900    5.5310    0.8120 cd        1 21W      0.321200
      7 C20        -5.8640   -4.2480    2.7870 cc        1 21W     -0.147100
      8 C23        -5.3100   -2.8730    0.9950 cd        1 21W     -0.209600
      9 C19        -4.8830   -3.4010    2.2530 cd        1 21W     -0.187600
     10 C3         -0.5950   -1.0670    2.2700 ca        1 21W     -0.124300
     11 C6          1.9400   -0.3070    1.3740 ca        1 21W     -0.145300
     12 C22        -6.6050   -3.3640    0.6670 cc        1 21W      0.127300
     13 C10         5.1350    3.3720    0.6350 cc        1 21W      0.250800
     14 C27        -6.6970   -2.1410   -1.2740 cd        1 21W      0.513800
     15 C24        -4.6880   -1.9260    0.0720 c         1 21W      0.737100
     16 C17        -3.6900   -3.1640    3.0400 c         1 21W      0.597700
     17 C15        -1.9660   -1.4000    2.7650 c3        1 21W      0.163100
     18 C7          3.3040    0.0590    0.8830 c3        1 21W      0.160100
     19 C9          4.9000    1.9110    0.4510 c3        1 21W      0.120500
     20 N14         6.4000    3.9620    0.7720 na        1 21W     -0.259900
     21 N28        -7.2930   -3.0060   -0.4750 nc        1 21W     -0.552100
     22 N11         4.1480    4.3190    0.6620 nd        1 21W     -0.669000
     23 N26        -5.4390   -1.5850   -1.0570 n         1 21W     -0.450400
     24 N16        -2.4160   -2.7600    2.3280 n4        1 21W     -0.671800
     25 N8          3.5590    1.5280    1.0030 n4        1 21W     -0.760000
     26 O25        -3.5490   -1.4150    0.2120 o         1 21W     -0.726500
     27 O18        -3.5670   -3.3040    4.2530 o         1 21W     -0.436100
     28 S21        -7.1890   -4.4050    1.8460 ss        1 21W      0.371200
     29 H1         -1.2860   -0.5970    0.2620 ha        1 21W      0.175000
     30 H2          0.3680   -1.4440    4.1860 ha        1 21W      0.175000
     31 H3          0.9780    0.0600   -0.5450 ha        1 21W      0.158000
     32 H4          2.6200   -0.7860    3.3860 ha        1 21W      0.158000
     33 H7         -5.7520   -4.7500    3.7580 h4        1 21W      0.220000
     34 H8         -7.2350   -1.8240   -2.1980 h5        1 21W      0.098800
     35 H9         -2.0020   -1.3720    3.8940 hx        1 21W      0.127200
     36 H10        -2.7120   -0.6560    2.3500 hx        1 21W      0.127200
     37 H11         4.0980   -0.4810    1.4780 hx        1 21W      0.114700
     38 H12         3.4190   -0.2240   -0.2040 hx        1 21W      0.114700
     39 H13         4.9040    1.6550   -0.6510 hx        1 21W      0.110700
     40 H14         5.6900    1.3000    0.9760 hx        1 21W      0.110700
     41 H15         7.2730    3.4980    0.7440 hn        1 21W      0.323700
     42 H17        -5.0610   -0.9230   -1.7050 hn        1 21W      0.365500
     43 H18        -1.6870   -3.4450    2.5560 hn        1 21W      0.468300
     44 H19         3.5050    1.8160    1.9880 hn        1 21W      0.467800
     45 H5          7.0130    6.0440    0.9760 h4        1 21W      0.215000
     46 H162       -2.5630   -2.7550    1.3060 hn        1 21W      0.468300
     47 H82         2.8270    2.0470    0.4950 hn        1 21W      0.467800
     48 H6          4.2430    6.4760    0.8670 h4        1 21W      0.076100
@<TRIPOS>BOND
     1    1    3 ar  
     2    1   10 ar  
     3    1   29 1   
     4    2    4 ar  
     5    2   10 ar  
     6    2   30 1   
     7    3   11 ar  
     8    3   31 1   
     9    4   11 ar  
    10    4   32 1   
    11    5    6 2   
    12    5   20 1   
    13    5   45 1   
    14    6   22 1   
    15    6   48 1   
    16    7    9 2   
    17    7   28 1   
    18    7   33 1   
    19    8    9 1   
    20    8   12 2   
    21    8   15 1   
    22    9   16 1   
    23   10   17 1   
    24   11   18 1   
    25   12   21 1   
    26   12   28 1   
    27   13   19 1   
    28   13   20 1   
    29   13   22 2   
    30   14   21 2   
    31   14   23 1   
    32   14   34 1   
    33   15   23 1   
    34   15   26 2   
    35   16   24 1   
    36   16   27 2   
    37   17   24 1   
    38   17   35 1   
    39   17   36 1   
    40   18   25 1   
    41   18   37 1   
    42   18   38 1   
    43   19   25 1   
    44   19   39 1   
    45   19   40 1   
    46   20   41 1   
    47   23   42 1   
    48   24   43 1   
    49   24   46 1   
    50   25   44 1   
    51   25   47 1   
@<TRIPOS>SUBSTRUCTURE
     1 21W         1 TEMP              0 ****  ****    0 ROOT
