@<TRIPOS>MOLECULE
21W
   46    36     1     0     0
SMALL
bcc


@<TRIPOS>ATOM
      1 C2          0.2370    0.2560   -1.2340 c1        1 21W     -0.068500
      2 C4          0.2400    0.3820    1.1660 c1        1 21W     -0.052500
      3 C1          1.6280    0.2860   -1.2360 c1        1 21W     -0.068500
      4 C5          1.6300    0.4110    1.1650 c1        1 21W     -0.060500
      5 C13         7.7710    4.4990    0.3080 cg        1 21W     -0.122000
      6 C12         7.4280    4.4680   -1.0170 ch        1 21W     -0.122000
      7 C20        -3.8980   -3.5480    0.6860 c1        1 21W     -0.131900
      8 C23        -6.1580   -2.6670    0.1780 cg        1 21W     -0.129000
      9 C19        -4.5830   -2.3470    0.2690 cg        1 21W     -0.129000
     10 C3         -0.4560    0.3040   -0.0350 c1        1 21W     -0.097000
     11 C6          2.3230    0.3630   -0.0340 c1        1 21W     -0.055100
     12 C22        -6.3600   -4.0300    0.5390 c1        1 21W     -0.131900
     13 C10         6.5260    2.7390   -0.0320 c1        1 21W      0.372800
     14 C27        -8.8170   -3.7560    0.1400 c1        1 21W      0.447300
     15 C24        -7.3110   -1.8380   -0.2560 c1        1 21W      0.819900
     16 C17        -3.9610   -1.0320   -0.0820 c1        1 21W      0.596500
     17 C15        -1.9890    0.4180   -0.0400 c2        1 21W      0.328100
     18 C7          3.8520    0.2100   -0.0920 c3        1 21W     -0.002600
     19 C9          5.8860    1.3530   -0.0640 c2        1 21W      0.307100
     20 N14         7.2140    3.4350    0.9060 ne        1 21W     -0.433400
     21 N28        -7.6800   -4.5850    0.5240 n1        1 21W     -0.483800
     22 N11         6.6650    3.3870   -1.2220 nf        1 21W     -0.433400
     23 N26        -8.6130   -2.3730   -0.2240 n2        1 21W     -0.789800
     24 N16        -2.5560   -0.8740   -0.0110 nh        1 21W     -0.460400
     25 N8          4.4500    1.4890   -0.1390 nh        1 21W     -0.399100
     26 O25        -7.1430   -0.6970   -0.5640 o         1 21W     -0.593500
     27 O18        -4.6560   -0.1060   -0.4160 o         1 21W     -0.616500
     28 S21        -4.9580   -4.6550    0.8760 ss        1 21W      0.252800
     29 H1         -0.2510    0.2010   -2.0770 ha        1 21W      0.073000
     30 H2         -0.2490    0.4160    2.0140 ha        1 21W      0.098500
     31 H3          2.1120    0.2520   -2.0740 ha        1 21W      0.073000
     32 H4          2.1160    0.4660    2.0040 ha        1 21W      0.077500
     33 H5          8.3220    5.1740    0.7400 DU        1 21W      0.204250
     34 H6          7.6950    5.1240   -1.6990 DU        1 21W      0.204250
     35 H7         -2.9390   -3.6250    0.8900 DU        1 21W      0.204250
     36 H8         -9.7140   -4.1240    0.1620 ha        1 21W      0.132500
     37 H9         -2.2820    0.8860   -0.8550 h4        1 21W     -0.022700
     38 H10        -2.2800    0.9190    0.7440 h4        1 21W     -0.022700
     39 H11         4.1610   -0.2650    0.7010 h1        1 21W      0.040700
     40 H12         4.0980   -0.2950   -0.8900 h1        1 21W      0.040700
     41 H13         6.1260    0.8610    0.7540 h4        1 21W     -0.032200
     42 H14         6.2120    0.8590   -0.8530 h4        1 21W     -0.032200
     43 H15         7.2860    3.2160    1.7990 DU        1 21W      0.204250
     44 H17        -9.3360   -1.8470   -0.4670 hn        1 21W      0.501400
     45 H18        -2.0110   -1.6140   -0.0300 hn        1 21W      0.297700
     46 H19         4.2230    1.9040   -0.9210 hn        1 21W      0.213700
@<TRIPOS>BOND
     1    1    3 3   
     2    1   29 1   
     3    2   10 3   
     4    2   30 1   
     5    3   31 1   
     6    4   11 3   
     7    4   32 1   
     8    5    6 3   
     9    5   20 1   
    10    6   22 1   
    11    7    9 3   
    12    7   28 1   
    13    8    9 1   
    14    8   12 3   
    15   11   18 1   
    16   12   28 1   
    17   13   20 2   
    18   13   22 2   
    19   14   21 3   
    20   14   36 1   
    21   15   23 2   
    22   15   26 2   
    23   16   24 2   
    24   16   27 2   
    25   17   24 2   
    26   17   37 1   
    27   17   38 1   
    28   18   25 1   
    29   18   39 1   
    30   18   40 1   
    31   19   25 2   
    32   19   41 1   
    33   19   42 1   
    34   23   44 1   
    35   24   45 1   
    36   25   46 1   
@<TRIPOS>SUBSTRUCTURE
     1 21W         1 TEMP              0 ****  ****    0 ROOT
