@<TRIPOS>MOLECULE
21W
   48    51     1     0     0
SMALL
bcc


@<TRIPOS>ATOM
      1 C2         -0.5040   -0.6640    0.7500 ca        1 21W     -0.090500
      2 C4          0.3020   -0.6440    3.0370 ca        1 21W     -0.090500
      3 C1          0.7800   -0.3660    0.2940 ca        1 21W     -0.099500
      4 C5          1.5850   -0.3490    2.5800 ca        1 21W     -0.099500
      5 C13         6.4810    5.1170    0.7290 cc        1 21W     -0.185600
      6 C12         5.4620    5.1780    1.7140 cd        1 21W      0.321200
      7 C20        -6.0160   -3.8830    3.0570 cc        1 21W     -0.147100
      8 C23        -5.3790   -2.9170    1.0400 cd        1 21W     -0.209600
      9 C19        -5.0140   -3.1540    2.4010 cd        1 21W     -0.187600
     10 C3         -0.7460   -0.7990    2.1220 ca        1 21W     -0.126300
     11 C6          1.8270   -0.2060    1.2090 ca        1 21W     -0.143300
     12 C22        -6.6520   -3.4900    0.7620 cc        1 21W      0.127300
     13 C10         5.4170    3.1550    0.8680 cc        1 21W      0.251800
     14 C27        -6.6520   -2.7150   -1.3990 cd        1 21W      0.513800
     15 C24        -4.7160   -2.1810   -0.0350 c         1 21W      0.737100
     16 C17        -3.8640   -2.7330    3.1750 c         1 21W      0.597700
     17 C15        -2.1390   -1.0410    2.6100 c3        1 21W      0.163100
     18 C7          3.2130    0.0690    0.7220 c3        1 21W      0.160100
     19 C9          5.0610    1.7250    0.6310 c3        1 21W      0.120500
     20 N14         6.4370    3.8400    0.1930 na        1 21W     -0.260900
     21 N28        -7.2830   -3.3980   -0.4620 nc        1 21W     -0.552100
     22 N11         4.8150    3.9620    1.7940 nd        1 21W     -0.671000
     23 N26        -5.4100   -2.1040   -1.2470 n         1 21W     -0.450400
     24 N16        -2.5570   -2.4710    2.4560 n4        1 21W     -0.671800
     25 N8          3.6250    1.4820    0.9900 n4        1 21W     -0.759000
     26 O25        -3.5880   -1.6320    0.0470 o         1 21W     -0.726500
     27 O18        -3.8020   -2.6070    4.3940 o         1 21W     -0.436100
     28 S21        -7.2900   -4.2610    2.1090 ss        1 21W      0.371200
     29 H1         -1.3350   -0.7810    0.0300 ha        1 21W      0.175000
     30 H2          0.1190   -0.7430    4.1210 ha        1 21W      0.175000
     31 H3          0.9600   -0.2650   -0.7890 ha        1 21W      0.158000
     32 H4          2.4070   -0.2420    3.3080 ha        1 21W      0.158000
     33 H7         -5.9510   -4.1610    4.1180 h4        1 21W      0.220000
     34 H8         -7.1430   -2.6150   -2.3950 h5        1 21W      0.098800
     35 H9         -2.2330   -0.7710    3.7030 hx        1 21W      0.127200
     36 H10        -2.8670   -0.4170    2.0080 hx        1 21W      0.127200
     37 H11         3.9480   -0.6110    1.2470 hx        1 21W      0.115200
     38 H12         3.2920   -0.1110   -0.3900 hx        1 21W      0.115200
     39 H13         5.2110    1.4410   -0.4500 hx        1 21W      0.110700
     40 H14         5.6970    1.0560    1.2830 hx        1 21W      0.110700
     41 H15         7.0430    3.4660   -0.4930 hn        1 21W      0.323700
     42 H17        -5.0040   -1.5920   -2.0020 hn        1 21W      0.365500
     43 H18        -2.6520   -2.6880    1.4510 hn        1 21W      0.468300
     44 H19         3.4880    1.6960    1.9900 hn        1 21W      0.467800
     45 H5          7.1980    5.8720    0.3970 h4        1 21W      0.215000
     46 H162       -1.8370   -3.0780    2.8620 hn        1 21W      0.468300
     47 H82         3.0300    2.1300    0.4590 hn        1 21W      0.467800
     48 H6          5.1870    6.0250    2.3470 h4        1 21W      0.076100
@<TRIPOS>BOND
     1    1    3 ar  
     2    1   10 ar  
     3    1   29 1   
     4    2    4 ar  
     5    2   10 ar  
     6    2   30 1   
     7    3   11 ar  
     8    3   31 1   
     9    4   11 ar  
    10    4   32 1   
    11    5    6 2   
    12    5   20 1   
    13    5   45 1   
    14    6   22 1   
    15    6   48 1   
    16    7    9 2   
    17    7   28 1   
    18    7   33 1   
    19    8    9 1   
    20    8   12 2   
    21    8   15 1   
    22    9   16 1   
    23   10   17 1   
    24   11   18 1   
    25   12   21 1   
    26   12   28 1   
    27   13   19 1   
    28   13   20 1   
    29   13   22 2   
    30   14   21 2   
    31   14   23 1   
    32   14   34 1   
    33   15   23 1   
    34   15   26 2   
    35   16   24 1   
    36   16   27 2   
    37   17   24 1   
    38   17   35 1   
    39   17   36 1   
    40   18   25 1   
    41   18   37 1   
    42   18   38 1   
    43   19   25 1   
    44   19   39 1   
    45   19   40 1   
    46   20   41 1   
    47   23   42 1   
    48   24   43 1   
    49   24   46 1   
    50   25   44 1   
    51   25   47 1   
@<TRIPOS>SUBSTRUCTURE
     1 21W         1 TEMP              0 ****  ****    0 ROOT
