@<TRIPOS>MOLECULE
21W
   48    51     1     0     0
SMALL
bcc


@<TRIPOS>ATOM
      1 C2         -0.4180   -0.6380    0.9480 ca        1 21W     -0.092500
      2 C4          0.5240   -1.1590    3.1210 ca        1 21W     -0.092500
      3 C1          0.8420   -0.2450    0.4960 ca        1 21W     -0.097000
      4 C5          1.7830   -0.7640    2.6690 ca        1 21W     -0.097000
      5 C13         6.1590    5.3640    0.9070 cc        1 21W     -0.185600
      6 C12         4.7540    5.5580    0.8600 cd        1 21W      0.320200
      7 C20        -5.8330   -4.3010    2.7620 cc        1 21W     -0.147100
      8 C23        -5.3020   -2.8850    0.9970 cd        1 21W     -0.209600
      9 C19        -4.8600   -3.4400    2.2380 cd        1 21W     -0.187600
     10 C3         -0.5790   -1.0920    2.2620 ca        1 21W     -0.125300
     11 C6          1.9440   -0.3050    1.3570 ca        1 21W     -0.145300
     12 C22        -6.5980   -3.3730    0.6710 cc        1 21W      0.127300
     13 C10         5.1110    3.4050    0.6480 cc        1 21W      0.250800
     14 C27        -6.7150   -2.1060   -1.2400 cd        1 21W      0.513800
     15 C24        -4.6920   -1.9150    0.0890 c         1 21W      0.737100
     16 C17        -3.6590   -3.2170    3.0170 c         1 21W      0.597700
     17 C15        -1.9430   -1.4420    2.7640 c3        1 21W      0.163100
     18 C7          3.3020    0.0770    0.8610 c3        1 21W      0.160100
     19 C9          4.8830    1.9450    0.4430 c3        1 21W      0.120500
     20 N14         6.3730    4.0000    0.7840 na        1 21W     -0.259900
     21 N28        -7.3000   -2.9910   -0.4550 nc        1 21W     -0.552100
     22 N11         4.1190    4.3450    0.6960 nd        1 21W     -0.669000
     23 N26        -5.4560   -1.5510   -1.0250 ns        1 21W     -0.450400
     24 N16        -2.3940   -2.7930    2.3010 ny        1 21W     -0.671800
     25 N8          3.5500    1.5460    1.0020 ny        1 21W     -0.760000
     26 O25        -3.5530   -1.4030    0.2290 o         1 21W     -0.726500
     27 O18        -3.5230   -3.3840    4.2250 o         1 21W     -0.436100
     28 S21        -7.1670   -4.4410    1.8320 ss        1 21W      0.371200
     29 H1         -1.2920   -0.5800    0.2730 ha        1 21W      0.175000
     30 H2          0.4060   -1.5110    4.1600 ha        1 21W      0.175000
     31 H3          0.9610    0.1030   -0.5430 ha        1 21W      0.158000
     32 H4          2.6470   -0.8270    3.3520 ha        1 21W      0.158000
     33 H7         -5.7090   -4.8250    3.7210 h4        1 21W      0.220000
     34 H8         -7.2630   -1.7700   -2.1520 h5        1 21W      0.098800
     35 H9         -1.9670   -1.4390    3.8940 hx        1 21W      0.127200
     36 H10        -2.6960   -0.6910    2.3740 hx        1 21W      0.127200
     37 H11         4.1040   -0.4680    1.4400 hx        1 21W      0.114700
     38 H12         3.4090   -0.1880   -0.2320 hx        1 21W      0.114700
     39 H13         4.8780    1.7060   -0.6620 hx        1 21W      0.110700
     40 H14         5.6820    1.3310    0.9510 hx        1 21W      0.110700
     41 H15         7.2490    3.5420    0.7430 hn        1 21W      0.323700
     42 H17        -5.0870   -0.8740   -1.6610 hn        1 21W      0.365500
     43 H18        -2.5520   -2.7650    1.2810 hn        1 21W      0.468300
     44 H19         3.5030    1.8170    1.9920 hn        1 21W      0.467800
     45 H5          6.9760    6.0820    1.0150 h4        1 21W      0.215000
     46 H162       -1.6610   -3.4810    2.5060 hn        1 21W      0.468300
     47 H82         2.8100    2.0680    0.5100 hn        1 21W      0.467800
     48 H6          4.2020    6.4990    0.9320 h4        1 21W      0.076100
@<TRIPOS>BOND
     1    1    3 ar  
     2    1   10 ar  
     3    1   29 1   
     4    2    4 ar  
     5    2   10 ar  
     6    2   30 1   
     7    3   11 ar  
     8    3   31 1   
     9    4   11 ar  
    10    4   32 1   
    11    5    6 2   
    12    5   20 1   
    13    5   45 1   
    14    6   22 1   
    15    6   48 1   
    16    7    9 2   
    17    7   28 1   
    18    7   33 1   
    19    8    9 1   
    20    8   12 2   
    21    8   15 1   
    22    9   16 1   
    23   10   17 1   
    24   11   18 1   
    25   12   21 1   
    26   12   28 1   
    27   13   19 1   
    28   13   20 1   
    29   13   22 2   
    30   14   21 2   
    31   14   23 1   
    32   14   34 1   
    33   15   23 1   
    34   15   26 2   
    35   16   24 1   
    36   16   27 2   
    37   17   24 1   
    38   17   35 1   
    39   17   36 1   
    40   18   25 1   
    41   18   37 1   
    42   18   38 1   
    43   19   25 1   
    44   19   39 1   
    45   19   40 1   
    46   20   41 1   
    47   23   42 1   
    48   24   43 1   
    49   24   46 1   
    50   25   44 1   
    51   25   47 1   
@<TRIPOS>SUBSTRUCTURE
     1 21W         1 TEMP              0 ****  ****    0 ROOT
