@<TRIPOS>MOLECULE
21X
   38    40     1     0     0
SMALL
bcc


@<TRIPOS>ATOM
      1 C1         -0.0010   -0.4100    0.4480 ca        1 21X     -0.091500
      2 C5          0.5450    0.7380    2.5120 ca        1 21X     -0.091500
      3 C2          1.3170   -0.8520    0.3460 ca        1 21X     -0.096000
      4 C4          1.8640    0.2930    2.4120 ca        1 21X     -0.096000
      5 C14         6.0930   -4.5080   -0.9640 cc        1 21X     -0.147100
      6 C17         6.8810   -3.3690    0.9050 cd        1 21X     -0.210600
      7 C13         5.7640   -3.5800    0.0360 cd        1 21X     -0.190600
      8 C6         -0.3900    0.3880    1.5310 ca        1 21X     -0.159300
      9 C3          2.2530   -0.5010    1.3270 ca        1 21X     -0.116300
     10 C16         7.9860   -4.1640    0.4930 cc        1 21X      0.131300
     11 C21         9.3420   -3.3400    2.1510 cd        1 21X      0.518800
     12 C18         7.0730   -2.4850    2.0540 c         1 21X      0.734100
     13 C11         4.4460   -2.9860    0.0030 c         1 21X      0.600700
     14 C7         -1.8150    0.8080    1.6750 c3        1 21X      0.161100
     15 C9          3.6830   -0.9200    1.1840 c3        1 21X      0.162100
     16 N22         9.2140   -4.1570    1.1220 nc        1 21X     -0.556100
     17 N20         8.3420   -2.5070    2.6430 n         1 21X     -0.447400
     18 N8         -2.0720    2.1560    1.0730 n4        1 21X     -0.841600
     19 N10         3.8710   -2.4060    1.2770 n4        1 21X     -0.673800
     20 O19         6.1980   -1.7290    2.5430 o         1 21X     -0.713500
     21 O12         3.6820   -2.9310   -0.9590 o         1 21X     -0.461100
     22 S15         7.6130   -5.0890   -0.8580 ss        1 21X      0.372200
     23 H1         -0.7310   -0.7050   -0.3240 ha        1 21X      0.160000
     24 H2          0.2470    1.3490    3.3800 ha        1 21X      0.160000
     25 H3          1.6240   -1.4720   -0.5160 ha        1 21X      0.174000
     26 H4          2.5940    0.5750    3.1900 ha        1 21X      0.174000
     27 H6         10.3280   -3.3070    2.6750 h5        1 21X      0.100800
     28 H7         -2.5010    0.0700    1.1620 hx        1 21X      0.124200
     29 H8         -2.1020    0.8640    2.7680 hx        1 21X      0.124200
     30 H9          4.3300   -0.4490    1.9860 hx        1 21X      0.130700
     31 H10         4.0680   -0.5730    0.1790 hx        1 21X      0.130700
     32 H11         8.5200   -1.9070    3.4230 hn        1 21X      0.370500
     33 H12        -1.4830    2.8640    1.5240 hn        1 21X      0.466133
     34 H13        -3.0580    2.4120    1.1990 hn        1 21X      0.466133
     35 H15         4.5030   -2.6140    2.0700 hn        1 21X      0.472800
     36 H83        -1.8550    2.1450    0.0710 hn        1 21X      0.466133
     37 H102        2.9650   -2.8550    1.4490 hn        1 21X      0.472800
     38 H5          5.3860   -4.8070   -1.7510 h4        1 21X      0.217000
@<TRIPOS>BOND
     1    1    3 ar  
     2    1    8 ar  
     3    1   23 1   
     4    2    4 ar  
     5    2    8 ar  
     6    2   24 1   
     7    3    9 ar  
     8    3   25 1   
     9    4    9 ar  
    10    4   26 1   
    11    5    7 2   
    12    5   22 1   
    13    5   38 1   
    14    6    7 1   
    15    6   10 2   
    16    6   12 1   
    17    7   13 1   
    18    8   14 1   
    19    9   15 1   
    20   10   16 1   
    21   10   22 1   
    22   11   16 2   
    23   11   17 1   
    24   11   27 1   
    25   12   17 1   
    26   12   20 2   
    27   13   19 1   
    28   13   21 2   
    29   14   18 1   
    30   14   28 1   
    31   14   29 1   
    32   15   19 1   
    33   15   30 1   
    34   15   31 1   
    35   17   32 1   
    36   18   33 1   
    37   18   34 1   
    38   18   36 1   
    39   19   35 1   
    40   19   37 1   
@<TRIPOS>SUBSTRUCTURE
     1 21X         1 TEMP              0 ****  ****    0 ROOT
