@<TRIPOS>MOLECULE
21X
   38    40     1     0     0
SMALL
bcc


@<TRIPOS>ATOM
      1 C1         -0.1750   -0.1410    0.3980 ca        1 21X     -0.096000
      2 C5          1.1270    0.2700    2.4010 ca        1 21X     -0.096000
      3 C2          0.9410   -0.7110   -0.2130 ca        1 21X     -0.092000
      4 C4          2.2440   -0.3020    1.7910 ca        1 21X     -0.092000
      5 C14         6.7930   -4.7210   -0.6160 cc        1 21X     -0.146100
      6 C17         6.7070   -3.2230    1.1600 cd        1 21X     -0.210600
      7 C13         6.0300   -3.7220    0.0040 cd        1 21X     -0.188600
      8 C6         -0.0840    0.3530    1.7050 ca        1 21X     -0.156300
      9 C3          2.1530   -0.7910    0.4830 ca        1 21X     -0.118300
     10 C16         7.9530   -3.8890    1.3300 cc        1 21X      0.127300
     11 C21         8.4990   -2.6310    3.1710 cd        1 21X      0.513800
     12 C18         6.3670   -2.1650    2.1090 c         1 21X      0.738100
     13 C11         4.7800   -3.3370   -0.6180 c         1 21X      0.598700
     14 C7         -1.2970    0.9070    2.3760 c3        1 21X      0.161100
     15 C9          3.3720   -1.3390   -0.1910 c3        1 21X      0.161100
     16 N22         8.8440   -3.6000    2.3430 nc        1 21X     -0.551100
     17 N20         7.3150   -1.9030    3.1030 n         1 21X     -0.449400
     18 N8         -1.5580    2.3300    1.9880 n4        1 21X     -0.841600
     19 N10         3.6920   -2.7330    0.2480 n4        1 21X     -0.672800
     20 O19         5.3030   -1.4950    2.1020 o         1 21X     -0.730500
     21 O12         4.4610   -3.4890   -1.7930 o         1 21X     -0.435100
     22 S15         8.2050   -5.0420    0.1370 ss        1 21X      0.375200
     23 H1         -1.1290   -0.1000   -0.1530 ha        1 21X      0.158500
     24 H2          1.2070    0.6420    3.4360 ha        1 21X      0.158500
     25 H3          0.8620   -1.0900   -1.2460 ha        1 21X      0.177500
     26 H4          3.2050   -0.3610    2.3370 ha        1 21X      0.177500
     27 H6          9.2060   -2.3680    3.9930 h5        1 21X      0.099800
     28 H7         -1.1810    0.8770    3.5010 hx        1 21X      0.124700
     29 H8         -2.2120    0.3050    2.0930 hx        1 21X      0.124700
     30 H9          4.2690   -0.6970    0.0660 hx        1 21X      0.128700
     31 H10         3.2360   -1.3540   -1.3130 hx        1 21X      0.128700
     32 H11         7.1330   -1.1730    3.7610 hn        1 21X      0.365500
     33 H12        -0.7700    2.9250    2.2670 hn        1 21X      0.466133
     34 H13        -1.6740    2.4030    0.9710 hn        1 21X      0.466133
     35 H15         2.8530   -3.3160    0.1640 hn        1 21X      0.468300
     36 H83        -2.4110    2.6670    2.4470 hn        1 21X      0.466133
     37 H102        3.9910   -2.7160    1.2370 hn        1 21X      0.468300
     38 H5          6.4710   -5.2310   -1.5350 h4        1 21X      0.220000
@<TRIPOS>BOND
     1    1    3 ar  
     2    1    8 ar  
     3    1   23 1   
     4    2    4 ar  
     5    2    8 ar  
     6    2   24 1   
     7    3    9 ar  
     8    3   25 1   
     9    4    9 ar  
    10    4   26 1   
    11    5    7 2   
    12    5   22 1   
    13    5   38 1   
    14    6    7 1   
    15    6   10 2   
    16    6   12 1   
    17    7   13 1   
    18    8   14 1   
    19    9   15 1   
    20   10   16 1   
    21   10   22 1   
    22   11   16 2   
    23   11   17 1   
    24   11   27 1   
    25   12   17 1   
    26   12   20 2   
    27   13   19 1   
    28   13   21 2   
    29   14   18 1   
    30   14   28 1   
    31   14   29 1   
    32   15   19 1   
    33   15   30 1   
    34   15   31 1   
    35   17   32 1   
    36   18   33 1   
    37   18   34 1   
    38   18   36 1   
    39   19   35 1   
    40   19   37 1   
@<TRIPOS>SUBSTRUCTURE
     1 21X         1 TEMP              0 ****  ****    0 ROOT
