@<TRIPOS>MOLECULE
21X
   38    40     1     0     0
SMALL
bcc


@<TRIPOS>ATOM
      1 C1         -0.1590   -0.0930    0.4010 ca        1 21X     -0.096000
      2 C5          1.0980    0.1870    2.4540 ca        1 21X     -0.096000
      3 C2          0.9720   -0.6220   -0.2210 ca        1 21X     -0.092000
      4 C4          2.2290   -0.3440    1.8330 ca        1 21X     -0.092000
      5 C14         6.8380   -4.5940   -0.7580 cc        1 21X     -0.146100
      6 C17         6.7100   -3.2150    1.1100 cd        1 21X     -0.210600
      7 C13         6.0590   -3.6380   -0.0910 cd        1 21X     -0.188600
      8 C6         -0.0980    0.3140    1.7390 ca        1 21X     -0.156300
      9 C3          2.1680   -0.7460    0.4940 ca        1 21X     -0.118300
     10 C16         7.9540   -3.8900    1.2630 cc        1 21X      0.127300
     11 C21         8.4580   -2.7560    3.1940 cd        1 21X      0.513800
     12 C18         6.3480   -2.2210    2.1190 c         1 21X      0.738100
     13 C11         4.8230   -3.2130   -0.7130 c         1 21X      0.598700
     14 C7         -1.3260    0.8230    2.4180 c3        1 21X      0.161100
     15 C9          3.4020   -1.2480   -0.1870 c3        1 21X      0.161100
     16 N22         8.8220   -3.6680    2.3120 nc        1 21X     -0.551100
     17 N20         7.2730   -2.0250    3.1480 ns        1 21X     -0.449400
     18 N8         -1.5800    2.2690    2.1180 nz        1 21X     -0.841600
     19 N10         3.7150   -2.6680    0.1670 ny        1 21X     -0.672800
     20 O19         5.2830   -1.5530    2.1320 o         1 21X     -0.730500
     21 O12         4.5290   -3.2880   -1.9020 o         1 21X     -0.435100
     22 S15         8.2340   -4.9620    0.0030 ss        1 21X      0.375200
     23 H1         -1.1010   -0.0160   -0.1670 ha        1 21X      0.158500
     24 H2          1.1550    0.4910    3.5130 ha        1 21X      0.158500
     25 H3          0.9150   -0.9320   -1.2780 ha        1 21X      0.177500
     26 H4          3.1780   -0.4380    2.3950 ha        1 21X      0.177500
     27 H6          9.1450   -2.5460    4.0470 h5        1 21X      0.099800
     28 H7         -2.2340    0.2410    2.0770 hx        1 21X      0.124700
     29 H8         -1.2350    0.7200    3.5410 hx        1 21X      0.124700
     30 H9          4.2920   -0.6240    0.1310 hx        1 21X      0.128700
     31 H10         3.2900   -1.1900   -1.3100 hx        1 21X      0.128700
     32 H11         7.0760   -1.3390    3.8480 hn        1 21X      0.365500
     33 H12        -0.8000    2.8450    2.4530 hn        1 21X      0.466133
     34 H13        -2.4440    2.5750    2.5800 hn        1 21X      0.466133
     35 H15         3.9930   -2.7160    1.1610 hn        1 21X      0.468300
     36 H83        -1.6750    2.4080    1.1060 hn        1 21X      0.466133
     37 H102        2.8790   -3.2450    0.0260 hn        1 21X      0.468300
     38 H5          6.5370   -5.0430   -1.7150 h4        1 21X      0.220000
@<TRIPOS>BOND
     1    1    3 ar  
     2    1    8 ar  
     3    1   23 1   
     4    2    4 ar  
     5    2    8 ar  
     6    2   24 1   
     7    3    9 ar  
     8    3   25 1   
     9    4    9 ar  
    10    4   26 1   
    11    5    7 2   
    12    5   22 1   
    13    5   38 1   
    14    6    7 1   
    15    6   10 2   
    16    6   12 1   
    17    7   13 1   
    18    8   14 1   
    19    9   15 1   
    20   10   16 1   
    21   10   22 1   
    22   11   16 2   
    23   11   17 1   
    24   11   27 1   
    25   12   17 1   
    26   12   20 2   
    27   13   19 1   
    28   13   21 2   
    29   14   18 1   
    30   14   28 1   
    31   14   29 1   
    32   15   19 1   
    33   15   30 1   
    34   15   31 1   
    35   17   32 1   
    36   18   33 1   
    37   18   34 1   
    38   18   36 1   
    39   19   35 1   
    40   19   37 1   
@<TRIPOS>SUBSTRUCTURE
     1 21X         1 TEMP              0 ****  ****    0 ROOT
