@<TRIPOS>MOLECULE
21X
   36    29     1     0     0
SMALL
bcc


@<TRIPOS>ATOM
      1 C1         -3.6220    1.4620   -1.1940 c1        1 21X     -0.073500
      2 C5         -3.6130    1.3480    1.2290 c1        1 21X     -0.062500
      3 C2         -2.2200    1.4390   -1.1970 c1        1 21X     -0.055500
      4 C4         -2.2230    1.3250    1.2270 c1        1 21X     -0.062500
      5 C14         1.8070   -2.7540    0.1600 c1        1 21X     -0.131900
      6 C17         4.1320   -1.9090   -0.0770 cg        1 21X     -0.129000
      7 C13         2.5700   -1.5290   -0.0100 cg        1 21X     -0.129000
      8 C6         -4.3190    1.4170    0.0160 c1        1 21X     -0.059100
      9 C3         -1.5210    1.3710    0.0100 c1        1 21X     -0.101000
     10 C16         4.2590   -3.3300    0.0530 c1        1 21X     -0.131900
     11 C21         6.7900   -3.0840   -0.0160 c1        1 21X      0.447300
     12 C18         5.3620   -1.0460   -0.1090 c1        1 21X      0.819900
     13 C11         1.9930   -0.0930   -0.0820 c1        1 21X      0.596500
     14 C7         -5.7760    1.3000    0.0140 c3        1 21X      0.168900
     15 C9          0.0370    1.4210   -0.0070 c2        1 21X      0.329100
     16 N22         5.5810   -3.9380    0.0850 n1        1 21X     -0.484800
     17 N20         6.6540   -1.6480   -0.1470 n2        1 21X     -0.790800
     18 N8         -6.3590    2.6040    0.1590 n3        1 21X     -0.916800
     19 N10         0.5480    0.1220    0.0110 nh        1 21X     -0.460400
     20 O19         5.2550    0.1620   -0.1060 o         1 21X     -0.592500
     21 O12         2.7260    0.8370   -0.2220 o         1 21X     -0.617500
     22 S15         2.8040   -3.9320    0.2080 ss        1 21X      0.249800
     23 H1         -4.1080    1.5090   -2.0300 ha        1 21X      0.072500
     24 H2         -4.0970    1.3170    2.0710 ha        1 21X      0.081000
     25 H3         -1.7200    1.4720   -2.0630 ha        1 21X      0.095500
     26 H4         -1.7310    1.2760    2.0740 ha        1 21X      0.081000
     27 H5          0.8380   -2.8200    0.2270 DU        1 21X      0.201000
     28 H6          7.6850   -3.4970   -0.0450 ha        1 21X      0.131500
     29 H7         -6.0500    0.7470    0.7380 h1        1 21X      0.033700
     30 H8         -6.0750    0.8970   -0.8420 h1        1 21X      0.033700
     31 H9          0.3600    1.9150    0.7910 h4        1 21X     -0.023700
     32 H10         0.3490    1.8910   -0.8410 h4        1 21X     -0.023700
     33 H11         7.4270   -1.1040   -0.2090 hn        1 21X      0.500400
     34 H12        -6.6750    2.8780   -0.6270 hn        1 21X      0.351300
     35 H13        -7.0410    2.5690    0.7650 hn        1 21X      0.351300
     36 H15        -0.0270   -0.5980   -0.0120 hn        1 21X      0.297700
@<TRIPOS>BOND
     1    1    8 3   
     2    1   23 1   
     3    2    4 3   
     4    2   24 1   
     5    3    9 3   
     6    3   25 1   
     7    4   26 1   
     8    5    7 3   
     9    5   22 1   
    10    6    7 1   
    11    6   10 3   
    12    8   14 1   
    13   10   22 1   
    14   11   16 3   
    15   11   28 1   
    16   12   17 2   
    17   12   20 2   
    18   13   19 2   
    19   13   21 2   
    20   14   18 1   
    21   14   29 1   
    22   14   30 1   
    23   15   19 2   
    24   15   31 1   
    25   15   32 1   
    26   17   33 1   
    27   18   34 1   
    28   18   35 1   
    29   19   36 1   
@<TRIPOS>SUBSTRUCTURE
     1 21X         1 TEMP              0 ****  ****    0 ROOT
