@<TRIPOS>MOLECULE
21X
   36    38     1     0     0
SMALL
bcc


@<TRIPOS>ATOM
      1 C1         -4.6620   -0.5180    1.1960 ca        1 21X     -0.129000
      2 C5         -4.3230    0.6970   -0.8640 ca        1 21X     -0.129000
      3 C2         -3.4800   -1.2230    0.9770 ca        1 21X     -0.114000
      4 C4         -3.1410   -0.0070   -1.0840 ca        1 21X     -0.114000
      5 C14         1.9130    1.4250   -1.9930 cc        1 21X     -0.160100
      6 C17         2.7000    0.1220   -0.2470 cd        1 21X     -0.205600
      7 C13         1.6390    0.3370   -1.1780 cd        1 21X     -0.093600
      8 C6         -5.0910    0.4450    0.2770 ca        1 21X     -0.127300
      9 C3         -2.7160   -0.9730   -0.1660 ca        1 21X     -0.107300
     10 C16         3.7340    1.0810   -0.4270 cc        1 21X      0.125300
     11 C21         5.0240    0.1610    1.2300 cd        1 21X      0.487800
     12 C18         2.8740   -0.8990    0.7850 c         1 21X      0.729100
     13 C11         0.3840   -0.4300   -1.3920 c         1 21X      0.689700
     14 C7         -6.3610    1.2110    0.5270 c3        1 21X      0.194100
     15 C9         -1.4570   -1.7500   -0.4310 c3        1 21X      0.139300
     16 N22         4.9000    1.1070    0.3190 nc        1 21X     -0.585100
     17 N20         4.0910   -0.8290    1.5000 n         1 21X     -0.486400
     18 N8         -7.5750    0.4380    0.5930 n3        1 21X     -0.900800
     19 N10        -0.2530   -0.9730   -0.3040 n         1 21X     -0.546900
     20 O19         2.0770   -1.8010    1.1010 o         1 21X     -0.635500
     21 O12        -0.1010   -0.5190   -2.5430 o         1 21X     -0.623100
     22 S15         3.3630    2.1540   -1.6590 ss        1 21X      0.162200
     23 H1         -5.2570   -0.7150    2.1000 ha        1 21X      0.130500
     24 H2         -4.6510    1.4540   -1.5920 ha        1 21X      0.130500
     25 H3         -3.1500   -1.9770    1.7070 ha        1 21X      0.143000
     26 H4         -2.5310    0.1860   -1.9830 ha        1 21X      0.143000
     27 H6          5.9520    0.1500    1.8410 h5        1 21X      0.059800
     28 H7         -6.2510    1.7580    1.5100 h1        1 21X      0.058700
     29 H8         -6.4920    1.9890   -0.2790 h1        1 21X      0.058700
     30 H9         -1.3920   -2.6160    0.2890 h1        1 21X      0.066200
     31 H10        -1.5150   -2.1660   -1.4820 h1        1 21X      0.066200
     32 H11         4.2670   -1.5100    2.2040 hn        1 21X      0.343500
     33 H12        -7.7620   -0.0080   -0.2840 hn        1 21X      0.346800
     34 H13        -7.5100   -0.2680    1.3010 hn        1 21X      0.346800
     35 H15         0.1850   -0.9450    0.5880 hn        1 21X      0.334500
     36 H5          1.2450    1.7540   -2.7940 h4        1 21X      0.202000
@<TRIPOS>BOND
     1    1    3 ar  
     2    1    8 ar  
     3    1   23 1   
     4    2    4 ar  
     5    2    8 ar  
     6    2   24 1   
     7    3    9 ar  
     8    3   25 1   
     9    4    9 ar  
    10    4   26 1   
    11    5    7 2   
    12    5   22 1   
    13    5   36 1   
    14    6    7 1   
    15    6   10 2   
    16    6   12 1   
    17    7   13 1   
    18    8   14 1   
    19    9   15 1   
    20   10   16 1   
    21   10   22 1   
    22   11   16 2   
    23   11   17 1   
    24   11   27 1   
    25   12   17 1   
    26   12   20 2   
    27   13   19 1   
    28   13   21 2   
    29   14   18 1   
    30   14   28 1   
    31   14   29 1   
    32   15   19 1   
    33   15   30 1   
    34   15   31 1   
    35   17   32 1   
    36   18   33 1   
    37   18   34 1   
    38   19   35 1   
@<TRIPOS>SUBSTRUCTURE
     1 21X         1 TEMP              0 ****  ****    0 ROOT
