@<TRIPOS>MOLECULE
21Y
   45    46     1     0     0
SMALL
bcc


@<TRIPOS>ATOM
      1 C17        -3.9930    1.0450   -1.1390 c3        1 21Y      0.065500
      2 C20        -7.0990   -0.3440    0.6530 c3        1 21Y     -0.143400
      3 C21        -8.3680    0.3560    1.0690 c3        1 21Y     -0.088100
      4 C24        -3.1270   -1.2800    0.3220 c3        1 21Y      0.064500
      5 O01        -0.6750   -2.0500   -0.6520 o         1 21Y     -0.609100
      6 C02        -0.9350   -0.8300   -0.6910 c         1 21Y      0.622100
      7 C03         0.0880    0.1740   -1.2490 c3        1 21Y      0.113800
      8 N04         1.4050   -0.3590   -1.4900 nh        1 21Y     -0.683600
      9 C05         2.3620   -0.2550   -0.4530 ca        1 21Y      0.112600
     10 C06         2.5930    0.9650    0.2060 ca        1 21Y     -0.136000
     11 C07         3.5990    1.0920    1.1680 ca        1 21Y      0.014400
     12 CL1         3.8050    2.5950    1.9320 cl        1 21Y     -0.072400
     13 C09         4.4150    0.0020    1.4870 ca        1 21Y      0.022400
     14 CL2         5.6410    0.1250    2.6520 cl        1 21Y     -0.069400
     15 C11         4.2240   -1.2200    0.8330 ca        1 21Y     -0.165000
     16 C12         3.2160   -1.3520   -0.1190 ca        1 21Y      0.095100
     17 O13         3.0100   -2.5190   -0.8330 os        1 21Y     -0.328900
     18 C14         3.4900   -3.7150   -0.2270 c3        1 21Y      0.116700
     19 N15        -2.1430   -0.3570   -0.2010 n         1 21Y     -0.468800
     20 C16        -2.6230    0.9860   -0.4190 c3        1 21Y      0.064500
     21 N18        -4.9760    0.1330   -0.5990 n         1 21Y     -0.471800
     22 C19        -6.1220    0.6290    0.0220 c         1 21Y      0.656100
     23 O22        -6.3510    1.8550   -0.0000 o         1 21Y     -0.602100
     24 C23        -4.4900   -1.2120   -0.4080 c3        1 21Y      0.065500
     25 H171       -4.3740    2.1040   -1.0720 h1        1 21Y      0.066200
     26 H172       -3.8470    0.7850   -2.2270 h1        1 21Y      0.066200
     27 H201       -6.6120   -0.8100    1.5500 hc        1 21Y      0.062700
     28 H202       -7.3410   -1.1610   -0.0780 hc        1 21Y      0.062700
     29 H213       -8.8720    0.8120    0.1830 hc        1 21Y      0.047700
     30 H212       -9.0650   -0.3740    1.5470 hc        1 21Y      0.047700
     31 H1         -8.1440    1.1750    1.7940 hc        1 21Y      0.047700
     32 H241       -2.7410   -2.3360    0.2420 h1        1 21Y      0.064450
     33 H242       -3.2800   -1.0370    1.4120 h1        1 21Y      0.064450
     34 H031       -0.3020    0.5170   -2.2520 h1        1 21Y      0.078200
     35 H032        0.1460    1.0620   -0.5600 h1        1 21Y      0.078200
     36 H041        1.3580   -1.3000   -1.8490 hn        1 21Y      0.421800
     37 H061        1.9840    1.8510   -0.0380 ha        1 21Y      0.153000
     38 H111        4.8740   -2.0740    1.0790 ha        1 21Y      0.157000
     39 H143        3.1690   -3.7840    0.8400 h1        1 21Y      0.048033
     40 H141        3.0150   -4.5240   -0.8390 h1        1 21Y      0.048033
     41 H142        4.6040   -3.7640   -0.3080 h1        1 21Y      0.048033
     42 H162       -1.8990    1.5810   -1.0390 h1        1 21Y      0.064450
     43 H161       -2.7180    1.4880    0.5880 h1        1 21Y      0.064450
     44 H232       -4.3820   -1.6850   -1.4270 h1        1 21Y      0.066200
     45 H231       -5.2200   -1.8280    0.1840 h1        1 21Y      0.066200
@<TRIPOS>BOND
     1    1   20 1   
     2    1   21 1   
     3    1   25 1   
     4    1   26 1   
     5    2    3 1   
     6    2   22 1   
     7    2   27 1   
     8    2   28 1   
     9    3   29 1   
    10    3   30 1   
    11    3   31 1   
    12    4   19 1   
    13    4   24 1   
    14    4   32 1   
    15    4   33 1   
    16    5    6 2   
    17    6    7 1   
    18    6   19 1   
    19    7    8 1   
    20    7   34 1   
    21    7   35 1   
    22    8    9 1   
    23    8   36 1   
    24    9   10 ar  
    25    9   16 ar  
    26   10   11 ar  
    27   10   37 1   
    28   11   12 1   
    29   11   13 ar  
    30   13   14 1   
    31   13   15 ar  
    32   15   16 ar  
    33   15   38 1   
    34   16   17 1   
    35   17   18 1   
    36   18   39 1   
    37   18   40 1   
    38   18   41 1   
    39   19   20 1   
    40   20   42 1   
    41   20   43 1   
    42   21   22 1   
    43   21   24 1   
    44   22   23 2   
    45   24   44 1   
    46   24   45 1   
@<TRIPOS>SUBSTRUCTURE
     1 21Y         1 TEMP              0 ****  ****    0 ROOT
