@<TRIPOS>MOLECULE
21Y
   45    46     1     0     0
SMALL
bcc


@<TRIPOS>ATOM
      1 C17        -0.6030   -0.2090    0.3600 c3        1 21Y      0.065500
      2 C20        -0.9040    3.4690    1.4440 c3        1 21Y     -0.143400
      3 C21        -1.6430    4.6100    0.7930 c3        1 21Y     -0.088100
      4 C24         1.7000    0.3540    1.9940 c3        1 21Y      0.064500
      5 O01         2.8160   -2.0360    2.7650 o         1 21Y     -0.609100
      6 C02         2.2460   -2.0170    1.6550 c         1 21Y      0.622100
      7 C03         2.1950   -3.2770    0.7750 c3        1 21Y      0.113800
      8 N04         3.0300   -4.3670    1.2130 nh        1 21Y     -0.683600
      9 C05         4.3390   -4.4520    0.6840 ca        1 21Y      0.112600
     10 C06         4.5740   -4.3640   -0.6990 ca        1 21Y     -0.136000
     11 C07         5.8560   -4.5380   -1.2310 ca        1 21Y      0.014400
     12 CL1         6.0610   -4.4010   -2.9110 cl        1 21Y     -0.072400
     13 C09         6.9380   -4.8200   -0.3920 ca        1 21Y      0.022400
     14 CL2         8.5040   -5.0310   -1.0070 cl        1 21Y     -0.069400
     15 C11         6.7330   -4.9350    0.9870 ca        1 21Y     -0.165000
     16 C12         5.4590   -4.7540    1.5210 ca        1 21Y      0.095100
     17 O13         5.1850   -4.9010    2.8690 os        1 21Y     -0.328900
     18 C14         6.2890   -4.7320    3.7530 c3        1 21Y      0.116700
     19 N15         1.6750   -0.8440    1.1840 n         1 21Y     -0.467800
     20 C16         0.7980   -0.7860    0.0390 c3        1 21Y      0.064500
     21 N18        -0.5690    0.9970    1.1570 n         1 21Y     -0.471800
     22 C19        -1.0220    2.2010    0.6190 c         1 21Y      0.656100
     23 O22        -1.5660    2.2070   -0.5040 o         1 21Y     -0.602100
     24 C23         0.2930    0.9190    2.3100 c3        1 21Y      0.065500
     25 H171       -1.1280   -0.0100   -0.6170 h1        1 21Y      0.066200
     26 H172       -1.1940   -0.9810    0.9330 h1        1 21Y      0.066200
     27 H201        0.1830    3.7300    1.5440 hc        1 21Y      0.062700
     28 H202       -1.3170    3.2880    2.4710 hc        1 21Y      0.062700
     29 H213       -1.5270    5.5350    1.4050 hc        1 21Y      0.047700
     30 H212       -1.2460    4.7990   -0.2340 hc        1 21Y      0.047700
     31 H1         -2.7300    4.3690    0.7000 hc        1 21Y      0.047700
     32 H241        2.2190    0.1440    2.9730 h1        1 21Y      0.064700
     33 H242        2.2930    1.1340    1.4360 h1        1 21Y      0.064700
     34 H031        2.4440   -2.9960   -0.2860 h1        1 21Y      0.078200
     35 H032        1.1320   -3.6600    0.8110 h1        1 21Y      0.078200
     36 H041        3.0380   -4.4400    2.2190 hn        1 21Y      0.421800
     37 H061        3.7400   -4.1670   -1.3910 ha        1 21Y      0.153000
     38 H111        7.5850   -5.1660    1.6450 ha        1 21Y      0.157000
     39 H143        6.8580   -3.8020    3.5150 h1        1 21Y      0.048033
     40 H141        5.8040   -4.6560    4.7600 h1        1 21Y      0.048033
     41 H142        6.9570   -5.6270    3.7060 h1        1 21Y      0.048033
     42 H162        0.6410   -1.8060   -0.4050 h1        1 21Y      0.064700
     43 H161        1.2900   -0.1350   -0.7420 h1        1 21Y      0.064700
     44 H232       -0.2060    0.2470    3.0680 h1        1 21Y      0.066200
     45 H231        0.4350    1.9290    2.7830 h1        1 21Y      0.066200
@<TRIPOS>BOND
     1    1   20 1   
     2    1   21 1   
     3    1   25 1   
     4    1   26 1   
     5    2    3 1   
     6    2   22 1   
     7    2   27 1   
     8    2   28 1   
     9    3   29 1   
    10    3   30 1   
    11    3   31 1   
    12    4   19 1   
    13    4   24 1   
    14    4   32 1   
    15    4   33 1   
    16    5    6 2   
    17    6    7 1   
    18    6   19 1   
    19    7    8 1   
    20    7   34 1   
    21    7   35 1   
    22    8    9 1   
    23    8   36 1   
    24    9   10 ar  
    25    9   16 ar  
    26   10   11 ar  
    27   10   37 1   
    28   11   12 1   
    29   11   13 ar  
    30   13   14 1   
    31   13   15 ar  
    32   15   16 ar  
    33   15   38 1   
    34   16   17 1   
    35   17   18 1   
    36   18   39 1   
    37   18   40 1   
    38   18   41 1   
    39   19   20 1   
    40   20   42 1   
    41   20   43 1   
    42   21   22 1   
    43   21   24 1   
    44   22   23 2   
    45   24   44 1   
    46   24   45 1   
@<TRIPOS>SUBSTRUCTURE
     1 21Y         1 TEMP              0 ****  ****    0 ROOT
