@<TRIPOS>MOLECULE
21Y
   45    41     1     0     0
SMALL
bcc


@<TRIPOS>ATOM
      1 C17        -2.6210    0.8580   -0.6660 c3        1 21Y     -0.050500
      2 C20        -4.7180    3.8230    0.7180 c3        1 21Y     -0.172000
      3 C21        -5.7760    4.6540    0.0220 c3        1 21Y     -0.206000
      4 C24        -1.1050    1.8390    1.5030 c3        1 21Y     -0.051500
      5 O01         0.7950   -0.1180    2.2560 o         1 21Y     -0.370000
      6 C02         0.3880   -0.1540    1.1140 c1        1 21Y      0.266000
      7 C03         0.9370   -1.1980    0.1390 c2        1 21Y     -0.073000
      8 N04         2.1980   -1.7050    0.6340 n3        1 21Y     -0.239000
      9 C05         2.8800   -2.7500   -0.0740 c1        1 21Y      0.031000
     10 C06         2.1680   -3.8390   -0.5540 c1        1 21Y     -0.136000
     11 C07         2.8380   -4.9000   -1.1460 c1        1 21Y     -0.060000
     12 CL1         1.9390   -6.2420   -1.7960 cl        1 21Y      0.007500
     13 C09         4.2220   -4.8720   -1.2570 c1        1 21Y     -0.060000
     14 CL2         5.0680   -6.2290   -1.9560 cl        1 21Y      0.007500
     15 C11         4.9350   -3.7840   -0.7780 c1        1 21Y     -0.165000
     16 C12         4.2650   -2.7230   -0.1860 c1        1 21Y      0.050000
     17 O13         4.9940   -1.6300    0.3310 o         1 21Y     -0.212000
     18 C14         5.7880   -0.9590   -0.6340 c3        1 21Y     -0.073000
     19 N15        -0.5810    0.8130    0.6650 n3        1 21Y     -0.327000
     20 C16        -1.1040    0.8350   -0.6560 c3        1 21Y     -0.051500
     21 N18        -3.1450    1.8840    0.1720 n         1 21Y     -0.330000
     22 C19        -4.1080    2.8460   -0.2740 c2        1 21Y      0.300000
     23 O22        -4.5150    2.8090   -1.4170 o         1 21Y     -0.363000
     24 C23        -2.6220    1.8630    1.4930 c3        1 21Y     -0.050500
     25 H171       -2.9300    1.0070   -1.5830 h1        1 21Y      0.105500
     26 H172       -2.9550   -0.0080   -0.3550 h1        1 21Y      0.105500
     27 H201       -5.1270    3.3260    1.4560 hc        1 21Y      0.102000
     28 H202       -4.0200    4.4110    1.0680 hc        1 21Y      0.102000
     29 H213       -5.3830    5.0930   -0.7610 hc        1 21Y      0.087000
     30 H212       -6.5120    4.0730   -0.2630 hc        1 21Y      0.087000
     31 H1         -6.1160    5.3330    0.6390 hc        1 21Y      0.087000
     32 H241       -0.7710    2.7060    1.1920 h1        1 21Y      0.103750
     33 H242       -0.7970    1.6890    2.4200 h1        1 21Y      0.103750
     34 H031        0.2970   -1.9370    0.0560 h4        1 21Y      0.117500
     35 H032        1.0730   -0.7850   -0.7380 h4        1 21Y      0.117500
     36 H041        2.5460   -1.3780    1.4110 hn        1 21Y      0.217000
     37 H061        1.2030   -3.8750   -0.4430 ha        1 21Y      0.153000
     38 H111        5.9070   -3.7650   -0.8560 ha        1 21Y      0.157000
     39 H143        6.1010   -0.1030   -0.2640 h1        1 21Y      0.087333
     40 H141        6.5630   -1.5180   -0.8670 h1        1 21Y      0.087333
     41 H142        5.2520   -0.7910   -1.4390 h1        1 21Y      0.087333
     42 H162       -0.7700    1.6340   -1.1170 h1        1 21Y      0.103750
     43 H161       -0.7940    0.0370   -1.1340 h1        1 21Y      0.103750
     44 H232       -2.9310    2.6630    1.9720 h1        1 21Y      0.105500
     45 H231       -2.9560    1.0660    1.9550 h1        1 21Y      0.105500
@<TRIPOS>BOND
     1    1   20 1   
     2    1   21 1   
     3    1   25 1   
     4    1   26 1   
     5    2    3 1   
     6    2   22 1   
     7    2   27 1   
     8    2   28 1   
     9    3   29 1   
    10    3   30 1   
    11    3   31 1   
    12    4   19 1   
    13    4   24 1   
    14    4   32 1   
    15    4   33 1   
    16    5    6 1   
    17    6   19 1   
    18    7    8 1   
    19    7   34 1   
    20    7   35 1   
    21    8    9 1   
    22    8   36 1   
    23    9   10 1   
    24   10   37 1   
    25   11   12 1   
    26   11   13 1   
    27   13   14 1   
    28   15   16 1   
    29   15   38 1   
    30   17   18 1   
    31   18   39 1   
    32   18   40 1   
    33   18   41 1   
    34   19   20 1   
    35   20   42 1   
    36   20   43 1   
    37   21   22 1   
    38   21   24 1   
    39   22   23 1   
    40   24   44 1   
    41   24   45 1   
@<TRIPOS>SUBSTRUCTURE
     1 21Y         1 TEMP              0 ****  ****    0 ROOT
