@<TRIPOS>MOLECULE
21Y
   45    46     1     0     0
SMALL
bcc


@<TRIPOS>ATOM
      1 C17        -0.5890   -0.1780    0.3320 c3        1 21Y      0.065500
      2 C20        -0.8520    3.4980    1.4270 c3        1 21Y     -0.143400
      3 C21        -1.5600    4.6550    0.7680 c3        1 21Y     -0.088100
      4 C24         1.6940    0.3460    2.0070 c3        1 21Y      0.064500
      5 O01         2.7830   -2.0590    2.7720 o         1 21Y     -0.609100
      6 C02         2.2250   -2.0260    1.6560 c         1 21Y      0.622100
      7 C03         2.1760   -3.2790    0.7640 c3        1 21Y      0.113800
      8 N04         3.0000   -4.3780    1.2030 nu        1 21Y     -0.683600
      9 C05         4.3150   -4.4670    0.6900 ca        1 21Y      0.112600
     10 C06         4.5670   -4.3680   -0.6900 ca        1 21Y     -0.136000
     11 C07         5.8540   -4.5450   -1.2080 ca        1 21Y      0.014400
     12 Cl1         6.0800   -4.3940   -2.8840 cl        1 21Y     -0.072400
     13 C09         6.9240   -4.8410   -0.3580 ca        1 21Y      0.022400
     14 Cl2         8.4960   -5.0580   -0.9570 cl        1 21Y     -0.069400
     15 C11         6.7010   -4.9680    1.0170 ca        1 21Y     -0.165000
     16 C12         5.4220   -4.7830    1.5370 ca        1 21Y      0.095100
     17 O13         5.1310   -4.9410    2.8800 os        1 21Y     -0.328900
     18 C14         6.2250   -4.7870    3.7790 c3        1 21Y      0.116700
     19 N15         1.6670   -0.8460    1.1880 n         1 21Y     -0.468800
     20 C16         0.8090   -0.7710    0.0300 c3        1 21Y      0.064500
     21 N18        -0.5520    1.0230    1.1360 n         1 21Y     -0.470800
     22 C19        -0.9760    2.2370    0.5950 c         1 21Y      0.656100
     23 O22        -1.4980    2.2560   -0.5370 o         1 21Y     -0.602100
     24 C23         0.2890    0.9260    2.3030 c3        1 21Y      0.065500
     25 H171       -1.1990   -0.9450    0.8910 h1        1 21Y      0.066200
     26 H172       -1.0960    0.0330   -0.6520 h1        1 21Y      0.066200
     27 H201        0.2370    3.7420    1.5500 hc        1 21Y      0.062700
     28 H202       -1.2880    3.3210    2.4460 hc        1 21Y      0.062700
     29 H213       -1.1390    4.8420   -0.2500 hc        1 21Y      0.047700
     30 H212       -1.4400    5.5760    1.3870 hc        1 21Y      0.047700
     31 H1         -2.6480    4.4330    0.6530 hc        1 21Y      0.047700
     32 H241        2.1930    0.1220    2.9920 h1        1 21Y      0.064450
     33 H242        2.3060    1.1230    1.4650 h1        1 21Y      0.064450
     34 H031        2.4390   -2.9910   -0.2910 h1        1 21Y      0.078200
     35 H032        1.1110   -3.6550    0.7850 h1        1 21Y      0.078200
     36 H041        2.9940   -4.4590    2.2080 hn        1 21Y      0.421800
     37 H061        3.7420   -4.1590   -1.3910 ha        1 21Y      0.153000
     38 H111        7.5440   -5.2100    1.6830 ha        1 21Y      0.157000
     39 H143        6.8030   -3.8580    3.5560 h1        1 21Y      0.048033
     40 H141        6.8880   -5.6850    3.7320 h1        1 21Y      0.048033
     41 H142        5.7290   -4.7160    4.7800 h1        1 21Y      0.048033
     42 H162        1.3210   -0.1240   -0.7400 h1        1 21Y      0.064450
     43 H161        0.6460   -1.7880   -0.4210 h1        1 21Y      0.064450
     44 H232       -0.2320    0.2560    3.0470 h1        1 21Y      0.066200
     45 H231        0.4350    1.9310    2.7850 h1        1 21Y      0.066200
@<TRIPOS>BOND
     1    1   20 1   
     2    1   21 1   
     3    1   25 1   
     4    1   26 1   
     5    2    3 1   
     6    2   22 1   
     7    2   27 1   
     8    2   28 1   
     9    3   29 1   
    10    3   30 1   
    11    3   31 1   
    12    4   19 1   
    13    4   24 1   
    14    4   32 1   
    15    4   33 1   
    16    5    6 2   
    17    6    7 1   
    18    6   19 1   
    19    7    8 1   
    20    7   34 1   
    21    7   35 1   
    22    8    9 1   
    23    8   36 1   
    24    9   10 ar  
    25    9   16 ar  
    26   10   11 ar  
    27   10   37 1   
    28   11   12 1   
    29   11   13 ar  
    30   13   14 1   
    31   13   15 ar  
    32   15   16 ar  
    33   15   38 1   
    34   16   17 1   
    35   17   18 1   
    36   18   39 1   
    37   18   40 1   
    38   18   41 1   
    39   19   20 1   
    40   20   42 1   
    41   20   43 1   
    42   21   22 1   
    43   21   24 1   
    44   22   23 2   
    45   24   44 1   
    46   24   45 1   
@<TRIPOS>SUBSTRUCTURE
     1 21Y         1 TEMP              0 ****  ****    0 ROOT
