@<TRIPOS>MOLECULE
21Y
   46    47     1     0     0
SMALL
bcc


@<TRIPOS>ATOM
      1 C17        -0.2840   -0.4990    1.3810 c3        1 21Y      0.075500
      2 C20        -1.7350    3.0580    1.2340 c3        1 21Y     -0.141400
      3 C21        -2.9540    3.5700    0.5090 c3        1 21Y     -0.092100
      4 C24         1.9050    1.3360    1.8040 c3        1 21Y      0.054000
      5 O01         4.3670    0.0940    2.0950 o         1 21Y     -0.623100
      6 C02         3.4290   -0.5480    1.5670 c         1 21Y      0.638100
      7 C03         3.7180   -1.9800    1.0740 c3        1 21Y      0.024800
      8 N04         5.1350   -2.3570    1.3710 n4        1 21Y     -0.599400
      9 C05         5.5380   -3.5740    0.6730 ca        1 21Y     -0.102400
     10 C06         6.2590   -3.4870   -0.5300 ca        1 21Y     -0.065000
     11 C07         6.6660   -4.6460   -1.1860 ca        1 21Y     -0.009600
     12 CL1         7.5310   -4.5070   -2.6270 cl        1 21Y      0.002600
     13 C09         6.3540   -5.9120   -0.6430 ca        1 21Y      0.095400
     14 CL2         6.8370   -7.3260   -1.4170 cl        1 21Y      0.016600
     15 C11         5.6370   -6.0050    0.5510 ca        1 21Y     -0.183000
     16 C12         5.2210   -4.8460    1.2160 ca        1 21Y      0.180100
     17 O13         4.5010   -4.8350    2.3850 os        1 21Y     -0.356900
     18 C14         4.2800   -6.0990    3.0230 c3        1 21Y      0.112700
     19 N15         2.1750   -0.0360    1.4030 n         1 21Y     -0.427800
     20 C16         1.1020   -0.7390    0.7310 c3        1 21Y      0.054000
     21 N18        -0.5510    0.8850    1.6840 n         1 21Y     -0.475800
     22 C19        -1.4880    1.5980    0.9170 c         1 21Y      0.657100
     23 O22        -2.1260    0.9920    0.0370 o         1 21Y     -0.579100
     24 C23         0.5010    1.5250    2.4290 c3        1 21Y      0.075500
     25 H171       -1.0660   -0.8980    0.6710 h1        1 21Y      0.078700
     26 H172       -0.3390   -1.0820    2.3440 h1        1 21Y      0.078700
     27 H201       -1.8730    3.1840    2.3410 hc        1 21Y      0.066700
     28 H202       -0.8320    3.6490    0.9240 hc        1 21Y      0.066700
     29 H213       -2.8360    3.4450   -0.5950 hc        1 21Y      0.054367
     30 H212       -3.1020    4.6520    0.7390 hc        1 21Y      0.054367
     31 H1         -3.8640    3.0040    0.8230 hc        1 21Y      0.054367
     32 H241        2.6750    1.6630    2.5610 h1        1 21Y      0.069450
     33 H242        2.0020    1.9920    0.8920 h1        1 21Y      0.069450
     34 H031        3.5550   -2.0400   -0.0400 hx        1 21Y      0.127200
     35 H032        3.0510   -2.7280    1.5930 hx        1 21Y      0.127200
     36 H041        5.2270   -2.5060    2.3880 hn        1 21Y      0.474800
     37 H061        6.5150   -2.5030   -0.9640 ha        1 21Y      0.174000
     38 H111        5.3980   -6.9980    0.9690 ha        1 21Y      0.187000
     39 H143        5.2540   -6.5940    3.2550 h1        1 21Y      0.072367
     40 H141        3.7430   -5.8110    3.9640 h1        1 21Y      0.072367
     41 H142        3.6380   -6.7470    2.3790 h1        1 21Y      0.072367
     42 H162        1.2850   -1.8490    0.7440 h1        1 21Y      0.069450
     43 H161        1.0700   -0.3960   -0.3440 h1        1 21Y      0.069450
     44 H232        0.5060    1.0870    3.4700 h1        1 21Y      0.078700
     45 H231        0.3230    2.6320    2.5180 h1        1 21Y      0.078700
     46 H042        5.7520   -1.5710    1.1120 hn        1 21Y      0.474800
@<TRIPOS>BOND
     1    1   20 1   
     2    1   21 1   
     3    1   25 1   
     4    1   26 1   
     5    2    3 1   
     6    2   22 1   
     7    2   27 1   
     8    2   28 1   
     9    3   29 1   
    10    3   30 1   
    11    3   31 1   
    12    4   19 1   
    13    4   24 1   
    14    4   32 1   
    15    4   33 1   
    16    5    6 2   
    17    6    7 1   
    18    6   19 1   
    19    7    8 1   
    20    7   34 1   
    21    7   35 1   
    22    8    9 1   
    23    8   36 1   
    24    8   46 1   
    25    9   10 ar  
    26    9   16 ar  
    27   10   11 ar  
    28   10   37 1   
    29   11   12 1   
    30   11   13 ar  
    31   13   14 1   
    32   13   15 ar  
    33   15   16 ar  
    34   15   38 1   
    35   16   17 1   
    36   17   18 1   
    37   18   39 1   
    38   18   40 1   
    39   18   41 1   
    40   19   20 1   
    41   20   42 1   
    42   20   43 1   
    43   21   22 1   
    44   21   24 1   
    45   22   23 2   
    46   24   44 1   
    47   24   45 1   
@<TRIPOS>SUBSTRUCTURE
     1 21Y         1 TEMP              0 ****  ****    0 ROOT
