@<TRIPOS>MOLECULE
21Z
   40    42     1     0     0
SMALL
bcc


@<TRIPOS>ATOM
      1 N01         0.1170   -0.7980   -0.3800 nc        1 21Z     -0.733000
      2 N02        -1.8370   -0.6450    1.0980 nu        1 21Z     -0.674300
      3 N03         2.3420   -0.7720   -1.3370 nv        1 21Z     -0.929500
      4 N04        -7.3190    0.2810    0.2780 nz        1 21Z     -0.785500
      5 C05         1.9550   -0.5010    1.0910 cd        1 21Z     -0.416000
      6 C06         1.5180   -0.7090   -0.2520 cc        1 21Z      0.694200
      7 C07        -0.4420   -0.6300    0.8390 cd        1 21Z      0.539300
      8 C08         3.3400   -0.3800    1.5080 c         1 21Z      0.639300
      9 C09        -2.7140   -0.1260    0.1260 ca        1 21Z      0.140600
     10 C10         3.5800   -0.1210    2.9470 ca        1 21Z     -0.168600
     11 C11        -4.0080   -0.6560   -0.0150 ca        1 21Z     -0.072000
     12 C12        -4.9550   -0.0770   -0.8870 ca        1 21Z     -0.525500
     13 C13        -4.5700    1.0460   -1.6450 ca        1 21Z     -0.014000
     14 C14        -3.2930    1.5780   -1.5230 ca        1 21Z     -0.127000
     15 C15        -2.3670    1.0130   -0.6520 ca        1 21Z     -0.006000
     16 C16         4.5610    0.8120    3.3080 ca        1 21Z     -0.097000
     17 C17         4.8080    1.0810    4.6530 ca        1 21Z     -0.130500
     18 C18         4.0910    0.4100    5.6430 ca        1 21Z     -0.102000
     19 C19         3.1280   -0.5360    5.2880 ca        1 21Z     -0.130500
     20 C20         2.8710   -0.8020    3.9440 ca        1 21Z     -0.097000
     21 O21         4.2840   -0.4530    0.7040 o         1 21Z     -0.552100
     22 O22        -6.5440   -2.0050   -0.5390 o         1 21Z     -0.567300
     23 O23        -7.1020   -0.3380   -2.1840 o         1 21Z     -0.567300
     24 S24         0.6490   -0.3860    2.1300 ss        1 21Z      0.069700
     25 S25        -6.3930   -0.7440   -1.0740 sy        1 21Z      1.493200
     26 HN02       -2.1300   -1.5380    1.4580 hn        1 21Z      0.423800
     27 HN03        3.3240   -0.8110   -1.1700 hn        1 21Z      0.459800
     28 HN0A        1.9870   -1.0720   -2.2120 hn        1 21Z      0.459800
     29 HN04       -8.0860    0.8050   -0.1400 hn        1 21Z      0.454467
     30 HN0B       -7.7130   -0.3390    0.9820 hn        1 21Z      0.454467
     31 H11        -4.2990   -1.5630    0.5490 ha        1 21Z      0.163000
     32 H13        -5.2850    1.4950   -2.3600 ha        1 21Z      0.168000
     33 H14        -3.0040    2.4540   -2.1290 ha        1 21Z      0.177000
     34 H15        -1.3560    1.4540   -0.5730 ha        1 21Z      0.186000
     35 H16         5.1390    1.3210    2.5190 ha        1 21Z      0.144000
     36 H17         5.5770    1.8180    4.9320 ha        1 21Z      0.143000
     37 H18         4.2910    0.6180    6.7050 ha        1 21Z      0.143000
     38 H19         2.5760   -1.0800    6.0690 ha        1 21Z      0.143000
     39 H20         2.1350   -1.5780    3.6750 ha        1 21Z      0.144000
     40 H043       -6.7070    0.9410    0.7480 hn        1 21Z      0.454467
@<TRIPOS>BOND
     1    1    6 1   
     2    1    7 2   
     3    2    7 1   
     4    2    9 1   
     5    2   26 1   
     6    3    6 1   
     7    3   27 1   
     8    3   28 1   
     9    4   25 1   
    10    4   29 1   
    11    4   30 1   
    12    4   40 1   
    13    5    6 2   
    14    5    8 1   
    15    5   24 1   
    16    7   24 1   
    17    8   10 1   
    18    8   21 2   
    19    9   11 ar  
    20    9   15 ar  
    21   10   16 ar  
    22   10   20 ar  
    23   11   12 ar  
    24   11   31 1   
    25   12   13 ar  
    26   12   25 1   
    27   13   14 ar  
    28   13   32 1   
    29   14   15 ar  
    30   14   33 1   
    31   15   34 1   
    32   16   17 ar  
    33   16   35 1   
    34   17   18 ar  
    35   17   36 1   
    36   18   19 ar  
    37   18   37 1   
    38   19   20 ar  
    39   19   38 1   
    40   20   39 1   
    41   22   25 2   
    42   23   25 2   
@<TRIPOS>SUBSTRUCTURE
     1 21Z         1 TEMP              0 ****  ****    0 ROOT
