@<TRIPOS>MOLECULE
21Z
   42    44     1     0     0
SMALL
bcc


@<TRIPOS>ATOM
      1 N01         0.3310    1.0910   -0.4670 nc        1 21Z     -0.583000
      2 N02        -1.6000    1.5360    0.9820 n4        1 21Z     -0.574100
      3 N03         2.5220    0.5550   -1.5020 n4        1 21Z     -0.802300
      4 N04        -7.1940   -0.6180    0.4280 n4        1 21Z     -0.809500
      5 C05         1.9580    0.1140    0.9300 cd        1 21Z     -0.279000
      6 C06         1.6120    0.5830   -0.3630 cc        1 21Z      0.438200
      7 C07        -0.2540    1.0050    0.7640 cd        1 21Z      0.292300
      8 C08         3.2840   -0.4240    1.3550 c         1 21Z      0.633300
      9 C09        -2.6360    1.0260    0.0660 ca        1 21Z     -0.066400
     10 C10         3.3510   -0.6940    2.7900 ca        1 21Z     -0.201600
     11 C11        -3.5880    0.1070    0.5230 ca        1 21Z      0.025000
     12 C12        -4.5960   -0.3610   -0.3410 ca        1 21Z     -0.465500
     13 C13        -4.6210    0.1110   -1.6660 ca        1 21Z      0.053000
     14 C14        -3.6820    1.0410   -2.1150 ca        1 21Z     -0.110000
     15 C15        -2.6840    1.5050   -1.2640 ca        1 21Z      0.012000
     16 C16         4.5330   -0.4310    3.4870 ca        1 21Z     -0.118500
     17 C17         4.5690   -0.5940    4.8790 ca        1 21Z     -0.083000
     18 C18         3.4340   -1.0190    5.5630 ca        1 21Z     -0.063000
     19 C19         2.2600   -1.3250    4.8580 ca        1 21Z     -0.083000
     20 C20         2.2120   -1.1760    3.4750 ca        1 21Z     -0.118500
     21 O21         4.1930   -0.5260    0.5300 o         1 21Z     -0.486100
     22 O22        -5.2990   -1.9820    1.4220 o         1 21Z     -0.527800
     23 O23        -5.9830   -2.3910   -0.8930 o         1 21Z     -0.527800
     24 S24         0.7220    0.2980    1.9820 ss        1 21Z      0.419700
     25 S25        -5.6170   -1.5730    0.1450 sy        1 21Z      1.456200
     26 HN02       -1.5600    2.5680    0.8690 hn        1 21Z      0.485300
     27 HN03        2.1310   -0.0260   -2.2570 hn        1 21Z      0.500133
     28 HN0A        3.4360    0.1490   -1.1970 hn        1 21Z      0.500133
     29 HN04       -7.5080   -0.7110    1.4010 hn        1 21Z      0.480467
     30 HN0B       -7.9520   -0.9940   -0.1570 hn        1 21Z      0.480467
     31 H11        -3.5640   -0.2790    1.5630 ha        1 21Z      0.185000
     32 H13        -5.3800   -0.2730   -2.3810 ha        1 21Z      0.202000
     33 H14        -3.7270    1.4090   -3.1600 ha        1 21Z      0.216000
     34 H15        -1.9460    2.2400   -1.6410 ha        1 21Z      0.196000
     35 H16         5.4340   -0.0930    2.9440 ha        1 21Z      0.156000
     36 H17         5.5080   -0.3910    5.4270 ha        1 21Z      0.179000
     37 H18         3.4620   -1.1450    6.6600 ha        1 21Z      0.187000
     38 H19         1.3900   -1.7250    5.4050 ha        1 21Z      0.179000
     39 H20         1.3690   -1.6450    2.9320 ha        1 21Z      0.156000
     40 H022       -1.8710    1.3230    1.9540 hn        1 21Z      0.485300
     41 H033        2.6790    1.5110   -1.8560 hn        1 21Z      0.500133
     42 H043       -7.1350    0.3790    0.2280 hn        1 21Z      0.480467
@<TRIPOS>BOND
     1    1    6 1   
     2    1    7 2   
     3    2    7 1   
     4    2    9 1   
     5    2   26 1   
     6    2   40 1   
     7    3    6 1   
     8    3   27 1   
     9    3   28 1   
    10    3   41 1   
    11    4   25 1   
    12    4   29 1   
    13    4   30 1   
    14    4   42 1   
    15    5    6 2   
    16    5    8 1   
    17    5   24 1   
    18    7   24 1   
    19    8   10 1   
    20    8   21 2   
    21    9   11 ar  
    22    9   15 ar  
    23   10   16 ar  
    24   10   20 ar  
    25   11   12 ar  
    26   11   31 1   
    27   12   13 ar  
    28   12   25 1   
    29   13   14 ar  
    30   13   32 1   
    31   14   15 ar  
    32   14   33 1   
    33   15   34 1   
    34   16   17 ar  
    35   16   35 1   
    36   17   18 ar  
    37   17   36 1   
    38   18   19 ar  
    39   18   37 1   
    40   19   20 ar  
    41   19   38 1   
    42   20   39 1   
    43   22   25 2   
    44   23   25 2   
@<TRIPOS>SUBSTRUCTURE
     1 21Z         1 TEMP              0 ****  ****    0 ROOT
