@<TRIPOS>MOLECULE
21Z
   39    36     1     0     0
SMALL
bcc


@<TRIPOS>ATOM
      1 N01         0.1810    0.3010   -1.1190 n2        1 21Z     -0.231000
      2 N02        -1.5730    0.3770    0.7160 n3        1 21Z     -0.214000
      3 N03         2.5460    0.1850   -2.3350 n3        1 21Z     -0.338000
      4 N04        -7.2520   -0.3290   -1.2660 n3        1 21Z     -0.953000
      5 C05         2.2420    0.2800    0.1940 c1        1 21Z     -0.603000
      6 C06         1.7490    0.2480   -1.1630 c2        1 21Z      0.205000
      7 C07        -0.2310    0.3640    0.2470 c2        1 21Z     -0.092000
      8 C08         3.6970    0.3610    0.6110 c1        1 21Z      0.363000
      9 C09        -2.5930    0.9790   -0.0690 c2        1 21Z      0.020000
     10 C10         4.3460   -0.8050    1.3280 c2        1 21Z     -0.133000
     11 C11        -3.5610    0.1600   -0.6300 c1        1 21Z     -0.062000
     12 C12        -4.6530    0.7190   -1.2760 c1        1 21Z     -0.806000
     13 C13        -4.7760    2.0970   -1.3610 c1        1 21Z     -0.032000
     14 C14        -3.8080    2.9160   -0.8000 c1        1 21Z     -0.142000
     15 C15        -2.7170    2.3560   -0.1540 c2        1 21Z     -0.052000
     16 C16         5.6380   -0.3650    1.5720 c2        1 21Z     -0.081000
     17 C17         6.5180   -1.1610    2.2870 c1        1 21Z     -0.137000
     18 C18         6.1070   -2.3980    2.7590 c1        1 21Z     -0.124000
     19 C19         4.8150   -2.8380    2.5150 c1        1 21Z     -0.124000
     20 C20         3.9340   -2.0410    1.7990 c1        1 21Z     -0.111000
     21 O21         4.3360    1.3710    0.3920 o         1 21Z     -0.349000
     22 O22        -5.3210   -1.6600   -2.2520 o         1 21Z     -0.935500
     23 O23        -6.0230    0.0690   -3.4570 o         1 21Z     -0.935500
     24 S24         1.0370    0.3530    1.1270 ss        1 21Z      0.473000
     25 S25        -5.8320   -0.3260   -2.0890 s6        1 21Z      2.865000
     26 HN02       -1.7810   -0.0100    1.5150 hn        1 21Z      0.225000
     27 HN03        2.1620   -0.0280   -3.1370 hn        1 21Z      0.254000
     28 HN0A        3.4380    0.3800   -2.2920 hn        1 21Z      0.254000
     29 HN04       -7.9670    0.1440   -1.5850 hn        1 21Z      0.243500
     30 HN0B       -7.3390   -0.8320   -0.5070 hn        1 21Z      0.243500
     31 H11        -3.4740   -0.8100   -0.5700 ha        1 21Z      0.154000
     32 H13        -5.5450    2.4910   -1.8160 ha        1 21Z      0.152000
     33 H14        -3.8950    3.8860   -0.8600 ha        1 21Z      0.145000
     34 H15        -2.0350    2.9320    0.2410 ha        1 21Z      0.162000
     35 H16         5.9280    0.5060    1.2400 ha        1 21Z      0.150000
     36 H17         7.4270   -0.8510    2.4590 ha        1 21Z      0.136000
     37 H18         6.7270   -2.9590    3.2630 ha        1 21Z      0.134500
     38 H19         4.5250   -3.7100    2.8470 ha        1 21Z      0.134500
     39 H20         3.0240   -2.3510    1.6280 ha        1 21Z      0.142000
@<TRIPOS>BOND
     1    1    6 1   
     2    1    7 1   
     3    2    7 1   
     4    2    9 1   
     5    2   26 1   
     6    3    6 1   
     7    3   27 1   
     8    3   28 1   
     9    4   25 1   
    10    4   29 1   
    11    4   30 1   
    12    5    6 1   
    13    5   24 1   
    14    7   24 1   
    15    8   10 1   
    16    8   21 1   
    17    9   11 1   
    18    9   15 1   
    19   10   16 1   
    20   10   20 1   
    21   11   31 1   
    22   12   13 1   
    23   12   25 1   
    24   13   32 1   
    25   14   15 1   
    26   14   33 1   
    27   15   34 1   
    28   16   17 1   
    29   16   35 1   
    30   17   36 1   
    31   18   19 1   
    32   18   37 1   
    33   19   38 1   
    34   20   39 1   
    35   22   25 1   
    36   23   25 1   
@<TRIPOS>SUBSTRUCTURE
     1 21Z         1 TEMP              0 ****  ****    0 ROOT
