@<TRIPOS>MOLECULE
21Z
   40    42     1     0     0
SMALL
bcc


@<TRIPOS>ATOM
      1 N01         0.1230   -0.7650   -0.3920 nc        1 21Z     -0.733000
      2 N02        -1.8320   -0.6530    1.0870 nh        1 21Z     -0.674300
      3 N03         2.3480   -0.7040   -1.3480 nh        1 21Z     -0.929500
      4 N04        -7.3220    0.2440    0.2770 n4        1 21Z     -0.785500
      5 C05         1.9580   -0.4830    1.0850 cd        1 21Z     -0.416000
      6 C06         1.5240   -0.6680   -0.2620 cc        1 21Z      0.694200
      7 C07        -0.4380   -0.6240    0.8300 cd        1 21Z      0.539300
      8 C08         3.3420   -0.3600    1.5050 c         1 21Z      0.639300
      9 C09        -2.7130   -0.1240    0.1230 ca        1 21Z      0.141600
     10 C10         3.5800   -0.1290    2.9500 ca        1 21Z     -0.168600
     11 C11        -4.0020   -0.6620   -0.0290 ca        1 21Z     -0.072000
     12 C12        -4.9540   -0.0760   -0.8910 ca        1 21Z     -0.525500
     13 C13        -4.5770    1.0630   -1.6300 ca        1 21Z     -0.014000
     14 C14        -3.3040    1.6020   -1.4970 ca        1 21Z     -0.127000
     15 C15        -2.3750    1.0300   -0.6350 ca        1 21Z     -0.006000
     16 C16         4.5540    0.8040    3.3290 ca        1 21Z     -0.097000
     17 C17         4.7980    1.0480    4.6790 ca        1 21Z     -0.130500
     18 C18         4.0850    0.3530    5.6560 ca        1 21Z     -0.102000
     19 C19         3.1290   -0.5920    5.2810 ca        1 21Z     -0.130500
     20 C20         2.8750   -0.8340    3.9320 ca        1 21Z     -0.097000
     21 O21         4.2870   -0.4110    0.7010 o         1 21Z     -0.552100
     22 O22        -6.5280   -2.0220   -0.5770 o         1 21Z     -0.567300
     23 O23        -7.0970   -0.3330   -2.1950 o         1 21Z     -0.567300
     24 S24         0.6510   -0.3970    2.1250 ss        1 21Z      0.069700
     25 S25        -6.3860   -0.7510   -1.0910 sy        1 21Z      1.493200
     26 HN02       -2.1190   -1.5540    1.4320 hn        1 21Z      0.423800
     27 HN03        3.3310   -0.7400   -1.1810 hn        1 21Z      0.459800
     28 HN0A        1.9960   -0.9910   -2.2280 hn        1 21Z      0.459800
     29 HN04       -8.0920    0.7680   -0.1330 hn        1 21Z      0.454467
     30 HN0B       -7.7120   -0.3910    0.9700 hn        1 21Z      0.454467
     31 H11        -4.2870   -1.5810    0.5200 ha        1 21Z      0.163000
     32 H13        -5.2950    1.5170   -2.3380 ha        1 21Z      0.168000
     33 H14        -3.0210    2.4910   -2.0880 ha        1 21Z      0.177000
     34 H15        -1.3680    1.4780   -0.5470 ha        1 21Z      0.186000
     35 H16         5.1280    1.3330    2.5510 ha        1 21Z      0.144000
     36 H17         5.5610    1.7850    4.9730 ha        1 21Z      0.143000
     37 H18         4.2830    0.5420    6.7220 ha        1 21Z      0.143000
     38 H19         2.5810   -1.1550    6.0510 ha        1 21Z      0.143000
     39 H20         2.1450   -1.6090    3.6470 ha        1 21Z      0.144000
     40 H043       -6.7160    0.9010    0.7580 hn        1 21Z      0.454467
@<TRIPOS>BOND
     1    1    6 1   
     2    1    7 2   
     3    2    7 1   
     4    2    9 1   
     5    2   26 1   
     6    3    6 1   
     7    3   27 1   
     8    3   28 1   
     9    4   25 1   
    10    4   29 1   
    11    4   30 1   
    12    4   40 1   
    13    5    6 2   
    14    5    8 1   
    15    5   24 1   
    16    7   24 1   
    17    8   10 1   
    18    8   21 2   
    19    9   11 ar  
    20    9   15 ar  
    21   10   16 ar  
    22   10   20 ar  
    23   11   12 ar  
    24   11   31 1   
    25   12   13 ar  
    26   12   25 1   
    27   13   14 ar  
    28   13   32 1   
    29   14   15 ar  
    30   14   33 1   
    31   15   34 1   
    32   16   17 ar  
    33   16   35 1   
    34   17   18 ar  
    35   17   36 1   
    36   18   19 ar  
    37   18   37 1   
    38   19   20 ar  
    39   19   38 1   
    40   20   39 1   
    41   22   25 2   
    42   23   25 2   
@<TRIPOS>SUBSTRUCTURE
     1 21Z         1 TEMP              0 ****  ****    0 ROOT
