@<TRIPOS>MOLECULE
21Z
   39    41     1     0     0
SMALL
bcc


@<TRIPOS>ATOM
      1 N01        -0.5200   -1.6490   -0.1550 nc        1 21Z     -0.757000
      2 N02         0.6580    0.2940    0.7360 nh        1 21Z     -0.693300
      3 N03        -2.1890   -3.2380   -0.8820 nh        1 21Z     -0.940500
      4 N04         6.2370    1.5850    0.8920 n3        1 21Z     -1.026700
      5 C05        -2.7860   -0.9160   -0.3120 cd        1 21Z     -0.419000
      6 C06        -1.8560   -1.9830   -0.4740 cc        1 21Z      0.726200
      7 C07        -0.4710   -0.3660    0.2580 cd        1 21Z      0.678300
      8 C08        -4.2030   -1.0010   -0.5540 c         1 21Z      0.643300
      9 C09         1.9530   -0.2730    0.6560 ca        1 21Z      0.101600
     10 C10        -5.0070    0.2170   -0.2790 ca        1 21Z     -0.153600
     11 C11         3.0260    0.5040    0.1740 ca        1 21Z     -0.062000
     12 C12         4.3300    0.0040    0.1640 ca        1 21Z     -0.361500
     13 C13         4.5640   -1.2960    0.6190 ca        1 21Z     -0.032000
     14 C14         3.5160   -2.0750    1.1000 ca        1 21Z     -0.142000
     15 C15         2.2170   -1.5760    1.1320 ca        1 21Z     -0.052000
     16 C16        -6.2420    0.0770    0.3690 ca        1 21Z     -0.096000
     17 C17        -7.0160    1.2020    0.6460 ca        1 21Z     -0.136500
     18 C18        -6.5720    2.4690    0.2660 ca        1 21Z     -0.112000
     19 C19        -5.3520    2.6100   -0.3950 ca        1 21Z     -0.136500
     20 C20        -4.5690    1.4880   -0.6670 ca        1 21Z     -0.096000
     21 O21        -4.7610   -2.0420   -0.9490 o         1 21Z     -0.588100
     22 O22         5.0480    1.9830   -1.2220 o         1 21Z     -0.656300
     23 O23         6.5500    0.0980   -1.0360 o         1 21Z     -0.656300
     24 S24        -1.9970    0.4690    0.2470 ss        1 21Z     -0.111300
     25 S25         5.6020    0.9510   -0.4340 sy        1 21Z      1.526200
     26 HN02        0.6370    1.2810    0.5650 hn        1 21Z      0.429800
     27 HN03       -1.4890   -3.9160   -1.0510 hn        1 21Z      0.458800
     28 HN0A       -3.1310   -3.4090   -1.1560 hn        1 21Z      0.458800
     29 HN04        5.9420    2.4430    1.2850 hn        1 21Z      0.448300
     30 HN0B        6.9840    1.1730    1.3920 hn        1 21Z      0.448300
     31 H11         2.8500    1.5220   -0.2200 ha        1 21Z      0.154000
     32 H13         5.5860   -1.7110    0.5760 ha        1 21Z      0.152000
     33 H14         3.7110   -3.0980    1.4570 ha        1 21Z      0.145000
     34 H15         1.4040   -2.2060    1.5270 ha        1 21Z      0.162000
     35 H16        -6.5930   -0.9290    0.6470 ha        1 21Z      0.146000
     36 H17        -7.9820    1.0880    1.1610 ha        1 21Z      0.135500
     37 H18        -7.1860    3.3550    0.4830 ha        1 21Z      0.134000
     38 H19        -5.0070    3.6060   -0.7070 ha        1 21Z      0.135500
     39 H20        -3.6160    1.6060   -1.2100 ha        1 21Z      0.146000
@<TRIPOS>BOND
     1    1    6 1   
     2    1    7 2   
     3    2    7 1   
     4    2    9 1   
     5    2   26 1   
     6    3    6 1   
     7    3   27 1   
     8    3   28 1   
     9    4   25 1   
    10    4   29 1   
    11    4   30 1   
    12    5    6 2   
    13    5    8 1   
    14    5   24 1   
    15    7   24 1   
    16    8   10 1   
    17    8   21 2   
    18    9   11 ar  
    19    9   15 ar  
    20   10   16 ar  
    21   10   20 ar  
    22   11   12 ar  
    23   11   31 1   
    24   12   13 ar  
    25   12   25 1   
    26   13   14 ar  
    27   13   32 1   
    28   14   15 ar  
    29   14   33 1   
    30   15   34 1   
    31   16   17 ar  
    32   16   35 1   
    33   17   18 ar  
    34   17   36 1   
    35   18   19 ar  
    36   18   37 1   
    37   19   20 ar  
    38   19   38 1   
    39   20   39 1   
    40   22   25 2   
    41   23   25 2   
@<TRIPOS>SUBSTRUCTURE
     1 21Z         1 TEMP              0 ****  ****    0 ROOT
