@<TRIPOS>MOLECULE
220
   39    38     1     0     0
SMALL
bcc


@<TRIPOS>ATOM
      1 O1          0.2320    1.5580    0.0590 o         1 220     -0.533100
      2 C1          1.3150    0.9800   -0.0390 c         1 220      0.567900
      3 C2          1.9820    0.2420    1.0780 c3        1 220     -0.210400
      4 C3          1.1930    0.2860    2.3670 c3        1 220     -0.071400
      5 C4          1.8670   -0.5420    3.4420 c3        1 220     -0.065200
      6 C5          1.0940   -0.5490    4.7050 c2        1 220     -0.080200
      7 C6          1.3590   -1.3470    5.7550 ce        1 220     -0.237400
      8 C7          2.4790   -2.3270    5.7890 c3        1 220     -0.029200
      9 C8          2.0100   -3.7130    5.3710 c3        1 220     -0.063200
     10 C9          3.0990   -4.7060    5.5110 c2        1 220     -0.081200
     11 C10         3.6140   -5.4580    4.5220 ce        1 220     -0.230400
     12 C11         3.1690   -5.3960    3.1030 c3        1 220     -0.032200
     13 C12         3.7470   -4.1840    2.3970 c3        1 220     -0.202400
     14 C13         3.2250   -4.0720    0.9980 c         1 220      0.572900
     15 O2          2.8790   -2.9990    0.5000 o         1 220     -0.547100
     16 C14         4.6860   -6.4250    4.8390 c         1 220      0.566100
     17 O3          5.2180   -7.1560    4.0010 o         1 220     -0.529100
     18 C15         0.5160   -1.2630    6.9640 c         1 220      0.567100
     19 O4          0.6820   -1.9670    7.9630 o         1 220     -0.531100
     20 H1          1.8800    0.9700   -1.0000 h4        1 220     -0.005800
     21 H21         2.1330   -0.8260    0.7530 hc        1 220      0.082700
     22 H22         3.0020    0.6860    1.2340 hc        1 220      0.082700
     23 H31         0.1560   -0.0990    2.1800 hc        1 220      0.055200
     24 H32         1.0900    1.3500    2.7080 hc        1 220      0.055200
     25 H41         2.0040   -1.5960    3.0710 hc        1 220      0.061700
     26 H42         2.8960   -0.1330    3.6430 hc        1 220      0.061700
     27 H5          0.2520    0.1660    4.7520 ha        1 220      0.131000
     28 H71         3.3080   -1.9920    5.1100 hc        1 220      0.057700
     29 H72         2.8910   -2.3750    6.8340 hc        1 220      0.057700
     30 H81         1.6190   -3.6720    4.3200 hc        1 220      0.063700
     31 H82         1.1570   -4.0250    6.0370 hc        1 220      0.063700
     32 H9          3.4860   -4.8110    6.5420 ha        1 220      0.130000
     33 H111        2.0480   -5.3630    3.0560 hc        1 220      0.062700
     34 H112        3.4980   -6.3290    2.5670 hc        1 220      0.062700
     35 H121        4.8660   -4.2740    2.3430 hc        1 220      0.074700
     36 H122        3.5110   -3.2510    2.9760 hc        1 220      0.074700
     37 H13         3.1760   -5.0240    0.4230 h4        1 220      0.004200
     38 H14         4.9950   -6.4580    5.9100 h4        1 220     -0.001800
     39 H15        -0.3020   -0.5070    6.9230 h4        1 220     -0.002800
@<TRIPOS>BOND
     1    1    2 2   
     2    2    3 1   
     3    2   20 1   
     4    3    4 1   
     5    3   21 1   
     6    3   22 1   
     7    4    5 1   
     8    4   23 1   
     9    4   24 1   
    10    5    6 1   
    11    5   25 1   
    12    5   26 1   
    13    6    7 2   
    14    6   27 1   
    15    7    8 1   
    16    7   18 1   
    17    8    9 1   
    18    8   28 1   
    19    8   29 1   
    20    9   10 1   
    21    9   30 1   
    22    9   31 1   
    23   10   11 2   
    24   10   32 1   
    25   11   12 1   
    26   11   16 1   
    27   12   13 1   
    28   12   33 1   
    29   12   34 1   
    30   13   14 1   
    31   13   35 1   
    32   13   36 1   
    33   14   15 2   
    34   14   37 1   
    35   16   17 2   
    36   16   38 1   
    37   18   19 2   
    38   18   39 1   
@<TRIPOS>SUBSTRUCTURE
     1 220         1 TEMP              0 ****  ****    0 ROOT
