@<TRIPOS>MOLECULE
220
   39    38     1     0     0
SMALL
bcc


@<TRIPOS>ATOM
      1 O1          0.2110    1.5300    0.0440 o         1 220     -0.533100
      2 C1          1.3090    0.9780   -0.0380 c         1 220      0.567900
      3 C2          1.9720    0.2490    1.0870 c3        1 220     -0.210400
      4 C3          1.1600    0.2690    2.3630 c3        1 220     -0.071400
      5 C4          1.8320   -0.5500    3.4450 c3        1 220     -0.065200
      6 C5          1.0370   -0.5810    4.6940 c2        1 220     -0.080200
      7 C6          1.2990   -1.3790    5.7440 ce        1 220     -0.237400
      8 C7          2.4370   -2.3380    5.7920 c3        1 220     -0.029200
      9 C8          2.0030   -3.7300    5.3570 c3        1 220     -0.063200
     10 C9          3.1090   -4.7020    5.5110 c2        1 220     -0.081200
     11 C10         3.6560   -5.4380    4.5270 ce        1 220     -0.230400
     12 C11         3.2350   -5.3760    3.1000 c3        1 220     -0.032200
     13 C12         3.8020   -4.1490    2.4120 c3        1 220     -0.202400
     14 C13         3.3040   -4.0380    1.0040 c         1 220      0.572900
     15 O2          2.9460   -2.9690    0.5060 o         1 220     -0.547100
     16 C14         4.7400   -6.3860    4.8580 c         1 220      0.566100
     17 O3          5.3010   -7.1010    4.0250 o         1 220     -0.529100
     18 C15         0.4340   -1.3190    6.9390 c         1 220      0.567100
     19 O4          0.5960   -2.0260    7.9360 o         1 220     -0.531100
     20 H1          1.8900    0.9850   -0.9880 h4        1 220     -0.005800
     21 H21         2.1510   -0.8140    0.7600 hc        1 220      0.082700
     22 H22         2.9780    0.7140    1.2640 hc        1 220      0.082700
     23 H31         0.1340   -0.1370    2.1550 hc        1 220      0.055200
     24 H32         1.0270    1.3290    2.7070 hc        1 220      0.055200
     25 H41         1.9970   -1.5990    3.0710 hc        1 220      0.061700
     26 H42         2.8480   -0.1210    3.6670 hc        1 220      0.061700
     27 H5          0.1810    0.1180    4.7310 ha        1 220      0.131000
     28 H71         3.2710   -1.9820    5.1290 hc        1 220      0.057700
     29 H72         2.8320   -2.3850    6.8440 hc        1 220      0.057700
     30 H81         1.6310   -3.6890    4.3000 hc        1 220      0.063700
     31 H82         1.1450   -4.0620    6.0060 hc        1 220      0.063700
     32 H9          3.4790   -4.8060    6.5480 ha        1 220      0.130000
     33 H111        2.1140   -5.3640    3.0340 hc        1 220      0.062700
     34 H112        3.5910   -6.3000    2.5650 hc        1 220      0.062700
     35 H121        4.9230   -4.2170    2.3770 hc        1 220      0.074700
     36 H122        3.5380   -3.2240    2.9920 hc        1 220      0.074700
     37 H13         3.2840   -4.9880    0.4240 h4        1 220      0.004200
     38 H14         5.0300   -6.4200    5.9340 h4        1 220     -0.001800
     39 H15        -0.3980   -0.5790    6.8870 h4        1 220     -0.002800
@<TRIPOS>BOND
     1    1    2 2   
     2    2    3 1   
     3    2   20 1   
     4    3    4 1   
     5    3   21 1   
     6    3   22 1   
     7    4    5 1   
     8    4   23 1   
     9    4   24 1   
    10    5    6 1   
    11    5   25 1   
    12    5   26 1   
    13    6    7 2   
    14    6   27 1   
    15    7    8 1   
    16    7   18 1   
    17    8    9 1   
    18    8   28 1   
    19    8   29 1   
    20    9   10 1   
    21    9   30 1   
    22    9   31 1   
    23   10   11 2   
    24   10   32 1   
    25   11   12 1   
    26   11   16 1   
    27   12   13 1   
    28   12   33 1   
    29   12   34 1   
    30   13   14 1   
    31   13   35 1   
    32   13   36 1   
    33   14   15 2   
    34   14   37 1   
    35   16   17 2   
    36   16   38 1   
    37   18   19 2   
    38   18   39 1   
@<TRIPOS>SUBSTRUCTURE
     1 220         1 TEMP              0 ****  ****    0 ROOT
