@<TRIPOS>MOLECULE
220
   39    38     1     0     0
SMALL
bcc


@<TRIPOS>ATOM
      1 O1          4.0200    3.4970   -0.7010 o         1 220     -0.533100
      2 C1          4.5940    2.8450    0.1730 c         1 220      0.567900
      3 C2          4.1230    1.5200    0.6820 c3        1 220     -0.210400
      4 C3          2.8450    1.0560    0.0230 c3        1 220     -0.071400
      5 C4          2.4550   -0.3240    0.5110 c3        1 220     -0.065200
      6 C5          1.2260   -0.8220   -0.1480 c2        1 220     -0.080200
      7 C6          0.7620   -2.0800   -0.0450 ce        1 220     -0.237400
      8 C7          1.4240   -3.1430    0.7610 c3        1 220     -0.029200
      9 C8          2.3530   -3.9870   -0.0990 c3        1 220     -0.063200
     10 C9          2.9240   -5.1080    0.6810 c2        1 220     -0.081200
     11 C10         4.2320   -5.3320    0.9020 ce        1 220     -0.230400
     12 C11         5.3290   -4.4600    0.3990 c3        1 220     -0.032200
     13 C12         5.4650   -3.2050    1.2410 c3        1 220     -0.202400
     14 C13         6.5050   -2.2860    0.6790 c         1 220      0.572900
     15 O2          6.3480   -1.0650    0.6110 o         1 220     -0.547100
     16 C14         4.6350   -6.5190    1.6840 c         1 220      0.566100
     17 O3          5.8070   -6.8060    1.9380 o         1 220     -0.529100
     18 C15        -0.4770   -2.4600   -0.7510 c         1 220      0.567100
     19 O4         -0.9610   -3.5940   -0.7200 o         1 220     -0.531100
     20 H1          5.5320    3.2150    0.6480 h4        1 220     -0.005800
     21 H21         3.9770    1.6020    1.7930 hc        1 220      0.082700
     22 H22         4.9430    0.7670    0.5110 hc        1 220      0.082700
     23 H31         2.9850    1.0420   -1.0900 hc        1 220      0.055200
     24 H32         2.0230    1.7880    0.2390 hc        1 220      0.055200
     25 H41         2.2890   -0.2970    1.6240 hc        1 220      0.061700
     26 H42         3.3040   -1.0400    0.3280 hc        1 220      0.061700
     27 H5          0.6780   -0.0780   -0.7550 ha        1 220      0.131000
     28 H71         0.6340   -3.8040    1.2110 hc        1 220      0.057700
     29 H72         2.0070   -2.6830    1.6030 hc        1 220      0.057700
     30 H81         3.1560   -3.3320   -0.5310 hc        1 220      0.063700
     31 H82         1.7660   -4.4150   -0.9590 hc        1 220      0.063700
     32 H9          2.1690   -5.8050    1.0910 ha        1 220      0.130000
     33 H111        5.1320   -4.1790   -0.6700 hc        1 220      0.062700
     34 H112        6.2990   -5.0290    0.4210 hc        1 220      0.062700
     35 H121        4.4760   -2.6770    1.3100 hc        1 220      0.074700
     36 H122        5.7740   -3.4810    2.2850 hc        1 220      0.074700
     37 H13         7.4430   -2.7740    0.3320 h4        1 220      0.004200
     38 H14         3.7960   -7.1600    2.0420 h4        1 220     -0.001800
     39 H15        -0.9650   -1.6410   -1.3300 h4        1 220     -0.002800
@<TRIPOS>BOND
     1    1    2 2   
     2    2    3 1   
     3    2   20 1   
     4    3    4 1   
     5    3   21 1   
     6    3   22 1   
     7    4    5 1   
     8    4   23 1   
     9    4   24 1   
    10    5    6 1   
    11    5   25 1   
    12    5   26 1   
    13    6    7 2   
    14    6   27 1   
    15    7    8 1   
    16    7   18 1   
    17    8    9 1   
    18    8   28 1   
    19    8   29 1   
    20    9   10 1   
    21    9   30 1   
    22    9   31 1   
    23   10   11 2   
    24   10   32 1   
    25   11   12 1   
    26   11   16 1   
    27   12   13 1   
    28   12   33 1   
    29   12   34 1   
    30   13   14 1   
    31   13   35 1   
    32   13   36 1   
    33   14   15 2   
    34   14   37 1   
    35   16   17 2   
    36   16   38 1   
    37   18   19 2   
    38   18   39 1   
@<TRIPOS>SUBSTRUCTURE
     1 220         1 TEMP              0 ****  ****    0 ROOT
