@<TRIPOS>MOLECULE
220
   39    35     1     0     0
SMALL
bcc


@<TRIPOS>ATOM
      1 O1         -6.9350    0.8450   -3.3150 o         1 220     -0.282000
      2 C1         -5.8160    1.1590   -3.6730 c1        1 220      0.183000
      3 C2         -4.6990    1.2660   -2.6590 c2        1 220     -0.235000
      4 C3         -3.7760    0.0760   -2.7980 c3        1 220     -0.155000
      5 C4         -2.6690    0.1730   -1.7710 c3        1 220     -0.148000
      6 C5         -1.7080   -0.9810   -1.9550 c2        1 220     -0.066000
      7 C6         -0.6490   -1.1130   -1.1320 c1        1 220     -0.222000
      8 C7         -0.4200   -0.1070   -0.0260 c2        1 220     -0.121000
      9 C8          0.9340   -0.3480    0.6030 c3        1 220     -0.144000
     10 C9          0.9980    0.3470    1.9450 c2        1 220     -0.071000
     11 C10         2.1770    0.4680    2.5870 c1        1 220     -0.218000
     12 C11         3.4370   -0.0930    1.9640 c2        1 220     -0.117000
     13 C12         4.6070    0.1440    2.8940 c3        1 220     -0.231000
     14 C13         5.8820   -0.3270    2.2300 c2        1 220      0.181000
     15 O2          6.4020   -1.3700    2.5810 o         1 220     -0.279000
     16 C14         2.2410    1.1630    3.9280 c2        1 220      0.215000
     17 O3          2.0150    0.5400    4.9480 o         1 220     -0.290000
     18 C15         0.3120   -2.2670   -1.3160 c2        1 220      0.214000
     19 O4          0.0500   -3.3580   -0.8440 o         1 220     -0.292000
     20 H1         -5.6380    1.3420   -4.6170 ha        1 220      0.090000
     21 H21        -4.1950    2.0900   -2.8140 ha        1 220      0.114500
     22 H22        -5.0780    1.2810   -1.7570 ha        1 220      0.114500
     23 H31        -4.2820   -0.7480   -2.6550 hc        1 220      0.090000
     24 H32        -3.3870    0.0680   -3.6960 hc        1 220      0.090000
     25 H41        -2.1900    1.0180   -1.8870 hc        1 220      0.101500
     26 H42        -3.0540    0.1370   -0.8730 hc        1 220      0.101500
     27 H5         -1.8560   -1.6300   -2.6690 ha        1 220      0.149000
     28 H71        -0.4510    0.7980   -0.3960 ha        1 220      0.094500
     29 H72        -1.1170   -0.2050    0.6530 ha        1 220      0.094500
     30 H81         1.6330    0.0060    0.0190 hc        1 220      0.099500
     31 H82         1.0700   -1.3090    0.7280 hc        1 220      0.099500
     32 H9          0.1850    0.7090    2.3470 ha        1 220      0.150000
     33 H111        3.3280   -1.0540    1.8160 ha        1 220      0.091500
     34 H112        3.6050    0.3520    1.1100 ha        1 220      0.091500
     35 H121        4.4690   -0.3540    3.7250 hc        1 220      0.116000
     36 H122        4.6770    1.0990    3.0940 hc        1 220      0.116000
     37 H13         6.2880    0.2060    1.5180 h4        1 220      0.088000
     38 H14         2.4650    2.1140    3.9760 h4        1 220      0.096000
     39 H15         1.1440   -2.1370   -1.8140 h4        1 220      0.093000
@<TRIPOS>BOND
     1    1    2 1   
     2    2   20 1   
     3    3    4 1   
     4    3   21 1   
     5    3   22 1   
     6    4    5 1   
     7    4   23 1   
     8    4   24 1   
     9    5    6 1   
    10    5   25 1   
    11    5   26 1   
    12    6    7 1   
    13    6   27 1   
    14    7   18 1   
    15    8    9 1   
    16    8   28 1   
    17    8   29 1   
    18    9   10 1   
    19    9   30 1   
    20    9   31 1   
    21   10   11 1   
    22   10   32 1   
    23   11   16 1   
    24   12   13 1   
    25   12   33 1   
    26   12   34 1   
    27   13   14 1   
    28   13   35 1   
    29   13   36 1   
    30   14   15 1   
    31   14   37 1   
    32   16   17 1   
    33   16   38 1   
    34   18   19 1   
    35   18   39 1   
@<TRIPOS>SUBSTRUCTURE
     1 220         1 TEMP              0 ****  ****    0 ROOT
