@<TRIPOS>MOLECULE
221
   33    33     1     0     0
SMALL
bcc


@<TRIPOS>ATOM
      1 C1          0.0880   -0.1590   -0.2450 ca        1 221     -0.046000
      2 C2          1.4570    0.0630   -0.0730 ca        1 221     -0.131800
      3 C3          2.0200    0.1750    1.1930 ca        1 221     -0.108000
      4 C4          1.2000    0.0650    2.3430 ca        1 221      0.109600
      5 C5         -0.1780   -0.1650    2.1720 ca        1 221     -0.108000
      6 C6         -0.7150   -0.2710    0.8870 ca        1 221     -0.131800
      7 C7          2.3650    0.1660   -1.3030 c3        1 221      0.689700
      8 C8         -2.2200   -0.5070    0.7470 c3        1 221      0.689700
      9 N9          1.7940    0.2550    3.6100 nu        1 221     -0.732600
     10 C10         1.0790   -0.0010    4.8060 c3        1 221      0.351600
     11 C11         0.8660   -1.5030    5.1740 c3        1 221     -0.102600
     12 C12        -0.0970   -1.6170    6.3360 c         1 221      0.548100
     13 N13         0.4840   -1.4640    7.7140 nz        1 221     -0.768400
     14 S14         1.9550    0.7030    6.2350 sh        1 221     -0.451900
     15 O15        -1.3020   -1.7900    6.2710 o         1 221     -0.371100
     16 C16         2.1120   -2.1870    5.4330 c1        1 221      0.131700
     17 N17         3.1190   -2.7470    5.5930 n1        1 221     -0.223800
     18 F18         1.7300    0.6060   -2.4350 f         1 221     -0.222300
     19 F19         3.4270    1.0210   -1.1390 f         1 221     -0.222300
     20 F20         2.9360   -1.0300   -1.6600 f         1 221     -0.222300
     21 F21        -2.6070   -1.0180   -0.4630 f         1 221     -0.222300
     22 F22        -2.7240   -1.3860    1.6770 f         1 221     -0.222300
     23 F23        -2.9730    0.6280    0.9110 f         1 221     -0.222300
     24 H1         -0.3460   -0.2420   -1.2580 ha        1 221      0.191000
     25 H3          3.1050    0.3620    1.2860 ha        1 221      0.156000
     26 H5         -0.8640   -0.2620    3.0280 ha        1 221      0.156000
     27 HN9         2.7730    0.0420    3.6470 hn        1 221      0.445800
     28 H11         0.3540   -2.0020    4.2840 hc        1 221      0.171700
     29 H131        1.1890   -2.1890    7.8820 hn        1 221      0.482467
     30 H132        0.9440   -0.5240    7.7700 hn        1 221      0.482467
     31 HS          1.7740    2.0130    6.0200 hs        1 221      0.306800
     32 H10         0.0580    0.4750    4.7340 h2        1 221      0.113700
     33 H133       -0.2520   -1.5360    8.4270 hn        1 221      0.482467
@<TRIPOS>BOND
     1    1    2 ar  
     2    1    6 ar  
     3    1   24 1   
     4    2    3 ar  
     5    2    7 1   
     6    3    4 ar  
     7    3   25 1   
     8    4    5 ar  
     9    4    9 1   
    10    5    6 ar  
    11    5   26 1   
    12    6    8 1   
    13    7   18 1   
    14    7   19 1   
    15    7   20 1   
    16    8   21 1   
    17    8   22 1   
    18    8   23 1   
    19    9   10 1   
    20    9   27 1   
    21   10   11 1   
    22   10   14 1   
    23   10   32 1   
    24   11   12 1   
    25   11   16 1   
    26   11   28 1   
    27   12   13 1   
    28   12   15 2   
    29   13   29 1   
    30   13   30 1   
    31   13   33 1   
    32   14   31 1   
    33   16   17 3   
@<TRIPOS>SUBSTRUCTURE
     1 221         1 TEMP              0 ****  ****    0 ROOT
