@<TRIPOS>MOLECULE
221
   33    33     1     0     0
SMALL
bcc


@<TRIPOS>ATOM
      1 C1          0.0970   -0.0990   -0.2400 ca        1 221     -0.046000
      2 C2          1.4680    0.1070   -0.0630 ca        1 221     -0.131800
      3 C3          2.0300    0.1920    1.2060 ca        1 221     -0.108000
      4 C4          1.2060    0.0710    2.3530 ca        1 221      0.109600
      5 C5         -0.1730   -0.1440    2.1750 ca        1 221     -0.108000
      6 C6         -0.7090   -0.2230    0.8890 ca        1 221     -0.131800
      7 C7          2.3790    0.2240   -1.2890 c3        1 221      0.689700
      8 C8         -2.2160   -0.4430    0.7420 c3        1 221      0.689700
      9 N9          1.8010    0.2340    3.6230 nh        1 221     -0.732600
     10 C10         1.0810   -0.0350    4.8140 c3        1 221      0.351600
     11 C11         0.8520   -1.5400    5.1570 c3        1 221     -0.102600
     12 C12        -0.1130   -1.6640    6.3160 c         1 221      0.548100
     13 N13         0.4670   -1.5390    7.6970 n4        1 221     -0.768400
     14 S14         1.9610    0.6380    6.2560 sh        1 221     -0.451900
     15 O15        -1.3200   -1.8230    6.2470 o         1 221     -0.371100
     16 C16         2.0910   -2.2410    5.4070 c1        1 221      0.131700
     17 N17         3.0920   -2.8130    5.5590 n1        1 221     -0.223800
     18 F18         1.7480    0.6850   -2.4150 f         1 221     -0.222300
     19 F19         3.4460    1.0680   -1.1100 f         1 221     -0.222300
     20 F20         2.9420   -0.9710   -1.6630 f         1 221     -0.222300
     21 F21        -2.6050   -0.9320   -0.4760 f         1 221     -0.222300
     22 F22        -2.7300   -1.3310    1.6580 f         1 221     -0.222300
     23 F23        -2.9590    0.6970    0.9220 f         1 221     -0.222300
     24 H1         -0.3360   -0.1610   -1.2550 ha        1 221      0.191000
     25 H3          3.1160    0.3680    1.3040 ha        1 221      0.156000
     26 H5         -0.8610   -0.2490    3.0290 ha        1 221      0.156000
     27 HN9         2.7780    0.0100    3.6580 hn        1 221      0.445800
     28 H11         0.3370   -2.0200    4.2590 hc        1 221      0.171700
     29 H131        0.9360   -0.6040    7.7690 hn        1 221      0.482467
     30 H132        1.1650   -2.2740    7.8550 hn        1 221      0.482467
     31 HS          1.7930    1.9530    6.0620 hs        1 221      0.306800
     32 H10         0.0650    0.4530    4.7480 h2        1 221      0.113700
     33 H133       -0.2710   -1.6150    8.4080 hn        1 221      0.482467
@<TRIPOS>BOND
     1    1    2 ar  
     2    1    6 ar  
     3    1   24 1   
     4    2    3 ar  
     5    2    7 1   
     6    3    4 ar  
     7    3   25 1   
     8    4    5 ar  
     9    4    9 1   
    10    5    6 ar  
    11    5   26 1   
    12    6    8 1   
    13    7   18 1   
    14    7   19 1   
    15    7   20 1   
    16    8   21 1   
    17    8   22 1   
    18    8   23 1   
    19    9   10 1   
    20    9   27 1   
    21   10   11 1   
    22   10   14 1   
    23   10   32 1   
    24   11   12 1   
    25   11   16 1   
    26   11   28 1   
    27   12   13 1   
    28   12   15 2   
    29   13   29 1   
    30   13   30 1   
    31   13   33 1   
    32   14   31 1   
    33   16   17 3   
@<TRIPOS>SUBSTRUCTURE
     1 221         1 TEMP              0 ****  ****    0 ROOT
