@<TRIPOS>MOLECULE
221
   34    34     1     0     0
SMALL
bcc


@<TRIPOS>ATOM
      1 C1         -0.1150    0.3920    0.0380 ca        1 221      0.033000
      2 C2          0.9990   -0.4120    0.3000 ca        1 221     -0.145800
      3 C3          1.6380   -0.3780    1.5380 ca        1 221     -0.045000
      4 C4          1.1380    0.4710    2.5420 ca        1 221     -0.105400
      5 C5          0.0200    1.2910    2.2940 ca        1 221     -0.045000
      6 C6         -0.5940    1.2360    1.0450 ca        1 221     -0.145800
      7 C7          1.5540   -1.3530   -0.7850 c3        1 221      0.696200
      8 C8         -1.8130    2.1410    0.7790 c3        1 221      0.696200
      9 N9          1.8190    0.5480    3.8370 n4        1 221     -0.625400
     10 C10         1.0770   -0.1520    4.9480 c3        1 221      0.170600
     11 C11         1.2500   -1.6900    4.8880 c3        1 221     -0.045600
     12 C12         0.2850   -2.3220    5.8810 c         1 221      0.545100
     13 N13         0.8090   -3.3890    6.7940 n4        1 221     -0.741400
     14 S14         1.6860    0.4020    6.5240 sh        1 221     -0.246900
     15 O15        -0.9010   -2.0540    5.9710 o         1 221     -0.347100
     16 C16         2.6250   -2.0830    5.0980 c1        1 221      0.069700
     17 N17         3.7370   -2.4010    5.2320 n1        1 221     -0.147800
     18 F18         0.6610   -1.6360   -1.7800 f         1 221     -0.202633
     19 F19         2.6690   -0.8570   -1.4050 f         1 221     -0.202633
     20 F20         1.9360   -2.5690   -0.2740 f         1 221     -0.202633
     21 F21        -2.6410    1.6680   -0.2000 f         1 221     -0.202633
     22 F22        -2.6030    2.2980    1.8900 f         1 221     -0.202633
     23 F23        -1.4630    3.4090    0.4010 f         1 221     -0.202633
     24 H1         -0.6150    0.3570   -0.9540 ha        1 221      0.223000
     25 H3          2.5320   -1.0110    1.6920 ha        1 221      0.178000
     26 H5         -0.3820    1.9820    3.0570 ha        1 221      0.178000
     27 HN9         2.7680    0.1500    3.7480 hn        1 221      0.481300
     28 H11         0.9170   -2.0590    3.8580 hc        1 221      0.171700
     29 H131        1.2350   -4.1540    6.2520 hn        1 221      0.496467
     30 H132        0.0340   -3.7750    7.3620 hn        1 221      0.496467
     31 HS          0.8080    1.3770    6.8010 hs        1 221      0.280800
     32 H10        -0.0240    0.0810    4.8060 hx        1 221      0.163700
     33 H92         1.9230    1.5440    4.1050 hn        1 221      0.481300
     34 H133        1.5200   -2.9960    7.4280 hn        1 221      0.496467
@<TRIPOS>BOND
     1    1    2 ar  
     2    1    6 ar  
     3    1   24 1   
     4    2    3 ar  
     5    2    7 1   
     6    3    4 ar  
     7    3   25 1   
     8    4    5 ar  
     9    4    9 1   
    10    5    6 ar  
    11    5   26 1   
    12    6    8 1   
    13    7   18 1   
    14    7   19 1   
    15    7   20 1   
    16    8   21 1   
    17    8   22 1   
    18    8   23 1   
    19    9   10 1   
    20    9   27 1   
    21    9   33 1   
    22   10   11 1   
    23   10   14 1   
    24   10   32 1   
    25   11   12 1   
    26   11   16 1   
    27   11   28 1   
    28   12   13 1   
    29   12   15 2   
    30   13   29 1   
    31   13   30 1   
    32   13   34 1   
    33   14   31 1   
    34   16   17 3   
@<TRIPOS>SUBSTRUCTURE
     1 221         1 TEMP              0 ****  ****    0 ROOT
