@<TRIPOS>MOLECULE
221
   32    32     1     0     0
SMALL
bcc


@<TRIPOS>ATOM
      1 C1          0.1400    1.1560   -4.9400 ca        1 221     -0.082000
      2 C2         -0.8350    1.7690   -4.1490 ca        1 221     -0.127300
      3 C3         -0.6760    1.9050   -2.7760 ca        1 221     -0.130000
      4 C4          0.4950    1.4120   -2.1400 ca        1 221      0.162600
      5 C5          1.4800    0.7950   -2.9440 ca        1 221     -0.130000
      6 C6          1.2900    0.6760   -4.3200 ca        1 221     -0.127300
      7 C7         -2.0960    2.3210   -4.8130 c3        1 221      0.688200
      8 C8          2.3670   -0.0120   -5.1550 c3        1 221      0.688200
      9 N9          0.5990    1.4830   -0.7500 nh        1 221     -0.743600
     10 C10         1.8580    1.3330   -0.0770 c3        1 221      0.317600
     11 C11         2.8920    2.4430   -0.3840 c3        1 221     -0.118600
     12 C12         4.2180    2.1530    0.3310 c         1 221      0.665100
     13 N13         5.0460    1.2260   -0.2410 n         1 221     -0.663000
     14 S14         1.5490    1.1170    1.6880 sh        1 221     -0.332900
     15 O15         4.5310    2.7340    1.3860 o         1 221     -0.579100
     16 C16         2.3940    3.7530   -0.0170 c1        1 221      0.197700
     17 N17         2.0010    4.8120    0.2570 n1        1 221     -0.314800
     18 F18        -2.4800    1.6500   -5.9470 f         1 221     -0.231133
     19 F19        -3.2120    2.3070   -4.0130 f         1 221     -0.231133
     20 F20        -1.9840    3.6310   -5.2130 f         1 221     -0.231133
     21 F21         2.4350    0.4090   -6.4590 f         1 221     -0.231133
     22 F22         3.6450    0.1600   -4.6760 f         1 221     -0.231133
     23 F23         2.2240   -1.3750   -5.2420 f         1 221     -0.231133
     24 H1         -0.0000    1.0570   -6.0290 ha        1 221      0.174000
     25 H3         -1.4720    2.3900   -2.1840 ha        1 221      0.155000
     26 H5          2.4040    0.3920   -2.5020 ha        1 221      0.155000
     27 HN9        -0.0540    2.0870   -0.2950 hn        1 221      0.439800
     28 H11         3.0680    2.4560   -1.5050 hc        1 221      0.106700
     29 H131        5.9130    1.0180    0.1930 hn        1 221      0.323000
     30 H132        4.8210    0.7850   -1.0950 hn        1 221      0.323000
     31 HS          2.0550    2.2590    2.1450 hs        1 221      0.237800
     32 H10         2.3120    0.3480   -0.3970 h2        1 221      0.102700
@<TRIPOS>BOND
     1    1    2 ar  
     2    1    6 ar  
     3    1   24 1   
     4    2    3 ar  
     5    2    7 1   
     6    3    4 ar  
     7    3   25 1   
     8    4    5 ar  
     9    4    9 1   
    10    5    6 ar  
    11    5   26 1   
    12    6    8 1   
    13    7   18 1   
    14    7   19 1   
    15    7   20 1   
    16    8   21 1   
    17    8   22 1   
    18    8   23 1   
    19    9   10 1   
    20    9   27 1   
    21   10   11 1   
    22   10   14 1   
    23   10   32 1   
    24   11   12 1   
    25   11   16 1   
    26   11   28 1   
    27   12   13 1   
    28   12   15 2   
    29   13   29 1   
    30   13   30 1   
    31   14   31 1   
    32   16   17 3   
@<TRIPOS>SUBSTRUCTURE
     1 221         1 TEMP              0 ****  ****    0 ROOT
