@<TRIPOS>MOLECULE
221
   32    29     1     0     0
SMALL
bcc


@<TRIPOS>ATOM
      1 C1         -1.5920    0.6000   -2.9330 c1        1 221     -0.031500
      2 C2         -0.2060    0.6090   -2.9790 c1        1 221     -0.105600
      3 C3          0.5370    0.5630   -1.7880 c1        1 221     -0.031500
      4 C4         -0.1170    0.5080   -0.5620 c1        1 221      0.104800
      5 C5         -1.5090    0.4990   -0.5170 c1        1 221     -0.045500
      6 C6         -2.2480    0.5450   -1.7060 c1        1 221     -0.105600
      7 C7          0.5160    0.6890   -4.3320 c3        1 221      0.654000
      8 C8         -3.7750    0.4960   -1.6590 c3        1 221      0.654000
      9 N9          0.6560    0.6110    0.6870 n3        1 221     -0.701800
     10 C10         0.5200   -0.4070    1.7100 c3        1 221      0.329600
     11 C11         1.8630   -0.6480    2.3660 c3        1 221     -0.069600
     12 C12         1.6840   -1.5730    3.5640 c         1 221      0.672100
     13 N13         2.8240   -2.1730    4.1780 n         1 221     -0.643000
     14 S14        -0.6330    0.1260    2.9160 sh        1 221     -0.441900
     15 O15         0.5680   -1.7810    4.0130 o         1 221     -0.610100
     16 C16         2.4400    0.6630    2.8260 c1        1 221      0.199700
     17 N17         2.8770    1.6520    3.1730 n1        1 221     -0.333800
     18 F18        -0.3580    1.0250   -5.2840 f         1 221     -0.230300
     19 F19         1.4870    1.6160   -4.2680 f         1 221     -0.230300
     20 F20         1.0580   -0.5090   -4.6240 f         1 221     -0.230300
     21 F21        -4.2620    0.6550   -2.8890 f         1 221     -0.230300
     22 F22        -4.1720   -0.6930   -1.1690 f         1 221     -0.230300
     23 F23        -4.2300    1.4800   -0.8680 f         1 221     -0.230300
     24 H1         -2.1090    0.6320   -3.7650 ha        1 221      0.111000
     25 H3          1.5160    0.5690   -1.8210 ha        1 221      0.111000
     26 H5         -1.9710    0.4600    0.3470 ha        1 221      0.109500
     27 HN9         1.2260    1.3160    0.8150 hn        1 221      0.426800
     28 H11         2.4620   -1.0570    1.7320 hc        1 221      0.131700
     29 H131        2.7140   -2.7410    4.9070 hn        1 221      0.323000
     30 H132        3.6640   -2.0210    3.8370 hn        1 221      0.323000
     31 HS         -1.6330   -0.4720    2.7920 hs        1 221      0.230800
     32 H10         0.2040   -1.2380    1.3030 h2        1 221      0.119700
@<TRIPOS>BOND
     1    1    6 3   
     2    1   24 1   
     3    2    3 3   
     4    2    7 1   
     5    3   25 1   
     6    4    5 3   
     7    4    9 1   
     8    5   26 1   
     9    6    8 1   
    10    7   18 1   
    11    7   19 1   
    12    7   20 1   
    13    8   21 1   
    14    8   22 1   
    15    8   23 1   
    16    9   10 1   
    17    9   27 1   
    18   10   11 1   
    19   10   14 1   
    20   10   32 1   
    21   11   12 1   
    22   11   16 1   
    23   11   28 1   
    24   12   13 1   
    25   12   15 2   
    26   13   29 1   
    27   13   30 1   
    28   14   31 1   
    29   16   17 3   
@<TRIPOS>SUBSTRUCTURE
     1 221         1 TEMP              0 ****  ****    0 ROOT
