@<TRIPOS>MOLECULE
222
   56    60     1     0     0
SMALL
bcc


@<TRIPOS>ATOM
      1 C13        -0.6180   -2.4610    0.4310 c         1 222      0.669700
      2 C1         -2.2810   -0.2790   -0.9540 ca        1 222     -0.094000
      3 C2         -2.5260   -0.8980    0.2880 ca        1 222      0.064600
      4 C3         -3.8520   -0.9750    0.7670 ca        1 222      0.032400
      5 C4         -4.8990   -0.4300    0.0170 ca        1 222     -0.128000
      6 C5         -4.6410    0.1810   -1.2070 ca        1 222     -0.118000
      7 C6         -3.3360    0.2500   -1.6920 ca        1 222     -0.124000
      8 C14         0.4820   -2.9640    1.2660 cc        1 222     -0.211200
      9 N11        -1.4230   -1.4460    1.0340 n         1 222     -0.111000
     10 CL1        -4.2230   -1.7340    2.2400 cl        1 222     -0.077400
     11 C15         0.7010   -2.4560    2.4970 cd        1 222     -0.159600
     12 C16        -0.1910   -1.3960    2.9870 cd        1 222      0.520500
     13 N17        -1.2260   -0.9550    2.2570 nc        1 222     -0.451300
     14 O18        -0.8550   -2.8540   -0.7230 o         1 222     -0.606500
     15 N21         0.1420   -0.8130    4.2500 nh        1 222     -0.573000
     16 C22        -0.5380    0.4170    4.6500 c3        1 222      0.189800
     17 C23         0.2740   -1.7660    5.3130 ca        1 222      0.082600
     18 C33         1.5190   -1.8440    5.9720 ca        1 222     -0.082000
     19 C34         1.7260   -2.7350    7.0160 ca        1 222     -0.169000
     20 C35         0.6820   -3.5810    7.4290 ca        1 222      0.139900
     21 C36        -0.5690   -3.5230    6.7920 ca        1 222     -0.162000
     22 C37        -0.7670   -2.6190    5.7480 ca        1 222      0.026400
     23 CL2        -2.2930   -2.5700    5.0090 cl        1 222     -0.060400
     24 F42         0.8790   -4.4550    8.4440 f         1 222     -0.131900
     25 C24        -0.0660    1.6390    3.8650 c3        1 222     -0.104400
     26 C27        -0.6900    2.9170    4.4300 c3        1 222      0.105000
     27 N30        -2.0830    3.1130    4.1440 n         1 222     -0.523400
     28 C43        -3.1510    2.6100    4.9380 c         1 222      0.725100
     29 C44        -4.4210    2.9720    4.2300 ca        1 222     -0.136600
     30 C45        -4.0720    3.6580    3.0310 ca        1 222     -0.136600
     31 C46        -2.5780    3.7390    2.9650 c         1 222      0.725100
     32 C47        -5.7380    2.7440    4.5630 ca        1 222     -0.062500
     33 C48        -6.7280    3.2130    3.6770 ca        1 222     -0.118000
     34 C49        -6.3890    3.8820    2.5080 ca        1 222     -0.118000
     35 C50        -5.0420    4.1150    2.1660 ca        1 222     -0.062500
     36 O55        -3.0120    2.0110    6.0070 o         1 222     -0.572500
     37 O56        -1.8750    4.2570    2.0940 o         1 222     -0.572500
     38 H4         -5.9310   -0.4910    0.3960 ha        1 222      0.148000
     39 H5         -5.4710    0.6040   -1.7930 ha        1 222      0.138000
     40 H6         -3.1320    0.7260   -2.6630 ha        1 222      0.142000
     41 H14         1.0950   -3.7600    0.8180 ha        1 222      0.171000
     42 H15         1.5210   -2.8040    3.1430 ha        1 222      0.159000
     43 H221       -1.6600    0.3260    4.5650 h1        1 222      0.060700
     44 H222       -0.3040    0.5860    5.7420 h1        1 222      0.060700
     45 H33         2.3450   -1.1840    5.6570 ha        1 222      0.156000
     46 H34         2.7010   -2.7850    7.5240 ha        1 222      0.156000
     47 H36        -1.3820   -4.1870    7.1240 ha        1 222      0.167000
     48 H241        1.0480    1.7440    3.9520 hc        1 222      0.064700
     49 H242       -0.3110    1.5360    2.7770 hc        1 222      0.064700
     50 H271       -0.5690    2.9240    5.5520 h1        1 222      0.068200
     51 H272       -0.1330    3.7970    3.9950 h1        1 222      0.068200
     52 H47        -6.0110    2.2140    5.4870 ha        1 222      0.159000
     53 H48        -7.7870    3.0410    3.9230 ha        1 222      0.143000
     54 H49        -7.1800    4.2390    1.8310 ha        1 222      0.143000
     55 H50        -4.7780    4.6450    1.2380 ha        1 222      0.159000
     56 H1         -1.2560   -0.2370   -1.3540 ha        1 222      0.155000
@<TRIPOS>BOND
     1    1    8 1   
     2    1    9 1   
     3    1   14 2   
     4    2    3 ar  
     5    2    7 ar  
     6    2   56 1   
     7    3    4 ar  
     8    3    9 1   
     9    4    5 ar  
    10    4   10 1   
    11    5    6 ar  
    12    5   38 1   
    13    6    7 ar  
    14    6   39 1   
    15    7   40 1   
    16    8   11 2   
    17    8   41 1   
    18    9   13 1   
    19   11   12 1   
    20   11   42 1   
    21   12   13 2   
    22   12   15 1   
    23   15   16 1   
    24   15   17 1   
    25   16   25 1   
    26   16   43 1   
    27   16   44 1   
    28   17   18 ar  
    29   17   22 ar  
    30   18   19 ar  
    31   18   45 1   
    32   19   20 ar  
    33   19   46 1   
    34   20   21 ar  
    35   20   24 1   
    36   21   22 ar  
    37   21   47 1   
    38   22   23 1   
    39   25   26 1   
    40   25   48 1   
    41   25   49 1   
    42   26   27 1   
    43   26   50 1   
    44   26   51 1   
    45   27   28 1   
    46   27   31 1   
    47   28   29 1   
    48   28   36 2   
    49   29   30 ar  
    50   29   32 ar  
    51   30   31 1   
    52   30   35 ar  
    53   31   37 2   
    54   32   33 ar  
    55   32   52 1   
    56   33   34 ar  
    57   33   53 1   
    58   34   35 ar  
    59   34   54 1   
    60   35   55 1   
@<TRIPOS>SUBSTRUCTURE
     1 222         1 TEMP              0 ****  ****    0 ROOT
