@<TRIPOS>MOLECULE
222
   56    60     1     0     0
SMALL
bcc


@<TRIPOS>ATOM
      1 C13         0.0160   -0.4070   -0.0310 c         1 222      0.669700
      2 C1         -2.7700    0.6530    0.7170 ca        1 222     -0.094000
      3 C2         -1.9470   -0.2180    1.4580 ca        1 222      0.064600
      4 C3         -2.5440   -1.1270    2.3580 ca        1 222      0.032400
      5 C4         -3.9340   -1.1450    2.5150 ca        1 222     -0.128000
      6 C5         -4.7340   -0.2760    1.7780 ca        1 222     -0.118000
      7 C6         -4.1520    0.6160    0.8780 ca        1 222     -0.124000
      8 C14         1.4810   -0.3420   -0.1260 cc        1 222     -0.211200
      9 N11        -0.5200   -0.1700    1.2730 n         1 222     -0.111000
     10 Cl1        -1.6150   -2.2260    3.2590 cl        1 222     -0.077400
     11 C15         2.2300   -0.0460    0.9570 cd        1 222     -0.159600
     12 C16         1.5470    0.2000    2.2350 cd        1 222      0.520500
     13 N17         0.2140    0.1020    2.3500 nc        1 222     -0.451300
     14 O18        -0.7370   -0.6370   -0.9920 o         1 222     -0.606500
     15 N21         2.3690    0.6150    3.3300 nh        1 222     -0.573000
     16 C22         1.7180    1.1350    4.5310 c3        1 222      0.189800
     17 C23         3.4580   -0.2740    3.6090 ca        1 222      0.082600
     18 C33         4.7670    0.2470    3.5260 ca        1 222     -0.082000
     19 C34         5.8750   -0.5470    3.7870 ca        1 222     -0.169000
     20 C35         5.6990   -1.8970    4.1390 ca        1 222      0.139900
     21 C36         4.4080   -2.4410    4.2310 ca        1 222     -0.162000
     22 C37         3.3010   -1.6320    3.9720 ca        1 222      0.026400
     23 Cl2         1.7560   -2.3210    4.1020 cl        1 222     -0.060400
     24 F42         6.7770   -2.6760    4.3920 f         1 222     -0.131900
     25 C24         1.1310    2.5310    4.3310 c3        1 222     -0.104400
     26 C27         0.6050    3.0890    5.6550 c3        1 222      0.105000
     27 N30        -0.6140    2.5080    6.1400 n         1 222     -0.523400
     28 C43        -0.6870    1.3460    6.9580 c         1 222      0.725100
     29 C44        -2.1420    1.0470    7.1520 ca        1 222     -0.136600
     30 C45        -2.8890    2.0220    6.4300 ca        1 222     -0.136600
     31 C46        -1.9150    2.9510    5.7710 c         1 222      0.725100
     32 C47        -2.7730    0.0510    7.8650 ca        1 222     -0.062500
     33 C48        -4.1820    0.0310    7.8550 ca        1 222     -0.118000
     34 C49        -4.9100    0.9820    7.1520 ca        1 222     -0.118000
     35 C50        -4.2660    2.0010    6.4220 ca        1 222     -0.062500
     36 O55         0.2880    0.7420    7.4130 o         1 222     -0.572500
     37 O56        -2.1510    3.9310    5.0600 o         1 222     -0.572500
     38 H4         -4.3940   -1.8550    3.2200 ha        1 222      0.148000
     39 H5         -5.8270   -0.2990    1.9040 ha        1 222      0.138000
     40 H6         -4.7840    1.2970    0.2900 ha        1 222      0.142000
     41 H14         1.9030   -0.5440   -1.1210 ha        1 222      0.171000
     42 H15         3.3270    0.0210    0.9180 ha        1 222      0.159000
     43 H221        2.5080    1.1960    5.3360 h1        1 222      0.060700
     44 H222        0.9140    0.4400    4.9100 h1        1 222      0.060700
     45 H33         4.9160    1.3050    3.2510 ha        1 222      0.156000
     46 H34         6.8900   -0.1290    3.7220 ha        1 222      0.156000
     47 H36         4.2790   -3.4980    4.5110 ha        1 222      0.167000
     48 H241        0.3140    2.5170    3.5650 hc        1 222      0.064700
     49 H242        1.9250    3.2330    3.9640 hc        1 222      0.064700
     50 H271        1.3900    2.9490    6.4540 h1        1 222      0.068200
     51 H272        0.4160    4.1940    5.5150 h1        1 222      0.068200
     52 H47        -2.2010   -0.7050    8.4230 ha        1 222      0.159000
     53 H48        -4.7070   -0.7560    8.4180 ha        1 222      0.143000
     54 H49        -6.0100    0.9460    7.1590 ha        1 222      0.143000
     55 H50        -4.8460    2.7520    5.8660 ha        1 222      0.159000
     56 H1         -2.3210    1.3480   -0.0110 ha        1 222      0.155000
@<TRIPOS>BOND
     1    1    8 1   
     2    1    9 1   
     3    1   14 2   
     4    2    3 ar  
     5    2    7 ar  
     6    2   56 1   
     7    3    4 ar  
     8    3    9 1   
     9    4    5 ar  
    10    4   10 1   
    11    5    6 ar  
    12    5   38 1   
    13    6    7 ar  
    14    6   39 1   
    15    7   40 1   
    16    8   11 2   
    17    8   41 1   
    18    9   13 1   
    19   11   12 1   
    20   11   42 1   
    21   12   13 2   
    22   12   15 1   
    23   15   16 1   
    24   15   17 1   
    25   16   25 1   
    26   16   43 1   
    27   16   44 1   
    28   17   18 ar  
    29   17   22 ar  
    30   18   19 ar  
    31   18   45 1   
    32   19   20 ar  
    33   19   46 1   
    34   20   21 ar  
    35   20   24 1   
    36   21   22 ar  
    37   21   47 1   
    38   22   23 1   
    39   25   26 1   
    40   25   48 1   
    41   25   49 1   
    42   26   27 1   
    43   26   50 1   
    44   26   51 1   
    45   27   28 1   
    46   27   31 1   
    47   28   29 1   
    48   28   36 2   
    49   29   30 ar  
    50   29   32 ar  
    51   30   31 1   
    52   30   35 ar  
    53   31   37 2   
    54   32   33 ar  
    55   32   52 1   
    56   33   34 ar  
    57   33   53 1   
    58   34   35 ar  
    59   34   54 1   
    60   35   55 1   
@<TRIPOS>SUBSTRUCTURE
     1 222         1 TEMP              0 ****  ****    0 ROOT
