@<TRIPOS>MOLECULE
222
   57    61     1     0     0
SMALL
bcc


@<TRIPOS>ATOM
      1 C13         0.0680    0.0680   -0.1390 c         1 222      0.669700
      2 C1         -3.0040   -0.4740    0.1910 ca        1 222     -0.083000
      3 C2         -1.9150   -1.2920    0.5420 ca        1 222      0.006600
      4 C3         -2.0620   -2.6960    0.5380 ca        1 222      0.036400
      5 C4         -3.2890   -3.2630    0.1810 ca        1 222     -0.114000
      6 C5         -4.3620   -2.4440   -0.1680 ca        1 222     -0.089000
      7 C6         -4.2170   -1.0570   -0.1660 ca        1 222     -0.115000
      8 C14         1.3830    0.5780    0.2760 cc        1 222     -0.184200
      9 N11        -0.6490   -0.6780    0.8870 n         1 222     -0.071000
     10 CL1        -0.7690   -3.7190    0.9430 cl        1 222     -0.076400
     11 C15         1.8490    0.3710    1.5280 cd        1 222     -0.154600
     12 C16         1.0050   -0.3790    2.4440 cd        1 222      0.332500
     13 N17        -0.1950   -0.8800    2.0930 nc        1 222     -0.360300
     14 O18        -0.4500    0.2330   -1.2430 o         1 222     -0.514500
     15 N21         1.4520   -0.6390    3.8340 n4        1 222     -0.473800
     16 C22         0.9460    0.4130    4.7880 c3        1 222      0.117800
     17 C23         2.9060   -0.8530    3.8970 ca        1 222     -0.059400
     18 C33         3.7870    0.1970    4.2080 ca        1 222     -0.068000
     19 C34         5.1530   -0.0300    4.2930 ca        1 222     -0.156000
     20 C35         5.6670   -1.3220    4.0620 ca        1 222      0.202900
     21 C36         4.7950   -2.3830    3.7480 ca        1 222     -0.150000
     22 C37         3.4250   -2.1500    3.6650 ca        1 222      0.057400
     23 CL2         2.3980   -3.4460    3.2970 cl        1 222     -0.023400
     24 F42         6.9920   -1.5460    4.1420 f         1 222     -0.091900
     25 C24         0.7940    1.8110    4.2110 c3        1 222     -0.116400
     26 C27         0.6790    2.8440    5.3400 c3        1 222      0.108000
     27 N30        -0.4940    2.7420    6.1520 n         1 222     -0.547400
     28 C43        -0.6530    1.8310    7.2340 c         1 222      0.729600
     29 C44        -1.9000    2.2250    7.9530 ca        1 222     -0.145100
     30 C45        -2.4530    3.3590    7.2850 ca        1 222     -0.145100
     31 C46        -1.5580    3.7040    6.1400 c         1 222      0.729600
     32 C47        -2.5110    1.6860    9.0640 ca        1 222     -0.050000
     33 C48        -3.7000    2.2930    9.5170 ca        1 222     -0.106000
     34 C49        -4.2380    3.3960    8.8660 ca        1 222     -0.106000
     35 C50        -3.6150    3.9500    7.7290 ca        1 222     -0.050000
     36 O55         0.1200    0.8920    7.4540 o         1 222     -0.580500
     37 O56        -1.6510    4.6070    5.3100 o         1 222     -0.580500
     38 H4         -3.4040   -4.3590    0.1720 ha        1 222      0.167000
     39 H5         -5.3250   -2.8990   -0.4520 ha        1 222      0.159000
     40 H6         -5.0640   -0.4130   -0.4510 ha        1 222      0.159000
     41 H14         1.9460    1.1240   -0.4990 ha        1 222      0.199000
     42 H15         2.8320    0.7390    1.8600 ha        1 222      0.169000
     43 H221       -0.0680    0.0540    5.1390 hx        1 222      0.119700
     44 H222        1.6330    0.4210    5.6860 hx        1 222      0.119700
     45 H33         3.4090    1.2170    4.3990 ha        1 222      0.165000
     46 H34         5.8430    0.7940    4.5430 ha        1 222      0.186000
     47 H36         5.2060   -3.3930    3.5720 ha        1 222      0.197000
     48 H241        1.6820    2.0970    3.5870 hc        1 222      0.072200
     49 H242       -0.1100    1.8580    3.5490 hc        1 222      0.072200
     50 H271        1.5880    2.7500    6.0030 h1        1 222      0.079700
     51 H272        0.6810    3.8690    4.8620 h1        1 222      0.079700
     52 H47        -2.0890    0.8150    9.5880 ha        1 222      0.166000
     53 H48        -4.2040    1.8800   10.4060 ha        1 222      0.157500
     54 H49        -5.1680    3.8550    9.2390 ha        1 222      0.157500
     55 H50        -4.0460    4.8260    7.2200 ha        1 222      0.166000
     56 H211        1.0200   -1.5340    4.1450 hn        1 222      0.472800
     57 H1         -2.8960    0.6220    0.1700 ha        1 222      0.157000
@<TRIPOS>BOND
     1    1    8 1   
     2    1    9 1   
     3    1   14 2   
     4    2    3 ar  
     5    2    7 ar  
     6    2   57 1   
     7    3    4 ar  
     8    3    9 1   
     9    4    5 ar  
    10    4   10 1   
    11    5    6 ar  
    12    5   38 1   
    13    6    7 ar  
    14    6   39 1   
    15    7   40 1   
    16    8   11 2   
    17    8   41 1   
    18    9   13 1   
    19   11   12 1   
    20   11   42 1   
    21   12   13 2   
    22   12   15 1   
    23   15   16 1   
    24   15   17 1   
    25   15   56 1   
    26   16   25 1   
    27   16   43 1   
    28   16   44 1   
    29   17   18 ar  
    30   17   22 ar  
    31   18   19 ar  
    32   18   45 1   
    33   19   20 ar  
    34   19   46 1   
    35   20   21 ar  
    36   20   24 1   
    37   21   22 ar  
    38   21   47 1   
    39   22   23 1   
    40   25   26 1   
    41   25   48 1   
    42   25   49 1   
    43   26   27 1   
    44   26   50 1   
    45   26   51 1   
    46   27   28 1   
    47   27   31 1   
    48   28   29 1   
    49   28   36 2   
    50   29   30 ar  
    51   29   32 ar  
    52   30   31 1   
    53   30   35 ar  
    54   31   37 2   
    55   32   33 ar  
    56   32   52 1   
    57   33   34 ar  
    58   33   53 1   
    59   34   35 ar  
    60   34   54 1   
    61   35   55 1   
@<TRIPOS>SUBSTRUCTURE
     1 222         1 TEMP              0 ****  ****    0 ROOT
