@<TRIPOS>MOLECULE
222
   56    49     1     0     0
SMALL
bcc


@<TRIPOS>ATOM
      1 C13        -1.9490   -1.6360   -2.2390 c1        1 222      0.308000
      2 C1         -3.8110   -4.0430   -1.1580 c1        1 222     -0.119833
      3 C2         -3.7020   -2.6620   -1.0040 c1        1 222      0.071000
      4 C3         -4.8450   -1.8850   -0.8940 c1        1 222     -0.050000
      5 C4         -6.1020   -2.4850   -0.9360 c2        1 222     -0.126000
      6 C5         -6.2110   -3.8570   -1.0890 c1        1 222     -0.117000
      7 C6         -5.0630   -4.6390   -1.2000 c1        1 222     -0.119833
      8 C14        -0.6670   -1.1230   -2.3040 c1        1 222     -0.119833
      9 N11        -2.4500   -2.0520   -1.0540 n1        1 222     -0.184000
     10 CL1        -4.7110   -0.1520   -0.7900 cl        1 222      0.005000
     11 C15         0.0880   -1.0370   -1.1800 c1        1 222     -0.119833
     12 C16        -0.4210   -1.4600    0.0260 c1        1 222     -0.001000
     13 N17        -1.6790   -1.9640    0.0910 n1        1 222     -0.041000
     14 O18        -2.5700   -1.8250   -3.2520 o         1 222     -0.332000
     15 N21         0.3210   -1.2150    1.2420 n3        1 222     -0.181000
     16 C22         0.1640    0.0280    1.9400 c3        1 222     -0.032000
     17 C23         1.1950   -2.2670    1.7960 c2        1 222     -0.006000
     18 C33         2.5390   -1.9950    2.0650 c2        1 222     -0.107000
     19 C34         3.3590   -2.9890    2.5620 c1        1 222     -0.158000
     20 C35         2.8450   -4.2680    2.7970 c1        1 222      0.101000
     21 C36         1.5170   -4.5380    2.5320 c1        1 222     -0.171000
     22 C37         0.6860   -3.5330    2.0280 c1        1 222     -0.030000
     23 CL2        -0.9600   -3.8900    1.6250 cl        1 222      0.012000
     24 F42         3.6660   -5.2600    3.1770 f         1 222     -0.098000
     25 C24         1.1890    1.0350    1.4200 c3        1 222     -0.214000
     26 C27         0.6560    2.4880    1.6410 c3        1 222     -0.018000
     27 N30         1.2430    3.3820    0.6390 n         1 222     -0.349000
     28 C43         2.4620    3.1620   -0.0590 c2        1 222      0.362500
     29 C44         2.7650    4.4070   -0.8860 c2        1 222     -0.119500
     30 C45         1.7610    5.3100   -0.6750 c2        1 222     -0.119500
     31 C46         0.7690    4.6900    0.2980 c2        1 222      0.362500
     32 C47         3.7770    4.6790   -1.8490 c1        1 222     -0.062000
     33 C48         3.7430    5.8630   -2.5740 c1        1 222     -0.119833
     34 C49         2.7170    6.7870   -2.3590 c1        1 222     -0.119833
     35 C50         1.7280    6.5210   -1.4180 c1        1 222     -0.062000
     36 O55         3.1550    2.1500    0.0030 o         1 222     -0.300500
     37 O56        -0.2400    5.2750    0.8100 o         1 222     -0.300500
     38 H1         -2.9980   -4.5970   -1.2370 ha        1 222      0.153333
     39 H4         -6.9270   -1.9240   -0.8570 ha        1 222      0.149000
     40 H5         -7.0940   -4.2780   -1.1190 ha        1 222      0.140000
     41 H6         -5.1420   -5.6230   -1.3100 ha        1 222      0.153333
     42 H14        -0.3060   -0.8240   -3.1560 ha        1 222      0.153333
     43 H15         0.9970   -0.6720   -1.2270 ha        1 222      0.153333
     44 H221       -0.7550    0.3800    1.7890 h1        1 222      0.107500
     45 H222        0.3040   -0.1160    2.8970 h1        1 222      0.107500
     46 H33         2.9050   -1.0840    1.8990 ha        1 222      0.173000
     47 H34         4.2940   -2.8000    2.7490 ha        1 222      0.162000
     48 H36         1.1600   -5.4280    2.6950 ha        1 222      0.166000
     49 H241        1.3410    0.8830    0.4490 hc        1 222      0.109500
     50 H242        2.0320    0.9200    1.9030 hc        1 222      0.109500
     51 H271       -0.3200    2.4950    1.5530 h1        1 222      0.107500
     52 H272        0.9130    2.8010    2.5600 h1        1 222      0.107500
     53 H47         4.5180    4.0140   -2.0040 ha        1 222      0.159500
     54 H48         4.4320    6.0480   -3.2300 ha        1 222      0.153333
     55 H49         2.6950    7.6120   -2.8640 ha        1 222      0.153333
     56 H50         0.9870    7.1890   -1.2640 ha        1 222      0.159500
@<TRIPOS>BOND
     1    1    9 1   
     2    1   14 1   
     3    2    7 1   
     4    2   38 1   
     5    3    4 1   
     6    4    5 1   
     7    5    6 1   
     8    5   39 1   
     9    6   40 1   
    10    7   41 1   
    11    8   11 1   
    12    8   42 1   
    13   11   43 1   
    14   12   13 1   
    15   12   15 1   
    16   15   16 1   
    17   15   17 1   
    18   16   25 1   
    19   16   44 1   
    20   16   45 1   
    21   17   18 1   
    22   17   22 1   
    23   18   19 1   
    24   18   46 1   
    25   19   47 1   
    26   20   21 1   
    27   20   24 1   
    28   21   48 1   
    29   22   23 1   
    30   25   26 1   
    31   25   49 1   
    32   25   50 1   
    33   26   27 1   
    34   26   51 1   
    35   26   52 1   
    36   27   28 1   
    37   27   31 1   
    38   28   29 1   
    39   28   36 1   
    40   29   30 1   
    41   29   32 1   
    42   30   31 1   
    43   30   35 1   
    44   31   37 1   
    45   32   53 1   
    46   33   34 1   
    47   33   54 1   
    48   34   55 1   
    49   35   56 1   
@<TRIPOS>SUBSTRUCTURE
     1 222         1 TEMP              0 ****  ****    0 ROOT
