@<TRIPOS>MOLECULE
223
   36    30     1     0     0
SMALL
bcc


@<TRIPOS>ATOM
      1 N1         -3.1000    1.3710   -4.3810 n1        1 223     -0.224000
      2 C2         -1.7550    1.6190   -4.3540 c1        1 223     -0.024000
      3 C4         -1.6090    0.6240   -2.2170 c1        1 223     -0.067500
      4 C5         -2.9420    0.3780   -2.2430 c1        1 223     -0.067500
      5 C6         -3.6930    0.7580   -3.3420 c1        1 223      0.131000
      6 C8         -2.1540   -0.4030   -0.3170 c1        1 223     -0.036000
      7 N6         -5.0770    0.6070   -3.6120 n3        1 223     -0.314000
      8 N3         -1.0120    1.2440   -3.2710 n1        1 223     -0.155000
      9 C9         -1.1100    0.1410   -1.0220 c1        1 223     -0.151000
     10 N7         -3.2840   -0.2620   -1.0610 n1        1 223     -0.190000
     11 C10         0.3240   -0.0030   -0.5670 c2        1 223     -0.010000
     12 N1'         0.3990    0.0980    1.3150 n3        1 223     -0.241000
     13 C6'         1.0960   -1.3190    1.9010 c3        1 223     -0.081000
     14 C4'         2.4520   -1.1760    1.7370 c3        1 223     -0.162000
     15 C5'         3.1780   -1.8550    2.8400 c3        1 223      0.003000
     16 O5'         4.5080   -2.1050    2.4430 oh        1 223     -0.333000
     17 C3'         2.7370    0.4710    1.7830 c3        1 223      0.008000
     18 O3'         3.3050    0.7860    2.8650 oh        1 223     -0.332000
     19 C2'         1.3210    1.1640    1.6870 c3        1 223     -0.114000
     20 H2         -1.3260    2.0640   -5.1090 ha        1 223      0.188000
     21 H8         -2.0950   -0.8260    0.5610 DU        1 223      0.217500
     22 HN61       -5.5970    0.0920   -3.0640 hn        1 223      0.194000
     23 HN62       -5.4500    1.0270   -4.3340 hn        1 223      0.194000
     24 HN7        -4.1200   -0.5390   -0.8240 DU        1 223      0.217500
     25 H101        0.8630    0.7160   -0.9530 h4        1 223      0.091000
     26 H102        0.6750   -0.8680   -0.8610 h4        1 223      0.091000
     27 H6'1        0.8820   -1.4320    2.8500 h1        1 223      0.095000
     28 H6'2        0.7740   -2.0890    1.3890 h1        1 223      0.095000
     29 H4'         2.7290   -1.5430    0.8740 hc        1 223      0.110000
     30 H5'1        2.7350   -2.7040    3.0480 h1        1 223      0.088500
     31 H5'2        3.1760   -1.2820    3.6340 h1        1 223      0.088500
     32 HO5'        4.9370   -2.5300    3.0960 ho        1 223      0.213000
     33 H3'         3.2930    0.7370    1.0230 h1        1 223      0.082000
     34 HO3'        3.7910    1.5220    2.7420 ho        1 223      0.207000
     35 H2'1        1.0690    1.5430    2.5530 h1        1 223      0.093500
     36 H2'2        1.3290    1.8600    1.0000 h1        1 223      0.093500
@<TRIPOS>BOND
     1    1    5 1   
     2    2    8 1   
     3    2   20 1   
     4    3    4 1   
     5    5    7 1   
     6    6    9 1   
     7    6   10 1   
     8    7   22 1   
     9    7   23 1   
    10   11   12 1   
    11   11   25 1   
    12   11   26 1   
    13   12   13 1   
    14   12   19 1   
    15   13   14 1   
    16   13   27 1   
    17   13   28 1   
    18   14   15 1   
    19   14   17 1   
    20   14   29 1   
    21   15   16 1   
    22   15   30 1   
    23   15   31 1   
    24   16   32 1   
    25   17   18 1   
    26   17   19 1   
    27   17   33 1   
    28   18   34 1   
    29   19   35 1   
    30   19   36 1   
@<TRIPOS>SUBSTRUCTURE
     1 223         1 TEMP              0 ****  ****    0 ROOT
