@<TRIPOS>MOLECULE
223
   36    38     1     0     0
SMALL
bcc


@<TRIPOS>ATOM
      1 N1         -2.9140    4.0390    0.3620 nb        1 223     -0.748000
      2 C2         -1.8940    3.7480   -0.5000 ca        1 223      0.636900
      3 C4         -2.2740    1.5090   -0.5900 ca        1 223      0.466100
      4 C5         -3.3870    1.6840    0.3320 ca        1 223     -0.325800
      5 C6         -3.6850    3.0040    0.7990 ca        1 223      0.649200
      6 C8         -3.2520   -0.5130   -0.1530 cc        1 223     -0.089100
      7 N6         -4.7050    3.1910    1.7480 nh        1 223     -0.916500
      8 N3         -1.5260    2.5570   -1.0160 nb        1 223     -0.666000
      9 C9         -2.2220    0.0860   -0.8810 cd        1 223     -0.249000
     10 N7         -3.9890    0.4450    0.5470 na        1 223     -0.163400
     11 C10        -1.2750   -0.5760   -1.8060 c3        1 223      0.234000
     12 N1'        -0.0290   -1.0090   -1.1790 n3        1 223     -0.697600
     13 C6'         0.9390   -1.5310   -2.1500 c3        1 223      0.161800
     14 C4'         1.1630   -3.0380   -1.9140 c3        1 223     -0.132700
     15 C5'         0.6200   -3.8670   -3.0670 c3        1 223      0.133400
     16 O5'         0.5860   -5.2510   -2.7780 oh        1 223     -0.601800
     17 C3'         0.4400   -3.3540   -0.5930 c3        1 223      0.116100
     18 O3'         1.4150   -3.8280    0.3200 oh        1 223     -0.595800
     19 C2'        -0.1870   -2.0140   -0.1310 c3        1 223      0.120800
     20 H2         -1.2950    4.6270   -0.8190 h5        1 223      0.052100
     21 H8         -3.5390   -1.5670   -0.1130 h4        1 223      0.170000
     22 HN61       -5.5420    2.7010    1.5140 hn        1 223      0.397800
     23 HN62       -4.8760    4.1440    1.9950 hn        1 223      0.397800
     24 HN7        -4.5970    0.2480    1.2990 hn        1 223      0.300700
     25 H101       -1.8120   -1.4380   -2.3080 h1        1 223      0.045200
     26 H102       -0.9910    0.1690   -2.6070 h1        1 223      0.045200
     27 H6'1        1.9010   -0.9760   -1.9680 h1        1 223      0.056700
     28 H6'2        0.6230   -1.3370   -3.2110 h1        1 223      0.056700
     29 H4'         2.2590   -3.2470   -1.7910 hc        1 223      0.083700
     30 H5'1        1.2450   -3.6900   -3.9850 h1        1 223      0.044700
     31 H5'2       -0.4480   -3.6000   -3.2920 h1        1 223      0.044700
     32 HO5'        1.4340   -5.4860   -2.3820 ho        1 223      0.407000
     33 H3'        -0.3460   -4.1440   -0.7370 h1        1 223      0.054700
     34 HO3'        0.9810   -3.9010    1.1790 ho        1 223      0.403000
     35 H2'1       -1.2640   -2.1630    0.1500 h1        1 223      0.053700
     36 H2'2        0.3650   -1.6350    0.7740 h1        1 223      0.053700
@<TRIPOS>BOND
     1    1    2 ar  
     2    1    5 ar  
     3    2    8 ar  
     4    2   20 1   
     5    3    4 ar  
     6    3    8 ar  
     7    3    9 1   
     8    4    5 ar  
     9    4   10 1   
    10    5    7 1   
    11    6    9 2   
    12    6   10 1   
    13    6   21 1   
    14    7   22 1   
    15    7   23 1   
    16    9   11 1   
    17   10   24 1   
    18   11   12 1   
    19   11   25 1   
    20   11   26 1   
    21   12   13 1   
    22   12   19 1   
    23   13   14 1   
    24   13   27 1   
    25   13   28 1   
    26   14   15 1   
    27   14   17 1   
    28   14   29 1   
    29   15   16 1   
    30   15   30 1   
    31   15   31 1   
    32   16   32 1   
    33   17   18 1   
    34   17   19 1   
    35   17   33 1   
    36   18   34 1   
    37   19   35 1   
    38   19   36 1   
@<TRIPOS>SUBSTRUCTURE
     1 223         1 TEMP              0 ****  ****    0 ROOT
