@<TRIPOS>MOLECULE
224
   37    33     1     0     0
SMALL
bcc


@<TRIPOS>ATOM
      1 C1         -2.1190   -1.0670    3.5080 c1        1 224     -0.171500
      2 N1         -0.9630   -1.1760    2.8540 n2        1 224     -0.153000
      3 C2         -1.8650   -1.2300    4.8500 c1        1 224     -0.171500
      4 N2         -0.5470   -1.4390    5.0000 n2        1 224     -0.153000
      5 C3          0.0230   -1.4080    3.7760 c1        1 224     -0.099000
      6 C4         -0.8000   -1.1790    1.4290 c2        1 224     -0.041000
      7 C5         -0.4490    0.2370    0.9510 c3        1 224      0.188000
      8 O1          0.1840    1.0600    2.1200 os        1 224     -0.294000
      9 O2         -1.4810    0.8550    0.6370 os        1 224     -0.294000
     10 C6         -1.2270    2.3340    1.0150 c3        1 224     -0.044000
     11 C7         -0.5350    2.3180    2.1380 c3        1 224     -0.044000
     12 C8          0.4980    0.1730   -0.2170 c3        1 224     -0.161000
     13 C9         -0.2790   -0.1390   -1.4890 c3        1 224     -0.124000
     14 C10         0.7130   -0.2270   -2.6930 c2        1 224     -0.072000
     15 C11         0.9880    0.9080   -3.4520 c2        1 224     -0.118000
     16 C12         1.2920   -1.4390   -3.0300 c1        1 224     -0.119000
     17 C13         2.1490   -1.5210   -4.1290 c1        1 224     -0.122000
     18 C14         1.8410    0.8250   -4.5450 c1        1 224     -0.122000
     19 C15         2.4200   -0.3890   -4.8820 c1        1 224     -0.063000
     20 CL          3.5670   -0.4740   -6.2190 cl        1 224     -0.016000
     21 H1         -2.9910   -0.9000    3.1060 DU        1 224      0.187000
     22 H2         -2.5210   -1.2000    5.5600 DU        1 224      0.187000
     23 H3          0.9520   -1.5270    3.5860 DU        1 224      0.187000
     24 H41        -0.0770   -1.7950    1.1840 ha        1 224      0.115500
     25 H42        -1.6470   -1.4750    0.9990 ha        1 224      0.115500
     26 H61        -2.0740    2.7950    1.1510 h1        1 224      0.105500
     27 H62        -0.7020    2.7860    0.2950 h1        1 224      0.105500
     28 H71        -1.1460    2.3540    2.9210 h1        1 224      0.105500
     29 H72         0.0960    3.0710    2.1610 h1        1 224      0.105500
     30 H81         1.1650   -0.5330   -0.0590 hc        1 224      0.106500
     31 H82         0.9550    1.0390   -0.3170 hc        1 224      0.106500
     32 H91        -0.7550   -1.0100   -1.3840 hc        1 224      0.097500
     33 H92        -0.9370    0.5780   -1.6570 hc        1 224      0.097500
     34 H11         0.5770    1.7730   -3.2130 ha        1 224      0.140000
     35 H12         1.1010   -2.2340   -2.5000 ha        1 224      0.136000
     36 H13         2.5600   -2.3800   -4.3690 ha        1 224      0.148000
     37 H14         2.0350    1.6350   -5.0850 ha        1 224      0.148000
@<TRIPOS>BOND
     1    1    2 1   
     2    1    3 1   
     3    2    5 1   
     4    3    4 1   
     5    4    5 1   
     6    6    7 1   
     7    6   24 1   
     8    6   25 1   
     9    7    8 1   
    10    7    9 1   
    11    7   12 1   
    12    8   11 1   
    13    9   10 1   
    14   10   11 1   
    15   10   26 1   
    16   10   27 1   
    17   11   28 1   
    18   11   29 1   
    19   12   13 1   
    20   12   30 1   
    21   12   31 1   
    22   13   14 1   
    23   13   32 1   
    24   13   33 1   
    25   14   15 1   
    26   14   16 1   
    27   15   18 1   
    28   15   34 1   
    29   16   35 1   
    30   17   19 1   
    31   17   36 1   
    32   18   37 1   
    33   19   20 1   
@<TRIPOS>SUBSTRUCTURE
     1 224         1 TEMP              0 ****  ****    0 ROOT
