@<TRIPOS>MOLECULE
224
   37    39     1     0     0
SMALL
bcc


@<TRIPOS>ATOM
      1 C1         -0.0990   -0.2070    0.1390 cc        1 224     -0.252600
      2 N1          1.2730    0.0460    0.0260 na        1 224     -0.204900
      3 C2         -0.4120   -0.0640    1.5020 cd        1 224      0.285200
      4 N2          0.7330    0.2760    2.2240 nd        1 224     -0.672000
      5 C3          1.7330    0.3390    1.3220 cc        1 224      0.389400
      6 C4          2.0520    0.0090   -1.1690 c3        1 224      0.018300
      7 C5          2.5190    1.3880   -1.7100 c3        1 224      0.331600
      8 O1          3.1950    2.1240   -0.6900 os        1 224     -0.437600
      9 O2          1.3980    2.1740   -2.1070 os        1 224     -0.437600
     10 C6          1.2160    3.2830   -1.2180 c3        1 224      0.106400
     11 C7          2.4000    3.2350   -0.2590 c3        1 224      0.106400
     12 C8          3.4810    1.2110   -2.8910 c3        1 224     -0.082400
     13 C9          2.8180    0.5360   -4.0750 c3        1 224     -0.038100
     14 C10         3.6750    0.6090   -5.2900 ca        1 224     -0.079300
     15 C11         3.8080    1.8190   -5.9840 ca        1 224     -0.118500
     16 C12         4.3440   -0.5260   -5.7600 ca        1 224     -0.118500
     17 C13         5.1360   -0.4600   -6.9040 ca        1 224     -0.122000
     18 C14         4.5970    1.8970   -7.1290 ca        1 224     -0.122000
     19 C15         5.2610    0.7540   -7.5860 ca        1 224      0.015400
     20 Cl          6.2270    0.8420   -8.9830 cl        1 224     -0.094400
     21 H1         -0.7180   -0.4570   -0.7200 h4        1 224      0.178000
     22 H2         -1.3770   -0.1880    1.9910 h4        1 224      0.041100
     23 H3          2.7800    0.5920    1.5220 h5        1 224      0.068100
     24 H41         2.9810   -0.6010   -0.9770 h1        1 224      0.076200
     25 H42         1.4420   -0.4780   -1.9810 h1        1 224      0.076200
     26 H61         1.2000    4.2050   -1.8520 h1        1 224      0.066200
     27 H62         0.2330    3.1460   -0.7020 h1        1 224      0.066200
     28 H71         2.0920    3.0400    0.7990 h1        1 224      0.066200
     29 H72         3.0550    4.1400   -0.3200 h1        1 224      0.066200
     30 H81         3.8480    2.2280   -3.1920 hc        1 224      0.067200
     31 H82         4.3640    0.6190   -2.5400 hc        1 224      0.067200
     32 H91         1.8330    1.0400   -4.2810 hc        1 224      0.058200
     33 H92         2.6010   -0.5370   -3.8270 hc        1 224      0.058200
     34 H11         3.2810    2.7150   -5.6220 ha        1 224      0.138000
     35 H12         4.2450   -1.4830   -5.2250 ha        1 224      0.138000
     36 H13         5.6580   -1.3580   -7.2660 ha        1 224      0.148000
     37 H14         4.6950    2.8510   -7.6680 ha        1 224      0.148000
@<TRIPOS>BOND
     1    1    2 1   
     2    1    3 2   
     3    1   21 1   
     4    2    5 1   
     5    2    6 1   
     6    3    4 1   
     7    3   22 1   
     8    4    5 2   
     9    5   23 1   
    10    6    7 1   
    11    6   24 1   
    12    6   25 1   
    13    7    8 1   
    14    7    9 1   
    15    7   12 1   
    16    8   11 1   
    17    9   10 1   
    18   10   11 1   
    19   10   26 1   
    20   10   27 1   
    21   11   28 1   
    22   11   29 1   
    23   12   13 1   
    24   12   30 1   
    25   12   31 1   
    26   13   14 1   
    27   13   32 1   
    28   13   33 1   
    29   14   15 ar  
    30   14   16 ar  
    31   15   18 ar  
    32   15   34 1   
    33   16   17 ar  
    34   16   35 1   
    35   17   19 ar  
    36   17   36 1   
    37   18   19 ar  
    38   18   37 1   
    39   19   20 1   
@<TRIPOS>SUBSTRUCTURE
     1 224         1 TEMP              0 ****  ****    0 ROOT
