@<TRIPOS>MOLECULE
224
   37    39     1     0     0
SMALL
bcc


@<TRIPOS>ATOM
      1 C1         -2.0830    0.6760   -4.6890 cc        1 224     -0.252600
      2 N1         -1.3800   -0.4650   -4.2860 na        1 224     -0.204900
      3 C2         -3.4360    0.2960   -4.7580 cd        1 224      0.285200
      4 N2         -3.5770   -1.0450   -4.4010 nd        1 224     -0.672000
      5 C3         -2.3330   -1.4850   -4.1190 cc        1 224      0.389400
      6 C4          0.0290   -0.5730   -4.0870 c3        1 224      0.018300
      7 C5          0.4940   -0.6850   -2.6090 c3        1 224      0.331600
      8 O1         -0.1920   -1.7490   -1.9480 os        1 224     -0.437600
      9 O2          0.1800    0.5090   -1.8960 os        1 224     -0.437600
     10 C6         -0.8570    0.2700   -0.9370 c3        1 224      0.106400
     11 C7         -1.1210   -1.2310   -0.9890 c3        1 224      0.106400
     12 C8          1.9990   -0.9630   -2.5320 c3        1 224     -0.082400
     13 C9          2.8230    0.1710   -3.1090 c3        1 224     -0.038100
     14 C10         4.2680    0.0070   -2.7920 ca        1 224     -0.079300
     15 C11         4.7350    0.2540   -1.4960 ca        1 224     -0.118500
     16 C12         5.1760   -0.3810   -3.7840 ca        1 224     -0.118500
     17 C13         6.5300   -0.5230   -3.4900 ca        1 224     -0.122000
     18 C14         6.0860    0.1160   -1.1900 ca        1 224     -0.122000
     19 C15         6.9830   -0.2740   -2.1900 ca        1 224      0.015400
     20 CL          8.6340   -0.4450   -1.8240 cl        1 224     -0.094400
     21 H1         -1.5900    1.6250   -4.8870 h4        1 224      0.178000
     22 H2         -4.2940    0.9030   -5.0420 h4        1 224      0.041100
     23 H3         -2.0540   -2.4920   -3.7890 h5        1 224      0.068100
     24 H41         0.4000   -1.4950   -4.6200 h1        1 224      0.076200
     25 H42         0.5250    0.3400   -4.5240 h1        1 224      0.076200
     26 H61        -1.7450    0.8790   -1.2390 h1        1 224      0.066200
     27 H62        -0.4660    0.6130    0.0530 h1        1 224      0.066200
     28 H71        -0.9080   -1.7510   -0.0220 h1        1 224      0.066200
     29 H72        -2.1520   -1.4760   -1.3510 h1        1 224      0.066200
     30 H81         2.2080   -1.9210   -3.0740 hc        1 224      0.067200
     31 H82         2.2670   -1.1140   -1.4530 hc        1 224      0.067200
     32 H91         2.4550    1.1450   -2.6850 hc        1 224      0.058200
     33 H92         2.6800    0.2140   -4.2220 hc        1 224      0.058200
     34 H11         4.0260    0.5630   -0.7120 ha        1 224      0.138000
     35 H12         4.8220   -0.5750   -4.8080 ha        1 224      0.138000
     36 H13         7.2370   -0.8280   -4.2760 ha        1 224      0.148000
     37 H14         6.4450    0.3120   -0.1680 ha        1 224      0.148000
@<TRIPOS>BOND
     1    1    2 1   
     2    1    3 2   
     3    1   21 1   
     4    2    5 1   
     5    2    6 1   
     6    3    4 1   
     7    3   22 1   
     8    4    5 2   
     9    5   23 1   
    10    6    7 1   
    11    6   24 1   
    12    6   25 1   
    13    7    8 1   
    14    7    9 1   
    15    7   12 1   
    16    8   11 1   
    17    9   10 1   
    18   10   11 1   
    19   10   26 1   
    20   10   27 1   
    21   11   28 1   
    22   11   29 1   
    23   12   13 1   
    24   12   30 1   
    25   12   31 1   
    26   13   14 1   
    27   13   32 1   
    28   13   33 1   
    29   14   15 ar  
    30   14   16 ar  
    31   15   18 ar  
    32   15   34 1   
    33   16   17 ar  
    34   16   35 1   
    35   17   19 ar  
    36   17   36 1   
    37   18   19 ar  
    38   18   37 1   
    39   19   20 1   
@<TRIPOS>SUBSTRUCTURE
     1 224         1 TEMP              0 ****  ****    0 ROOT
