@<TRIPOS>MOLECULE
224
   37    39     1     0     0
SMALL
bcc


@<TRIPOS>ATOM
      1 C1         -0.0910   -0.2160    0.1430 cc        1 224     -0.252600
      2 N1          1.2800    0.0420    0.0290 na        1 224     -0.204900
      3 C2         -0.4020   -0.0730    1.5070 cd        1 224      0.285200
      4 N2          0.7430    0.2710    2.2280 nd        1 224     -0.672000
      5 C3          1.7420    0.3380    1.3240 cc        1 224      0.389400
      6 C4          2.0580    0.0080   -1.1670 c3        1 224      0.018300
      7 C5          2.5190    1.3880   -1.7100 c3        1 224      0.331600
      8 O1          3.1930    2.1270   -0.6920 os        1 224     -0.437600
      9 O2          1.3940    2.1700   -2.1050 os        1 224     -0.437600
     10 C6          1.2090    3.2780   -1.2170 c3        1 224      0.106400
     11 C7          2.3950    3.2360   -0.2600 c3        1 224      0.106400
     12 C8          3.4790    1.2140   -2.8920 c3        1 224     -0.082400
     13 C9          2.8170    0.5370   -4.0750 c3        1 224     -0.038100
     14 C10         3.6720    0.6120   -5.2920 ca        1 224     -0.079300
     15 C11         3.8010    1.8220   -5.9860 ca        1 224     -0.118500
     16 C12         4.3430   -0.5220   -5.7620 ca        1 224     -0.118500
     17 C13         5.1340   -0.4530   -6.9070 ca        1 224     -0.122000
     18 C14         4.5890    1.9020   -7.1310 ca        1 224     -0.122000
     19 C15         5.2560    0.7610   -7.5900 ca        1 224      0.015400
     20 CL          6.2200    0.8510   -8.9870 cl        1 224     -0.094400
     21 H1         -0.7090   -0.4690   -0.7140 h4        1 224      0.178000
     22 H2         -1.3650   -0.2010    1.9980 h4        1 224      0.041100
     23 H3          2.7880    0.5960    1.5220 h5        1 224      0.068100
     24 H41         1.4490   -0.4830   -1.9780 h1        1 224      0.076200
     25 H42         2.9890   -0.5980   -0.9760 h1        1 224      0.076200
     26 H61         1.1890    4.2000   -1.8510 h1        1 224      0.066200
     27 H62         0.2270    3.1380   -0.7000 h1        1 224      0.066200
     28 H71         3.0460    4.1430   -0.3220 h1        1 224      0.066200
     29 H72         2.0890    3.0400    0.7990 h1        1 224      0.066200
     30 H81         3.8440    2.2320   -3.1940 hc        1 224      0.067200
     31 H82         4.3650    0.6250   -2.5420 hc        1 224      0.067200
     32 H91         1.8310    1.0380   -4.2800 hc        1 224      0.058200
     33 H92         2.6030   -0.5370   -3.8270 hc        1 224      0.058200
     34 H11         3.2730    2.7170   -5.6220 ha        1 224      0.138000
     35 H12         4.2470   -1.4790   -5.2270 ha        1 224      0.138000
     36 H13         5.6580   -1.3500   -7.2700 ha        1 224      0.148000
     37 H14         4.6850    2.8560   -7.6700 ha        1 224      0.148000
@<TRIPOS>BOND
     1    1    2 1   
     2    1    3 2   
     3    1   21 1   
     4    2    5 1   
     5    2    6 1   
     6    3    4 1   
     7    3   22 1   
     8    4    5 2   
     9    5   23 1   
    10    6    7 1   
    11    6   24 1   
    12    6   25 1   
    13    7    8 1   
    14    7    9 1   
    15    7   12 1   
    16    8   11 1   
    17    9   10 1   
    18   10   11 1   
    19   10   26 1   
    20   10   27 1   
    21   11   28 1   
    22   11   29 1   
    23   12   13 1   
    24   12   30 1   
    25   12   31 1   
    26   13   14 1   
    27   13   32 1   
    28   13   33 1   
    29   14   15 ar  
    30   14   16 ar  
    31   15   18 ar  
    32   15   34 1   
    33   16   17 ar  
    34   16   35 1   
    35   17   19 ar  
    36   17   36 1   
    37   18   19 ar  
    38   18   37 1   
    39   19   20 1   
@<TRIPOS>SUBSTRUCTURE
     1 224         1 TEMP              0 ****  ****    0 ROOT
