@<TRIPOS>MOLECULE
225
   44    45     1     0     0
SMALL
bcc


@<TRIPOS>ATOM
      1 C15         0.1750    0.2090   -0.1050 c3        1 225     -0.100100
      2 C14         1.6510   -0.1060   -0.1190 c3        1 225      0.136400
      3 O2          2.1180    0.0940    1.2280 os        1 225     -0.441900
      4 C13         3.4350   -0.2030    1.4640 c         1 225      0.657300
      5 O1          4.1270   -0.5560    0.5070 o         1 225     -0.530000
      6 C2          3.8490   -0.0610    2.8680 ce        1 225     -0.212400
      7 C1          3.7440    1.1120    3.5540 c2        1 225      0.160800
      8 C12         3.1060    2.3440    2.9970 c3        1 225     -0.079900
      9 N1          4.2600    1.2150    4.8530 nh        1 225     -0.629800
     10 C5          5.1390    0.2490    5.3340 c2        1 225      0.191800
     11 C18         5.9050    0.5640    6.5780 c3        1 225     -0.081900
     12 C4          5.2790   -0.9510    4.6810 ce        1 225     -0.253400
     13 C16         6.2630   -1.9280    5.1410 c         1 225      0.657300
     14 O3          6.8750   -1.9590    6.2170 o         1 225     -0.573000
     15 O4          6.5440   -2.9180    4.2350 os        1 225     -0.423900
     16 C17         7.4930   -3.9030    4.6460 c3        1 225      0.128700
     17 C3          4.4520   -1.2950    3.4770 c3        1 225      0.104000
     18 C6          3.3650   -2.2790    3.8380 ca        1 225     -0.061300
     19 C7          2.5510   -2.0190    4.9470 ca        1 225     -0.107000
     20 C8          1.5400   -2.8980    5.3210 ca        1 225     -0.125000
     21 C9          1.3210   -4.0620    4.5890 ca        1 225     -0.118000
     22 C10         2.1220   -4.3380    3.4780 ca        1 225      0.012400
     23 CL1         1.8300   -5.7670    2.6040 cl        1 225     -0.078400
     24 C11         3.1440   -3.4520    3.0950 ca        1 225      0.030400
     25 CL2         4.0880   -3.8210    1.7330 cl        1 225     -0.057400
     26 H151       -0.3620   -0.4620    0.6070 hc        1 225      0.047033
     27 H152        0.0020    1.2660    0.2090 hc        1 225      0.047033
     28 H153       -0.2370    0.0600   -1.1310 hc        1 225      0.047033
     29 H141        2.2220    0.5780   -0.8000 h1        1 225      0.053200
     30 H142        1.8500   -1.1690   -0.4160 h1        1 225      0.053200
     31 H121        2.2330    2.6470    3.6290 hc        1 225      0.065367
     32 H122        3.8380    3.1900    2.9660 hc        1 225      0.065367
     33 H123        2.7330    2.1570    1.9600 hc        1 225      0.065367
     34 H181        7.0020    0.4490    6.3770 hc        1 225      0.072033
     35 H182        5.6340   -0.1780    7.3720 hc        1 225      0.072033
     36 H183        5.7140    1.5950    6.9640 hc        1 225      0.072033
     37 H171        7.5430   -4.5960    3.7700 h1        1 225      0.050367
     38 H172        8.4800   -3.4220    4.8460 h1        1 225      0.050367
     39 H173        7.1300   -4.4260    5.5630 h1        1 225      0.050367
     40 H7          2.7210   -1.1010    5.5320 ha        1 225      0.142000
     41 H8          0.9120   -2.6760    6.1960 ha        1 225      0.138000
     42 H9          0.5240   -4.7620    4.8820 ha        1 225      0.149000
     43 H18         4.2660    2.1130    5.2800 hn        1 225      0.444800
     44 H19         5.1380   -1.7670    2.7070 hc        1 225      0.110700
@<TRIPOS>BOND
     1    1    2 1   
     2    1   26 1   
     3    1   27 1   
     4    1   28 1   
     5    2    3 1   
     6    2   29 1   
     7    2   30 1   
     8    3    4 1   
     9    4    5 2   
    10    4    6 1   
    11    6    7 2   
    12    6   17 1   
    13    7    8 1   
    14    7    9 1   
    15    8   31 1   
    16    8   32 1   
    17    8   33 1   
    18    9   10 1   
    19    9   43 1   
    20   10   11 1   
    21   10   12 2   
    22   11   34 1   
    23   11   35 1   
    24   11   36 1   
    25   12   13 1   
    26   12   17 1   
    27   13   14 2   
    28   13   15 1   
    29   15   16 1   
    30   16   37 1   
    31   16   38 1   
    32   16   39 1   
    33   17   18 1   
    34   17   44 1   
    35   18   19 ar  
    36   18   24 ar  
    37   19   20 ar  
    38   19   40 1   
    39   20   21 ar  
    40   20   41 1   
    41   21   22 ar  
    42   21   42 1   
    43   22   23 1   
    44   22   24 ar  
    45   24   25 1   
@<TRIPOS>SUBSTRUCTURE
     1 225         1 TEMP              0 ****  ****    0 ROOT
