@<TRIPOS>MOLECULE
225
   44    45     1     0     0
SMALL
bcc


@<TRIPOS>ATOM
      1 C15         0.1720    0.2070   -0.1020 c3        1 225     -0.100100
      2 C14         1.6470   -0.1120   -0.1180 c3        1 225      0.136400
      3 O2          2.1170    0.0920    1.2270 os        1 225     -0.441900
      4 C13         3.4340   -0.2060    1.4620 c         1 225      0.657300
      5 O1          4.1230   -0.5650    0.5030 o         1 225     -0.530000
      6 C2          3.8510   -0.0600    2.8630 ce        1 225     -0.212400
      7 C1          3.7500    1.1150    3.5460 c2        1 225      0.160800
      8 C12         3.1120    2.3460    2.9860 c3        1 225     -0.079900
      9 N1          4.2690    1.2220    4.8430 nu        1 225     -0.629800
     10 C5          5.1480    0.2570    5.3250 c2        1 225      0.191800
     11 C18         5.9170    0.5750    6.5670 c3        1 225     -0.081900
     12 C4          5.2840   -0.9460    4.6760 ce        1 225     -0.253400
     13 C16         6.2680   -1.9230    5.1370 c         1 225      0.657300
     14 O3          6.8830   -1.9500    6.2130 o         1 225     -0.573000
     15 O4          6.5450   -2.9170    4.2350 os        1 225     -0.423900
     16 C17         7.4940   -3.9020    4.6470 c3        1 225      0.128700
     17 C3          4.4550   -1.2940    3.4760 c3        1 225      0.104000
     18 C6          3.3670   -2.2740    3.8420 ca        1 225     -0.061300
     19 C7          2.5560   -2.0090    4.9530 ca        1 225     -0.107000
     20 C8          1.5440   -2.8860    5.3320 ca        1 225     -0.125000
     21 C9          1.3220   -4.0520    4.6040 ca        1 225     -0.118000
     22 C10         2.1200   -4.3330    3.4930 ca        1 225      0.012400
     23 Cl1         1.8240   -5.7640    2.6250 cl        1 225     -0.078400
     24 C11         3.1420   -3.4490    3.1040 ca        1 225      0.030400
     25 Cl2         4.0820   -3.8250    1.7410 cl        1 225     -0.057400
     26 H151       -0.3650   -0.4600    0.6130 hc        1 225      0.047033
     27 H152       -0.2430    0.0550   -1.1270 hc        1 225      0.047033
     28 H153        0.0020    1.2650    0.2080 hc        1 225      0.047033
     29 H141        1.8430   -1.1770   -0.4120 h1        1 225      0.053200
     30 H142        2.2180    0.5680   -0.8030 h1        1 225      0.053200
     31 H121        3.8450    3.1910    2.9510 hc        1 225      0.065367
     32 H122        2.7380    2.1560    1.9490 hc        1 225      0.065367
     33 H123        2.2400    2.6520    3.6180 hc        1 225      0.065367
     34 H181        5.7290    1.6070    6.9490 hc        1 225      0.072033
     35 H182        7.0130    0.4580    6.3630 hc        1 225      0.072033
     36 H183        5.6460   -0.1640    7.3640 hc        1 225      0.072033
     37 H171        8.4820   -3.4200    4.8430 h1        1 225      0.050367
     38 H172        7.5420   -4.5980    3.7730 h1        1 225      0.050367
     39 H173        7.1330   -4.4210    5.5660 h1        1 225      0.050367
     40 H7          2.7280   -1.0890    5.5330 ha        1 225      0.142000
     41 H8          0.9180   -2.6590    6.2080 ha        1 225      0.138000
     42 H9          0.5240   -4.7500    4.9020 ha        1 225      0.149000
     43 H18         4.2770    2.1220    5.2670 hn        1 225      0.444800
     44 H19         5.1380   -1.7690    2.7050 hc        1 225      0.110700
@<TRIPOS>BOND
     1    1    2 1   
     2    1   26 1   
     3    1   27 1   
     4    1   28 1   
     5    2    3 1   
     6    2   29 1   
     7    2   30 1   
     8    3    4 1   
     9    4    5 2   
    10    4    6 1   
    11    6    7 2   
    12    6   17 1   
    13    7    8 1   
    14    7    9 1   
    15    8   31 1   
    16    8   32 1   
    17    8   33 1   
    18    9   10 1   
    19    9   43 1   
    20   10   11 1   
    21   10   12 2   
    22   11   34 1   
    23   11   35 1   
    24   11   36 1   
    25   12   13 1   
    26   12   17 1   
    27   13   14 2   
    28   13   15 1   
    29   15   16 1   
    30   16   37 1   
    31   16   38 1   
    32   16   39 1   
    33   17   18 1   
    34   17   44 1   
    35   18   19 ar  
    36   18   24 ar  
    37   19   20 ar  
    38   19   40 1   
    39   20   21 ar  
    40   20   41 1   
    41   21   22 ar  
    42   21   42 1   
    43   22   23 1   
    44   22   24 ar  
    45   24   25 1   
@<TRIPOS>SUBSTRUCTURE
     1 225         1 TEMP              0 ****  ****    0 ROOT
