@<TRIPOS>MOLECULE
225
   44    45     1     0     0
SMALL
bcc


@<TRIPOS>ATOM
      1 C15         0.1750    0.1940   -0.1110 c3        1 225     -0.100100
      2 C14         1.6530   -0.1130   -0.1220 c3        1 225      0.136400
      3 O2          2.1160    0.0890    1.2260 os        1 225     -0.441900
      4 C13         3.4340   -0.1990    1.4650 c         1 225      0.657300
      5 O1          4.1300   -0.5470    0.5080 o         1 225     -0.530000
      6 C2          3.8450   -0.0560    2.8690 ce        1 225     -0.212400
      7 C1          3.7300    1.1150    3.5560 c2        1 225      0.160800
      8 C12         3.0830    2.3430    3.0000 c3        1 225     -0.079900
      9 N1          4.2430    1.2200    4.8560 nh        1 225     -0.629800
     10 C5          5.1290    0.2610    5.3370 c2        1 225      0.191800
     11 C18         5.8910    0.5800    6.5830 c3        1 225     -0.081900
     12 C4          5.2790   -0.9370    4.6830 ce        1 225     -0.253400
     13 C16         6.2690   -1.9080    5.1430 c         1 225      0.657300
     14 O3          6.8800   -1.9350    6.2210 o         1 225     -0.573000
     15 O4          6.5590   -2.8950    4.2370 os        1 225     -0.423900
     16 C17         7.5150   -3.8730    4.6480 c3        1 225      0.128700
     17 C3          4.4570   -1.2870    3.4780 c3        1 225      0.104000
     18 C6          3.3760   -2.2790    3.8360 ca        1 225     -0.061300
     19 C7          2.5590   -2.0260    4.9440 ca        1 225     -0.107000
     20 C8          1.5530   -2.9130    5.3160 ca        1 225     -0.125000
     21 C9          1.3440   -4.0780    4.5820 ca        1 225     -0.118000
     22 C10         2.1490   -4.3470    3.4720 ca        1 225      0.012400
     23 CL1         1.8680   -5.7770    2.5960 cl        1 225     -0.078400
     24 C11         3.1640   -3.4520    3.0910 ca        1 225      0.030400
     25 CL2         4.1130   -3.8130    1.7300 cl        1 225     -0.057400
     26 H151       -0.0050    1.2500    0.2040 hc        1 225      0.047033
     27 H152       -0.3590   -0.4800    0.6000 hc        1 225      0.047033
     28 H153       -0.2340    0.0430   -1.1380 hc        1 225      0.047033
     29 H141        1.8580   -1.1740   -0.4190 h1        1 225      0.053200
     30 H142        2.2210    0.5750   -0.8010 h1        1 225      0.053200
     31 H121        2.2060    2.6370    3.6300 hc        1 225      0.065367
     32 H122        2.7160    2.1550    1.9610 hc        1 225      0.065367
     33 H123        3.8080    3.1950    2.9730 hc        1 225      0.065367
     34 H181        6.9890    0.4730    6.3830 hc        1 225      0.072033
     35 H182        5.6240   -0.1650    7.3760 hc        1 225      0.072033
     36 H183        5.6920    1.6090    6.9700 hc        1 225      0.072033
     37 H171        7.5720   -4.5650    3.7710 h1        1 225      0.050367
     38 H172        7.1550   -4.4000    5.5640 h1        1 225      0.050367
     39 H173        8.4980   -3.3840    4.8500 h1        1 225      0.050367
     40 H7          2.7210   -1.1070    5.5300 ha        1 225      0.142000
     41 H8          0.9220   -2.6960    6.1900 ha        1 225      0.138000
     42 H9          0.5510   -4.7840    4.8730 ha        1 225      0.149000
     43 H18         4.2420    2.1180    5.2840 hn        1 225      0.444800
     44 H19         5.1470   -1.7520    2.7080 hc        1 225      0.110700
@<TRIPOS>BOND
     1    1    2 1   
     2    1   26 1   
     3    1   27 1   
     4    1   28 1   
     5    2    3 1   
     6    2   29 1   
     7    2   30 1   
     8    3    4 1   
     9    4    5 2   
    10    4    6 1   
    11    6    7 2   
    12    6   17 1   
    13    7    8 1   
    14    7    9 1   
    15    8   31 1   
    16    8   32 1   
    17    8   33 1   
    18    9   10 1   
    19    9   43 1   
    20   10   11 1   
    21   10   12 2   
    22   11   34 1   
    23   11   35 1   
    24   11   36 1   
    25   12   13 1   
    26   12   17 1   
    27   13   14 2   
    28   13   15 1   
    29   15   16 1   
    30   16   37 1   
    31   16   38 1   
    32   16   39 1   
    33   17   18 1   
    34   17   44 1   
    35   18   19 ar  
    36   18   24 ar  
    37   19   20 ar  
    38   19   40 1   
    39   20   21 ar  
    40   20   41 1   
    41   21   22 ar  
    42   21   42 1   
    43   22   23 1   
    44   22   24 ar  
    45   24   25 1   
@<TRIPOS>SUBSTRUCTURE
     1 225         1 TEMP              0 ****  ****    0 ROOT
