@<TRIPOS>MOLECULE
225
   44    41     1     0     0
SMALL
bcc


@<TRIPOS>ATOM
      1 C15        -4.0700    0.7320   -3.5700 c3        1 225     -0.219000
      2 C14        -2.5230    0.6370   -3.6270 c3        1 225     -0.009000
      3 O2         -2.0090    0.2230   -2.3340 os        1 225     -0.265000
      4 C13        -0.5820    0.2320   -2.2500 c2        1 225      0.360000
      5 O1          0.0740    0.7910   -3.1070 o         1 225     -0.383000
      6 C2          0.1130   -0.4020   -1.0490 c2        1 225     -0.218000
      7 C1          0.9290   -1.6620   -1.2320 c1        1 225      0.105000
      8 C12         0.9850   -2.3230   -2.5740 c2        1 225     -0.203000
      9 N1          1.5540   -2.2620   -0.1260 n3        1 225     -0.261000
     10 C5          1.0820   -2.0010    1.1790 c2        1 225      0.108000
     11 C18         1.4260   -2.9470    2.3160 c3        1 225     -0.203000
     12 C4          0.2780   -0.7570    1.4540 c1        1 225     -0.220000
     13 C16        -0.2010   -0.4680    2.8490 c2        1 225      0.358000
     14 O3          0.5680    0.0250    3.6710 o         1 225     -0.381000
     15 O4         -1.5280   -0.8410    3.2450 os        1 225     -0.262000
     16 C17        -1.8860   -0.4000    4.5660 c3        1 225     -0.061000
     17 C3         -0.1180    0.1510    0.3220 c2        1 225      0.052000
     18 C6          0.8830    1.2300    0.4060 c2        1 225     -0.052000
     19 C7          2.2270    0.9490    0.2130 c2        1 225     -0.111000
     20 C8          3.1560    1.9690    0.2530 c1        1 225     -0.125000
     21 C9          2.7420    3.2790    0.4870 c1        1 225     -0.117000
     22 C10         1.4130    3.5550    0.6780 c1        1 225     -0.067000
     23 CL1         0.8840    5.2400    0.9350 cl        1 225     -0.001000
     24 C11         0.4760    2.5290    0.6380 c2        1 225     -0.042000
     25 CL2        -1.1660    2.8650    0.9360 cl        1 225      0.017000
     26 H151       -4.3330    1.3780   -2.8940 hc        1 225      0.087667
     27 H152       -4.4170    1.0240   -4.4640 hc        1 225      0.087667
     28 H153       -4.4580   -0.1810   -3.3370 hc        1 225      0.087667
     29 H141       -2.1460    1.5260   -3.8630 h1        1 225      0.090000
     30 H142       -2.2660   -0.0130   -4.3000 h1        1 225      0.090000
     31 H121        0.1180   -2.7610   -2.7620 ha        1 225      0.110667
     32 H122        1.7050   -3.0010   -2.5790 ha        1 225      0.110667
     33 H123        1.1680   -1.6380   -3.2730 ha        1 225      0.110667
     34 H181        0.6190   -3.0910    2.8850 hc        1 225      0.111000
     35 H182        1.7170   -3.7820    1.9580 hc        1 225      0.111000
     36 H183        2.1490   -2.5540    2.8620 hc        1 225      0.111000
     37 H171       -1.9260    0.5900    4.5840 h1        1 225      0.090000
     38 H172       -1.2050   -0.7160    5.2160 h1        1 225      0.090000
     39 H173       -2.7760   -0.7720    4.8110 h1        1 225      0.090000
     40 H7          2.5260   -0.0040    0.0440 ha        1 225      0.140000
     41 H8          4.1050    1.7730    0.1170 ha        1 225      0.139000
     42 H9          3.4070    4.0110    0.5160 ha        1 225      0.149000
     43 H18         2.2780   -2.7730   -0.2460 hn        1 225      0.244000
     44 H19        -0.9740    0.6390    0.4460 ha        1 225      0.153000
@<TRIPOS>BOND
     1    1    2 1   
     2    1   26 1   
     3    1   27 1   
     4    1   28 1   
     5    2    3 1   
     6    2   29 1   
     7    2   30 1   
     8    3    4 1   
     9    4    5 1   
    10    4    6 1   
    11    6    7 1   
    12    6   17 1   
    13    7    9 1   
    14    8   31 1   
    15    8   32 1   
    16    8   33 1   
    17    9   10 1   
    18    9   43 1   
    19   10   11 1   
    20   10   12 1   
    21   11   34 1   
    22   11   35 1   
    23   11   36 1   
    24   12   13 1   
    25   13   14 1   
    26   13   15 1   
    27   15   16 1   
    28   16   37 1   
    29   16   38 1   
    30   16   39 1   
    31   17   18 1   
    32   17   44 1   
    33   18   19 1   
    34   18   24 1   
    35   19   20 1   
    36   19   40 1   
    37   20   41 1   
    38   21   22 1   
    39   21   42 1   
    40   22   24 1   
    41   24   25 1   
@<TRIPOS>SUBSTRUCTURE
     1 225         1 TEMP              0 ****  ****    0 ROOT
