@<TRIPOS>MOLECULE
225
   44    45     1     0     0
SMALL
bcc


@<TRIPOS>ATOM
      1 C15         5.2560   -1.1170   -0.0050 c3        1 225     -0.100100
      2 C14         4.1410   -1.0740   -1.0200 c3        1 225      0.136400
      3 O2          2.9390   -1.4350   -0.3140 os        1 225     -0.441900
      4 C13         1.7750   -1.3960   -1.0360 c         1 225      0.657300
      5 O1          1.8510   -1.1180   -2.2350 o         1 225     -0.530000
      6 C2          0.5650   -1.6920   -0.2570 ce        1 225     -0.212400
      7 C1          0.3870   -2.8640    0.4150 c2        1 225      0.160800
      8 C12         1.4350   -3.9260    0.5210 c3        1 225     -0.079900
      9 N1         -0.8350   -3.1350    1.0460 nh        1 225     -0.629800
     10 C5         -1.9610   -2.3740    0.7430 c2        1 225      0.191800
     11 C18        -3.2910   -2.8950    1.1840 c3        1 225     -0.081900
     12 C4         -1.8350   -1.1830    0.0710 ce        1 225     -0.253400
     13 C16        -3.0240   -0.4290   -0.3170 c         1 225      0.657300
     14 O3         -4.1910   -0.5720    0.0740 o         1 225     -0.573000
     15 O4         -2.7970    0.5460   -1.2540 os        1 225     -0.423900
     16 C17        -3.9290    1.3170   -1.6570 c3        1 225      0.128700
     17 C3         -0.4930   -0.6250   -0.3020 c3        1 225      0.104000
     18 C6         -0.1160    0.5170    0.6120 ca        1 225     -0.061300
     19 C7         -0.2200    0.3440    1.9980 ca        1 225     -0.107000
     20 C8          0.1120    1.3690    2.8790 ca        1 225     -0.125000
     21 C9          0.5570    2.5940    2.3880 ca        1 225     -0.118000
     22 C10         0.6690    2.7850    1.0090 ca        1 225      0.012400
     23 CL1         1.2150    4.2910    0.4420 cl        1 225     -0.078400
     24 C11         0.3370    1.7510    0.1150 ca        1 225      0.030400
     25 CL2         0.4960    2.0230   -1.5540 cl        1 225     -0.057400
     26 H151        6.2130   -0.8360   -0.5050 hc        1 225      0.047033
     27 H152        5.0540   -0.4010    0.8280 hc        1 225      0.047033
     28 H153        5.3560   -2.1400    0.4280 hc        1 225      0.047033
     29 H141        4.0100   -0.0500   -1.4580 h1        1 225      0.053200
     30 H142        4.3000   -1.8100   -1.8510 h1        1 225      0.053200
     31 H121        1.6980   -4.1030    1.5950 hc        1 225      0.065367
     32 H122        1.0710   -4.8860    0.0770 hc        1 225      0.065367
     33 H123        2.3640   -3.6140   -0.0170 hc        1 225      0.065367
     34 H181       -3.2310   -3.8940    1.6780 hc        1 225      0.072033
     35 H182       -3.7520   -2.1630    1.8970 hc        1 225      0.072033
     36 H183       -3.9710   -2.9690    0.2960 hc        1 225      0.072033
     37 H171       -3.5030    2.0390   -2.3960 h1        1 225      0.050367
     38 H172       -4.6950    0.6540   -2.1260 h1        1 225      0.050367
     39 H173       -4.3680    1.8430   -0.7750 h1        1 225      0.050367
     40 H7         -0.5730   -0.6220    2.3910 ha        1 225      0.142000
     41 H8          0.0230    1.2130    3.9640 ha        1 225      0.138000
     42 H9          0.8180    3.4080    3.0810 ha        1 225      0.149000
     43 H18        -0.9680   -4.0430    1.4290 hn        1 225      0.444800
     44 H19        -0.5590   -0.2410   -1.3670 hc        1 225      0.110700
@<TRIPOS>BOND
     1    1    2 1   
     2    1   26 1   
     3    1   27 1   
     4    1   28 1   
     5    2    3 1   
     6    2   29 1   
     7    2   30 1   
     8    3    4 1   
     9    4    5 2   
    10    4    6 1   
    11    6    7 2   
    12    6   17 1   
    13    7    8 1   
    14    7    9 1   
    15    8   31 1   
    16    8   32 1   
    17    8   33 1   
    18    9   10 1   
    19    9   43 1   
    20   10   11 1   
    21   10   12 2   
    22   11   34 1   
    23   11   35 1   
    24   11   36 1   
    25   12   13 1   
    26   12   17 1   
    27   13   14 2   
    28   13   15 1   
    29   15   16 1   
    30   16   37 1   
    31   16   38 1   
    32   16   39 1   
    33   17   18 1   
    34   17   44 1   
    35   18   19 ar  
    36   18   24 ar  
    37   19   20 ar  
    38   19   40 1   
    39   20   21 ar  
    40   20   41 1   
    41   21   22 ar  
    42   21   42 1   
    43   22   23 1   
    44   22   24 ar  
    45   24   25 1   
@<TRIPOS>SUBSTRUCTURE
     1 225         1 TEMP              0 ****  ****    0 ROOT
