@<TRIPOS>MOLECULE
226
   23    24     1     0     0
SMALL
bcc


@<TRIPOS>ATOM
      1 OAB        -0.0390    0.0870    0.2460 oh        1 226     -0.497100
      2 CAM         1.3310    0.0750    0.0940 ca        1 226      0.055100
      3 CAN         2.1080    0.1130    1.2930 ca        1 226      0.069000
      4 CAH         1.4810    0.1610    2.5620 ca        1 226     -0.249000
      5 CAI         2.2550    0.1970    3.7080 ca        1 226      0.181100
      6 OAC         1.7190    0.2440    4.9720 oh        1 226     -0.495100
      7 CAF         3.6710    0.1880    3.6470 ca        1 226     -0.265000
      8 CAK         4.2830    0.1410    2.4070 ca        1 226      0.198100
      9 OAE         5.6470    0.1300    2.2690 oh        1 226     -0.466100
     10 CAO         3.5240    0.1030    1.1940 ca        1 226     -0.109000
     11 CAL         4.1280    0.0540   -0.1010 ca        1 226      0.186100
     12 OAA         5.5000    0.0470   -0.1310 oh        1 226     -0.465100
     13 CAG         3.3650    0.0180   -1.2550 ca        1 226     -0.291000
     14 CAJ         1.9560    0.0290   -1.1470 ca        1 226      0.087100
     15 OAD         1.1350   -0.0060   -2.2560 oh        1 226     -0.514100
     16 HOAB       -0.4330    0.0580   -0.6390 ho        1 226      0.434000
     17 HAH         0.3820    0.1680    2.6070 ha        1 226      0.159000
     18 HOAC        0.7540    0.2460    4.8880 ho        1 226      0.425000
     19 HAF         4.2500    0.2180    4.5800 ha        1 226      0.155000
     20 HOAE        6.0380    0.1590    3.1560 ho        1 226      0.419000
     21 HOAA        5.7780    0.0130   -1.0590 ho        1 226      0.415000
     22 HAG         3.8350   -0.0190   -2.2460 ha        1 226      0.138000
     23 HOAD        1.7000   -0.0370   -3.0410 ho        1 226      0.430000
@<TRIPOS>BOND
     1    1    2 1   
     2    1   16 1   
     3    2    3 ar  
     4    2   14 ar  
     5    3    4 ar  
     6    3   10 ar  
     7    4    5 ar  
     8    4   17 1   
     9    5    6 1   
    10    5    7 ar  
    11    6   18 1   
    12    7    8 ar  
    13    7   19 1   
    14    8    9 1   
    15    8   10 ar  
    16    9   20 1   
    17   10   11 ar  
    18   11   12 1   
    19   11   13 ar  
    20   12   21 1   
    21   13   14 ar  
    22   13   22 1   
    23   14   15 1   
    24   15   23 1   
@<TRIPOS>SUBSTRUCTURE
     1 226         1 TEMP              0 ****  ****    0 ROOT
