@<TRIPOS>MOLECULE
226
   23    24     1     0     0
SMALL
bcc


@<TRIPOS>ATOM
      1 OAB        -0.0360    0.1180    0.2370 oh        1 226     -0.497100
      2 CAM         1.3350    0.0940    0.0890 ca        1 226      0.055100
      3 CAN         2.1070    0.1180    1.2900 ca        1 226      0.069000
      4 CAH         1.4770    0.1640    2.5580 ca        1 226     -0.249000
      5 CAI         2.2470    0.1870    3.7060 ca        1 226      0.181100
      6 OAC         1.7080    0.2320    4.9690 oh        1 226     -0.495100
      7 CAF         3.6640    0.1660    3.6510 ca        1 226     -0.265000
      8 CAK         4.2790    0.1210    2.4120 ca        1 226      0.198100
      9 OAE         5.6430    0.0980    2.2780 oh        1 226     -0.466100
     10 CAO         3.5240    0.0960    1.1960 ca        1 226     -0.109000
     11 CAL         4.1320    0.0500   -0.0970 ca        1 226      0.186100
     12 OAA         5.5030    0.0290   -0.1230 oh        1 226     -0.465100
     13 CAG         3.3720    0.0260   -1.2530 ca        1 226     -0.291000
     14 CAJ         1.9620    0.0490   -1.1500 ca        1 226      0.087100
     15 OAD         1.1450    0.0280   -2.2620 oh        1 226     -0.514100
     16 HOAB       -0.4270    0.0970   -0.6500 ho        1 226      0.434000
     17 HAH         0.3780    0.1810    2.6000 ha        1 226      0.159000
     18 HOAC        0.7420    0.2430    4.8820 ho        1 226      0.425000
     19 HAF         4.2390    0.1850    4.5850 ha        1 226      0.155000
     20 HOAE        6.0320    0.1180    3.1670 ho        1 226      0.419000
     21 HOAA        5.7840   -0.0020   -1.0500 ho        1 226      0.415000
     22 HAG         3.8450   -0.0090   -2.2440 ha        1 226      0.138000
     23 HOAD        1.7120   -0.0040   -3.0450 ho        1 226      0.430000
@<TRIPOS>BOND
     1    1    2 1   
     2    1   16 1   
     3    2    3 ar  
     4    2   14 ar  
     5    3    4 ar  
     6    3   10 ar  
     7    4    5 ar  
     8    4   17 1   
     9    5    6 1   
    10    5    7 ar  
    11    6   18 1   
    12    7    8 ar  
    13    7   19 1   
    14    8    9 1   
    15    8   10 ar  
    16    9   20 1   
    17   10   11 ar  
    18   11   12 1   
    19   11   13 ar  
    20   12   21 1   
    21   13   14 ar  
    22   13   22 1   
    23   14   15 1   
    24   15   23 1   
@<TRIPOS>SUBSTRUCTURE
     1 226         1 TEMP              0 ****  ****    0 ROOT
