@<TRIPOS>MOLECULE
226
   23    19     1     0     0
SMALL
bcc


@<TRIPOS>ATOM
      1 OAB        -2.9110   -0.0150   -1.0130 oh        1 226     -0.246000
      2 CAM        -1.5040   -0.0150   -1.0130 c2        1 226      0.015000
      3 CAN        -0.6920   -0.0150    0.1360 c2        1 226      0.062000
      4 CAH        -1.2800   -0.0150    1.4150 c1        1 226     -0.186000
      5 CAI        -0.4770   -0.0150    2.5490 c1        1 226      0.132500
      6 OAC        -1.0420   -0.2540    3.8150 oh        1 226     -0.232500
      7 CAF         0.9090   -0.0150    2.4210 c1        1 226     -0.302500
      8 CAK         1.4900   -0.0150    1.1590 c1        1 226      0.160000
      9 OAE         2.8800   -0.2090    1.2570 oh        1 226     -0.219000
     10 CAO         0.6780   -0.0150    0.0100 c1        1 226     -0.110000
     11 CAL         1.2660   -0.0150   -1.2690 c1        1 226      0.132500
     12 OAA         2.5950   -0.3400   -1.5970 oh        1 226     -0.232500
     13 CAG         0.4630   -0.0150   -2.4030 c1        1 226     -0.302500
     14 CAJ        -0.9230   -0.0150   -2.2750 c1        1 226      0.038000
     15 OAD        -1.6150   -0.1880   -3.4870 o         1 226     -0.267000
     16 HOAB       -3.2070   -0.8510   -1.0460 ho        1 226      0.233000
     17 HAH        -2.2520   -0.0010    1.5050 ha        1 226      0.174000
     18 HOAC       -1.2160    0.5210    4.2120 ho        1 226      0.216000
     19 HAF         1.4720   -0.0150    3.2180 ha        1 226      0.137500
     20 HOAE        3.2670    0.5470    1.5180 ho        1 226      0.216000
     21 HOAA        2.9910    0.3660   -1.9620 ho        1 226      0.216000
     22 HAG         0.8710   -0.0150   -3.2890 ha        1 226      0.137500
     23 HOAD       -1.7610    0.6040   -3.8610 ho        1 226      0.229000
@<TRIPOS>BOND
     1    1    2 1   
     2    1   16 1   
     3    2    3 1   
     4    2   14 1   
     5    3    4 1   
     6    3   10 1   
     7    4   17 1   
     8    5    6 1   
     9    5    7 1   
    10    6   18 1   
    11    7   19 1   
    12    8    9 1   
    13    8   10 1   
    14    9   20 1   
    15   11   12 1   
    16   11   13 1   
    17   12   21 1   
    18   13   22 1   
    19   15   23 1   
@<TRIPOS>SUBSTRUCTURE
     1 226         1 TEMP              0 ****  ****    0 ROOT
