@<TRIPOS>MOLECULE
226
   23    24     1     0     0
SMALL
bcc


@<TRIPOS>ATOM
      1 OAB         4.2160   -1.8210   -0.9940 oh        1 226     -0.493100
      2 CAM         3.4560   -2.8880   -0.5660 ca        1 226      0.063100
      3 CAN         2.1160   -2.6000   -0.1660 ca        1 226      0.053000
      4 CAH         1.6330   -1.2680   -0.2300 ca        1 226     -0.173000
      5 CAI         0.3290   -0.9940    0.1360 ca        1 226      0.159100
      6 OAC        -0.0890    0.3140    0.0590 oh        1 226     -0.489100
      7 CAF        -0.5420   -2.0260    0.5680 ca        1 226     -0.298000
      8 CAK        -0.0650   -3.3220    0.6330 ca        1 226      0.182100
      9 OAE        -0.8820   -4.3550    1.0360 oh        1 226     -0.519100
     10 CAO         1.2810   -3.6620    0.2840 ca        1 226     -0.131000
     11 CAL         1.8250   -4.9830    0.3460 ca        1 226      0.175100
     12 OAA         1.1150   -6.0900    0.7450 oh        1 226     -0.503100
     13 CAG         3.1290   -5.2460   -0.0470 ca        1 226     -0.223000
     14 CAJ         3.9390   -4.1900   -0.5130 ca        1 226      0.078100
     15 OAD         5.2420   -4.3890   -0.9230 oh        1 226     -0.514100
     16 HOAB        5.0870   -2.1640   -1.2490 ho        1 226      0.435000
     17 HAH         2.3040   -0.4660   -0.5730 ha        1 226      0.176000
     18 HOAC       -1.0170    0.3490    0.3340 ho        1 226      0.419000
     19 HAF        -1.5800   -1.7910    0.8380 ha        1 226      0.138000
     20 HOAE       -1.7630   -3.9980    1.2200 ho        1 226      0.434000
     21 HOAA        0.4240   -5.8260    1.3670 ho        1 226      0.442000
     22 HAG         3.5210   -6.2710    0.0010 ha        1 226      0.155000
     23 HOAD        5.4300   -5.3360   -0.8600 ho        1 226      0.433000
@<TRIPOS>BOND
     1    1    2 1   
     2    1   16 1   
     3    2    3 ar  
     4    2   14 ar  
     5    3    4 ar  
     6    3   10 ar  
     7    4    5 ar  
     8    4   17 1   
     9    5    6 1   
    10    5    7 ar  
    11    6   18 1   
    12    7    8 ar  
    13    7   19 1   
    14    8    9 1   
    15    8   10 ar  
    16    9   20 1   
    17   10   11 ar  
    18   11   12 1   
    19   11   13 ar  
    20   12   21 1   
    21   13   14 ar  
    22   13   22 1   
    23   14   15 1   
    24   15   23 1   
@<TRIPOS>SUBSTRUCTURE
     1 226         1 TEMP              0 ****  ****    0 ROOT
