@<TRIPOS>MOLECULE
227
   63    58     1     0     0
SMALL
bcc


@<TRIPOS>ATOM
      1 C34         3.9160    7.5900   -0.4440 c3        1 227     -0.119000
      2 C32         2.9990    5.7940    0.7340 c3        1 227     -0.083000
      3 C4         -1.8510   -4.3080    1.2180 c1        1 227     -0.077000
      4 C7         -3.1350   -5.6420   -0.8590 c1        1 227     -0.198000
      5 C9         -2.5080   -5.5220    1.4580 c1        1 227      0.027000
      6 C13        -3.1460   -6.1820    0.4180 c2        1 227      0.089000
      7 C20         1.5610    0.0020   -1.2940 c1        1 227     -0.094000
      8 C21        -4.4070   -8.1830    0.4070 c3        1 227     -0.081000
      9 N5          0.0960   -1.5220    0.8660 n3        1 227     -0.206000
     10 C18        -2.9730   -6.0590    3.6890 c3        1 227     -0.075000
     11 C16         2.0540   -1.5460   -0.7710 c3        1 227     -0.153000
     12 O17        -4.4100   -6.7870    0.6110 os        1 227     -0.203000
     13 C19         0.2730    2.1030   -0.6730 c1        1 227     -0.807000
     14 O26        -1.5980    3.9860   -0.2950 o         1 227     -0.930000
     15 S22        -0.3150    3.5580    0.1990 ss        1 227      2.843000
     16 O27        -0.6410    3.2460    1.5880 o         1 227     -0.930000
     17 N25         0.8320    4.8080    0.0990 n2        1 227     -0.836000
     18 C30         1.7500    5.0170    1.1710 c3        1 227     -0.009500
     19 N33         2.6850    6.9760    0.0680 n3        1 227     -0.254000
     20 C31         1.7610    6.7730   -1.0140 c3        1 227     -0.083000
     21 C29         0.5140    5.9980   -0.5750 c3        1 227     -0.009500
     22 C23         0.9370    2.7500   -1.7480 c2        1 227     -0.040000
     23 C28         1.9160    1.9980   -2.5880 c1        1 227     -0.155000
     24 C15         0.5280    0.7950   -0.4070 c1        1 227      0.047000
     25 C10        -0.2210    0.0040    0.7550 c3        1 227     -0.065000
     26 C24         2.1890    0.6260   -2.3160 c1        1 227     -0.066000
     27 C11         1.5760   -1.9700    0.4780 c3        1 227     -0.069000
     28 C2         -1.1920   -2.5190   -0.3390 c2        1 227      0.133000
     29 C1         -1.8380   -3.7520   -0.0970 c1        1 227     -0.140000
     30 N6         -1.1960   -1.9850   -1.5840 n1        1 227     -0.212000
     31 C12        -1.8270   -2.6390   -2.6120 c1        1 227     -0.005000
     32 N8         -2.4620   -3.8490   -2.3780 n1        1 227     -0.171000
     33 C3         -2.4600   -4.3970   -1.1080 c1        1 227      0.050000
     34 O14        -2.1560   -6.2750    2.6140 o         1 227     -0.214000
     35 H341        4.3810    6.9410   -1.0830 h1        1 227      0.073333
     36 H342        3.7010    8.3970   -0.9080 h1        1 227      0.073333
     37 H343        4.5330    7.8010    0.3310 h1        1 227      0.073333
     38 H321        3.5130    5.2470    0.1600 h1        1 227      0.077000
     39 H322        3.5200    6.0040    1.5080 h1        1 227      0.077000
     40 H4         -1.3880   -3.8280    1.9700 ha        1 227      0.164000
     41 H7         -3.5680   -6.0940   -1.5640 ha        1 227      0.162000
     42 H211       -5.1460   -8.4330   -0.2550 h1        1 227      0.089667
     43 H212       -3.5420   -8.4580    0.0480 h1        1 227      0.089667
     44 H213       -4.5630   -8.6330    1.2510 h1        1 227      0.089667
     45 H181       -3.6450   -5.4450    3.4530 h1        1 227      0.085000
     46 H182       -3.3690   -6.8690    3.9510 h1        1 227      0.085000
     47 H183       -2.4780   -5.7150    4.3910 h1        1 227      0.085000
     48 H161        3.0650   -1.5530   -0.7360 hc        1 227      0.103000
     49 H162        1.7760   -2.1790   -1.4210 hc        1 227      0.103000
     50 H301        2.0220    4.1610    1.5220 h1        1 227      0.099000
     51 H302        1.3100    5.5080    1.8580 h1        1 227      0.099000
     52 H311        1.4780    7.6660   -1.3700 h1        1 227      0.077000
     53 H312        2.2370    6.2440   -1.7710 h1        1 227      0.077000
     54 H291       -0.0350    6.5800    0.0360 h1        1 227      0.099000
     55 H292       -0.0340    5.7710   -1.3960 h1        1 227      0.099000
     56 H23         0.7610    3.6530   -1.9310 ha        1 227      0.161000
     57 H28         2.3680    2.4470   -3.3300 ha        1 227      0.142000
     58 H101        0.0240    0.4160    1.5900 h1        1 227      0.136000
     59 H102       -1.1950    0.0940    0.5930 h1        1 227      0.136000
     60 H24         2.8610    0.1150   -2.8890 ha        1 227      0.136000
     61 H111        1.6100   -2.9490    0.4960 h1        1 227      0.104500
     62 H112        2.1790   -1.6350    1.1600 h1        1 227      0.104500
     63 H12        -1.8270   -2.2260   -3.5660 ha        1 227      0.194000
@<TRIPOS>BOND
     1    1   19 1   
     2    1   35 1   
     3    1   36 1   
     4    1   37 1   
     5    2   18 1   
     6    2   19 1   
     7    2   38 1   
     8    2   39 1   
     9    3    5 1   
    10    3   40 1   
    11    4    6 1   
    12    4   41 1   
    13    5    6 1   
    14    6   12 1   
    15    7   11 1   
    16    7   26 1   
    17    8   12 1   
    18    8   42 1   
    19    8   43 1   
    20    8   44 1   
    21    9   25 1   
    22    9   27 1   
    23    9   28 1   
    24   10   34 1   
    25   10   45 1   
    26   10   46 1   
    27   10   47 1   
    28   11   27 1   
    29   11   48 1   
    30   11   49 1   
    31   13   22 1   
    32   13   24 1   
    33   14   15 1   
    34   15   16 1   
    35   17   18 1   
    36   17   21 1   
    37   18   50 1   
    38   18   51 1   
    39   19   20 1   
    40   20   21 1   
    41   20   52 1   
    42   20   53 1   
    43   21   54 1   
    44   21   55 1   
    45   22   23 1   
    46   22   56 1   
    47   23   57 1   
    48   24   25 1   
    49   25   58 1   
    50   25   59 1   
    51   26   60 1   
    52   27   61 1   
    53   27   62 1   
    54   28   29 1   
    55   28   30 1   
    56   29   33 1   
    57   31   32 1   
    58   31   63 1   
@<TRIPOS>SUBSTRUCTURE
     1 227         1 TEMP              0 ****  ****    0 ROOT
