@<TRIPOS>MOLECULE
227
   63    67     1     0     0
SMALL
bcc


@<TRIPOS>ATOM
      1 C34        -4.8400   -3.5830    7.0850 c3        1 227      0.156100
      2 C32        -3.3090   -2.6480    5.4740 c3        1 227      0.152800
      3 C4         -6.9920   -6.5360    1.5910 ca        1 227     -0.087000
      4 C7         -8.3590   -7.5300    3.8560 ca        1 227     -0.191300
      5 C9         -6.8300   -7.8510    1.9860 ca        1 227      0.060100
      6 C13        -7.5100   -8.3470    3.1380 ca        1 227      0.109100
      7 C20        -6.2090   -1.1280    1.0880 ca        1 227     -0.094300
      8 C21        -7.7410  -10.6710    2.7800 c3        1 227      0.112700
      9 N5         -7.3890   -3.7530    0.8190 nh        1 227     -0.725300
     10 C18        -4.7980   -9.0170    1.7430 c3        1 227      0.110700
     11 C16        -7.6520   -1.2510    0.7440 c3        1 227     -0.070100
     12 O17        -7.2620   -9.6210    3.6240 os        1 227     -0.344900
     13 C19        -4.0270   -2.1120    1.5420 ca        1 227     -0.362500
     14 O26        -3.3370   -4.4860    0.9230 o         1 227     -0.654300
     15 O27        -1.6310   -2.8560    1.3600 o         1 227     -0.654300
     16 N25        -2.9450   -3.7590    3.2670 n3        1 227     -0.816500
     17 C30        -2.3610   -2.9260    4.2870 c3        1 227      0.226800
     18 N33        -3.9240   -3.8570    6.0020 n3        1 227     -0.727600
     19 C31        -4.5230   -4.6830    4.9630 c3        1 227      0.152800
     20 C29        -3.5630   -4.9530    3.7850 c3        1 227      0.226800
     21 C23        -3.5180   -0.8160    1.7210 ca        1 227     -0.040000
     22 C28        -4.3290    0.3070    1.6020 ca        1 227     -0.151000
     23 C15        -5.3870   -2.2590    1.2210 ca        1 227      0.019700
     24 C10        -5.9440   -3.6350    0.9610 c3        1 227      0.199100
     25 C24        -5.6760    0.1490    1.2890 ca        1 227     -0.067000
     26 C11        -7.9880   -2.6140    0.1470 c3        1 227      0.184800
     27 C2         -8.0630   -4.2700    1.9690 ca        1 227      0.666200
     28 C1         -7.8380   -5.6730    2.3210 ca        1 227     -0.265600
     29 N6         -8.9310   -3.5180    2.6710 nb        1 227     -0.757000
     30 C12        -9.5750   -4.1270    3.7270 ca        1 227      0.653900
     31 N8         -9.4310   -5.3730    4.1680 nb        1 227     -0.694000
     32 C3         -8.5500   -6.1730    3.4580 ca        1 227      0.421600
     33 H341       -5.7290   -2.9680    6.7740 h1        1 227      0.035367
     34 H342       -4.2890   -3.0300    7.8910 h1        1 227      0.035367
     35 H343       -5.2090   -4.5570    7.5010 h1        1 227      0.035367
     36 H321       -2.6970   -2.1880    6.2990 h1        1 227      0.040200
     37 H322       -4.0830   -1.8910    5.1530 h1        1 227      0.040200
     38 H4         -6.4650   -6.1850    0.6870 ha        1 227      0.174000
     39 H7         -8.8870   -7.9210    4.7400 ha        1 227      0.170000
     40 H211       -7.2550  -10.6160    1.7750 h1        1 227      0.049700
     41 H212       -8.8520  -10.6100    2.6840 h1        1 227      0.049700
     42 H213       -7.4390  -11.6000    3.3240 h1        1 227      0.049700
     43 H181       -4.1890   -8.0890    1.8630 h1        1 227      0.048033
     44 H182       -4.3430   -9.6960    0.9800 h1        1 227      0.048033
     45 H183       -4.9250   -9.5370    2.7230 h1        1 227      0.048033
     46 H161       -8.2630   -1.0750    1.6710 hc        1 227      0.069200
     47 H162       -7.9370   -0.4590    0.0010 hc        1 227      0.069200
     48 H301       -2.0660   -1.9370    3.8330 h1        1 227      0.058700
     49 H302       -1.4280   -3.4260    4.6790 h1        1 227      0.058700
     50 H311       -5.4740   -4.2250    4.5610 h1        1 227      0.040200
     51 H312       -4.7870   -5.6760    5.4250 h1        1 227      0.040200
     52 H291       -2.7540   -5.6570    4.1360 h1        1 227      0.058700
     53 H292       -4.1420   -5.4660    2.9650 h1        1 227      0.058700
     54 H23        -2.4420   -0.6850    1.9370 ha        1 227      0.156000
     55 H28        -3.9070    1.3120    1.7480 ha        1 227      0.143000
     56 H101       -5.5010   -4.0010   -0.0170 h1        1 227      0.090700
     57 H102       -5.5890   -4.3350    1.7730 h1        1 227      0.090700
     58 H24        -6.3280    1.0320    1.1890 ha        1 227      0.139000
     59 H111       -9.1050   -2.7420    0.1150 h1        1 227      0.067700
     60 H112       -7.6020   -2.6550   -0.9130 h1        1 227      0.067700
     61 H12       -10.2880   -3.4730    4.2740 h5        1 227      0.054100
     62 S22        -2.9010   -3.3800    1.6880 sy        1 227      1.503200
     63 O14        -6.0780   -8.6990    1.1870 os        1 227     -0.341900
@<TRIPOS>BOND
     1    1   18 1   
     2    1   33 1   
     3    1   34 1   
     4    1   35 1   
     5    2   17 1   
     6    2   18 1   
     7    2   36 1   
     8    2   37 1   
     9    3    5 ar  
    10    3   28 ar  
    11    3   38 1   
    12    4    6 ar  
    13    4   32 ar  
    14    4   39 1   
    15    5    6 ar  
    16    5   63 1   
    17    6   12 1   
    18    7   11 1   
    19    7   23 ar  
    20    7   25 ar  
    21    8   12 1   
    22    8   40 1   
    23    8   41 1   
    24    8   42 1   
    25    9   24 1   
    26    9   26 1   
    27    9   27 1   
    28   10   43 1   
    29   10   44 1   
    30   10   45 1   
    31   10   63 1   
    32   11   26 1   
    33   11   46 1   
    34   11   47 1   
    35   13   21 ar  
    36   13   23 ar  
    37   13   62 1   
    38   14   62 2   
    39   15   62 2   
    40   16   17 1   
    41   16   20 1   
    42   16   62 1   
    43   17   48 1   
    44   17   49 1   
    45   18   19 1   
    46   19   20 1   
    47   19   50 1   
    48   19   51 1   
    49   20   52 1   
    50   20   53 1   
    51   21   22 ar  
    52   21   54 1   
    53   22   25 ar  
    54   22   55 1   
    55   23   24 1   
    56   24   56 1   
    57   24   57 1   
    58   25   58 1   
    59   26   59 1   
    60   26   60 1   
    61   27   28 ar  
    62   27   29 ar  
    63   28   32 ar  
    64   29   30 ar  
    65   30   31 ar  
    66   30   61 1   
    67   31   32 ar  
@<TRIPOS>SUBSTRUCTURE
     1 227         1 TEMP              0 ****  ****    0 ROOT
