@<TRIPOS>MOLECULE
228
   56    60     1     0     0
SMALL
bcc


@<TRIPOS>ATOM
      1 C28         0.2580   -0.4320   -0.6250 ca        1 228     -0.118000
      2 C27         1.3980    0.1070   -0.0730 ca        1 228      0.069100
      3 O31         2.1400   -0.3530    1.0040 os        1 228     -0.325900
      4 C30         3.2550    0.5610    1.1690 c3        1 228      0.320200
      5 O29         3.1260    1.5930    0.1590 os        1 228     -0.318900
      6 C26         1.9990    1.2920   -0.5870 ca        1 228      0.086100
      7 C25         1.4680    1.9640   -1.6690 ca        1 228     -0.111000
      8 C24         0.3000    1.4180   -2.2320 ca        1 228     -0.108000
      9 C23        -0.2920    0.2600   -1.7300 ca        1 228     -0.130300
     10 C22        -1.5140   -0.2930   -2.3760 c3        1 228     -0.045100
     11 C21        -2.7220   -0.0010   -1.4850 c3        1 228      0.105800
     12 N20        -4.0110   -0.5020   -2.0500 ny        1 228     -0.665800
     13 C18        -4.5740    0.4110   -3.1140 c         1 228      0.526100
     14 O19        -4.0270    0.3760   -4.2040 o         1 228     -0.414100
     15 C17        -5.7940    1.2670   -2.7170 c3        1 228      0.185500
     16 C16        -5.5360    2.7290   -3.1630 c3        1 228     -0.086400
     17 C15        -6.5510    3.0240   -4.2630 c3        1 228     -0.092400
     18 C14        -7.4590    1.7900   -4.3690 c3        1 228      0.198800
     19 N13        -7.0190    0.8360   -3.3550 nh        1 228     -0.762300
     20 C1         -7.3980   -0.5110   -3.4270 ca        1 228      0.706200
     21 N1         -6.6650   -1.4290   -2.7180 nb        1 228     -0.882000
     22 C6         -8.5410   -0.9000   -4.1810 ca        1 228     -0.411600
     23 C5         -8.8950   -2.2640   -4.1770 ca        1 228      0.524600
     24 C12       -10.0880   -2.7070   -4.9610 c3        1 228     -0.168400
     25 N4         -8.1950   -3.1940   -3.4790 nb        1 228     -0.718000
     26 C3         -7.1130   -2.7340   -2.7630 ca        1 228      0.802500
     27 N7         -6.3720   -3.6820   -2.0220 na        1 228     -0.273700
     28 C8         -5.5900   -3.4280   -0.8740 cc        1 228     -0.289600
     29 C9         -5.0680   -4.6660   -0.4860 cd        1 228      0.338200
     30 NFE        -5.5020   -5.6720   -1.3610 nd        1 228     -0.647000
     31 C11        -6.2920   -5.0770   -2.2640 cc        1 228      0.471400
     32 H28        -0.1890   -1.3570   -0.2410 ha        1 228      0.152000
     33 H301        4.2050    0.0010    0.9880 h2        1 228      0.089200
     34 H302        3.1770    1.0380    2.1770 h2        1 228      0.089200
     35 H25         1.9330    2.8730   -2.0750 ha        1 228      0.172000
     36 H24        -0.1410    1.9250   -3.1050 ha        1 228      0.140000
     37 H221       -1.6640    0.1650   -3.3920 hc        1 228      0.078200
     38 H222       -1.3970   -1.4020   -2.5170 hc        1 228      0.078200
     39 H211       -2.5710   -0.5000   -0.4830 hx        1 228      0.103200
     40 H212       -2.8210    1.1090   -1.3210 hx        1 228      0.103200
     41 HN20       -3.8620   -1.4340   -2.4640 hn        1 228      0.468300
     42 H17        -5.9400    1.2130   -1.5980 h1        1 228      0.092700
     43 H161       -4.4910    2.8610   -3.5360 hc        1 228      0.080200
     44 H162       -5.6870    3.4100   -2.2880 hc        1 228      0.080200
     45 H151       -6.0390    3.2120   -5.2400 hc        1 228      0.082200
     46 H152       -7.1560    3.9310   -4.0130 hc        1 228      0.082200
     47 H141       -8.5300    2.0560   -4.1500 h1        1 228      0.074200
     48 H142       -7.4060    1.3390   -5.3990 h1        1 228      0.074200
     49 H6         -9.1390   -0.1710   -4.7420 ha        1 228      0.174000
     50 H121      -10.8780   -3.0950   -4.2680 hc        1 228      0.077700
     51 H122       -9.8120   -3.5290   -5.6680 hc        1 228      0.077700
     52 H123      -10.5080   -1.8520   -5.5450 hc        1 228      0.077700
     53 H8         -5.5530   -2.4520   -0.3990 h4        1 228      0.162000
     54 H9         -4.4200   -4.9020    0.3610 h4        1 228      0.059100
     55 H11        -6.8260   -5.5620   -3.0940 h5        1 228      0.095100
     56 H202       -4.7020   -0.6030   -1.2960 hn        1 228      0.468300
@<TRIPOS>BOND
     1    1    2 ar  
     2    1    9 ar  
     3    1   32 1   
     4    2    3 1   
     5    2    6 ar  
     6    3    4 1   
     7    4    5 1   
     8    4   33 1   
     9    4   34 1   
    10    5    6 1   
    11    6    7 ar  
    12    7    8 ar  
    13    7   35 1   
    14    8    9 ar  
    15    8   36 1   
    16    9   10 1   
    17   10   11 1   
    18   10   37 1   
    19   10   38 1   
    20   11   12 1   
    21   11   39 1   
    22   11   40 1   
    23   12   13 1   
    24   12   41 1   
    25   12   56 1   
    26   13   14 2   
    27   13   15 1   
    28   15   16 1   
    29   15   19 1   
    30   15   42 1   
    31   16   17 1   
    32   16   43 1   
    33   16   44 1   
    34   17   18 1   
    35   17   45 1   
    36   17   46 1   
    37   18   19 1   
    38   18   47 1   
    39   18   48 1   
    40   19   20 1   
    41   20   21 ar  
    42   20   22 ar  
    43   21   26 ar  
    44   22   23 ar  
    45   22   49 1   
    46   23   24 1   
    47   23   25 ar  
    48   24   50 1   
    49   24   51 1   
    50   24   52 1   
    51   25   26 ar  
    52   26   27 1   
    53   27   28 1   
    54   27   31 1   
    55   28   29 2   
    56   28   53 1   
    57   29   30 1   
    58   29   54 1   
    59   30   31 2   
    60   31   55 1   
@<TRIPOS>SUBSTRUCTURE
     1 228         1 TEMP              0 ****  ****    0 ROOT
