@<TRIPOS>MOLECULE
228
   56    60     1     0     0
SMALL
bcc


@<TRIPOS>ATOM
      1 C28         0.2570   -0.4410   -0.6290 ca        1 228     -0.118000
      2 C27         1.4010    0.0950   -0.0820 ca        1 228      0.069100
      3 O31         2.1450   -0.3660    0.9940 os        1 228     -0.325900
      4 C30         3.2630    0.5440    1.1540 c3        1 228      0.320200
      5 O29         3.1340    1.5760    0.1420 os        1 228     -0.318900
      6 C26         2.0030    1.2780   -0.5990 ca        1 228      0.086100
      7 C25         1.4720    1.9500   -1.6790 ca        1 228     -0.111000
      8 C24         0.3000    1.4070   -2.2380 ca        1 228     -0.108000
      9 C23        -0.2950    0.2520   -1.7330 ca        1 228     -0.130300
     10 C22        -1.5200   -0.2970   -2.3740 c3        1 228     -0.045100
     11 C21        -2.7250   -0.0010   -1.4790 c3        1 228      0.105800
     12 N20        -4.0170   -0.4990   -2.0390 n4        1 228     -0.665800
     13 C18        -4.5820    0.4150   -3.1020 c         1 228      0.526100
     14 O19        -4.0360    0.3810   -4.1920 o         1 228     -0.414100
     15 C17        -5.8010    1.2710   -2.7020 c3        1 228      0.185500
     16 C16        -5.5430    2.7340   -3.1470 c3        1 228     -0.086400
     17 C15        -6.5610    3.0300   -4.2450 c3        1 228     -0.092400
     18 C14        -7.4680    1.7960   -4.3500 c3        1 228      0.198800
     19 N13        -7.0270    0.8410   -3.3380 nh        1 228     -0.762300
     20 C1         -7.4060   -0.5060   -3.4110 ca        1 228      0.706200
     21 N1         -6.6720   -1.4250   -2.7060 nb        1 228     -0.882000
     22 C6         -8.5500   -0.8940   -4.1630 ca        1 228     -0.411600
     23 C5         -8.9040   -2.2580   -4.1610 ca        1 228      0.524600
     24 C12       -10.0990   -2.6990   -4.9430 c3        1 228     -0.168400
     25 N4         -8.2020   -3.1890   -3.4670 nb        1 228     -0.718000
     26 C3         -7.1190   -2.7300   -2.7520 ca        1 228      0.802500
     27 N7         -6.3760   -3.6790   -2.0140 na        1 228     -0.273700
     28 C8         -5.5920   -3.4270   -0.8670 cc        1 228     -0.289600
     29 C9         -5.0680   -4.6660   -0.4820 cd        1 228      0.338200
     30 NFE        -5.5050   -5.6700   -1.3580 nd        1 228     -0.647000
     31 C11        -6.2970   -5.0740   -2.2590 cc        1 228      0.471400
     32 H28        -0.1920   -1.3640   -0.2420 ha        1 228      0.152000
     33 H301        3.1900    1.0230    2.1610 h2        1 228      0.089200
     34 H302        4.2110   -0.0190    0.9700 h2        1 228      0.089200
     35 H25         1.9380    2.8570   -2.0890 ha        1 228      0.172000
     36 H24        -0.1420    1.9150   -3.1100 ha        1 228      0.140000
     37 H221       -1.4080   -1.4070   -2.5140 hc        1 228      0.078200
     38 H222       -1.6720    0.1590   -3.3900 hc        1 228      0.078200
     39 H211       -2.8200    1.1100   -1.3160 hx        1 228      0.103700
     40 H212       -2.5720   -0.4990   -0.4770 hx        1 228      0.103700
     41 HN20       -3.8720   -1.4320   -2.4530 hn        1 228      0.468300
     42 H17        -5.9450    1.2160   -1.5830 h1        1 228      0.092700
     43 H161       -4.4990    2.8650   -3.5220 hc        1 228      0.080200
     44 H162       -5.6910    3.4130   -2.2710 hc        1 228      0.080200
     45 H151       -7.1650    3.9360   -3.9910 hc        1 228      0.082200
     46 H152       -6.0500    3.2190   -5.2220 hc        1 228      0.082200
     47 H141       -7.4170    1.3460   -5.3810 h1        1 228      0.074200
     48 H142       -8.5400    2.0620   -4.1290 h1        1 228      0.074200
     49 H6         -9.1500   -0.1640   -4.7220 ha        1 228      0.174000
     50 H121      -10.8870   -3.0890   -4.2490 hc        1 228      0.077700
     51 H122       -9.8240   -3.5200   -5.6540 hc        1 228      0.077700
     52 H123      -10.5200   -1.8430   -5.5240 hc        1 228      0.077700
     53 H8         -5.5540   -2.4520   -0.3910 h4        1 228      0.162000
     54 H9         -4.4190   -4.9030    0.3620 h4        1 228      0.059100
     55 H11        -6.8330   -5.5570   -3.0880 h5        1 228      0.095100
     56 H202       -4.7050   -0.5970   -1.2830 hn        1 228      0.468300
@<TRIPOS>BOND
     1    1    2 ar  
     2    1    9 ar  
     3    1   32 1   
     4    2    3 1   
     5    2    6 ar  
     6    3    4 1   
     7    4    5 1   
     8    4   33 1   
     9    4   34 1   
    10    5    6 1   
    11    6    7 ar  
    12    7    8 ar  
    13    7   35 1   
    14    8    9 ar  
    15    8   36 1   
    16    9   10 1   
    17   10   11 1   
    18   10   37 1   
    19   10   38 1   
    20   11   12 1   
    21   11   39 1   
    22   11   40 1   
    23   12   13 1   
    24   12   41 1   
    25   12   56 1   
    26   13   14 2   
    27   13   15 1   
    28   15   16 1   
    29   15   19 1   
    30   15   42 1   
    31   16   17 1   
    32   16   43 1   
    33   16   44 1   
    34   17   18 1   
    35   17   45 1   
    36   17   46 1   
    37   18   19 1   
    38   18   47 1   
    39   18   48 1   
    40   19   20 1   
    41   20   21 ar  
    42   20   22 ar  
    43   21   26 ar  
    44   22   23 ar  
    45   22   49 1   
    46   23   24 1   
    47   23   25 ar  
    48   24   50 1   
    49   24   51 1   
    50   24   52 1   
    51   25   26 ar  
    52   26   27 1   
    53   27   28 1   
    54   27   31 1   
    55   28   29 2   
    56   28   53 1   
    57   29   30 1   
    58   29   54 1   
    59   30   31 2   
    60   31   55 1   
@<TRIPOS>SUBSTRUCTURE
     1 228         1 TEMP              0 ****  ****    0 ROOT
