@<TRIPOS>MOLECULE
228
   56    60     1     0     0
SMALL
bcc


@<TRIPOS>ATOM
      1 C28         0.2550   -0.4100   -0.6160 ca        1 228     -0.118000
      2 C27         1.3940    0.1290   -0.0610 ca        1 228      0.069100
      3 O31         2.1370   -0.3330    1.0150 os        1 228     -0.325900
      4 C30         3.2490    0.5830    1.1830 c3        1 228      0.320200
      5 O29         3.1180    1.6190    0.1770 os        1 228     -0.318900
      6 C26         1.9920    1.3180   -0.5710 ca        1 228      0.086100
      7 C25         1.4600    1.9930   -1.6500 ca        1 228     -0.111000
      8 C24         0.2930    1.4460   -2.2160 ca        1 228     -0.108000
      9 C23        -0.2960    0.2840   -1.7180 ca        1 228     -0.130300
     10 C22        -1.5160   -0.2690   -2.3670 c3        1 228     -0.045100
     11 C21        -2.7260    0.0180   -1.4750 c3        1 228      0.105800
     12 N20        -4.0130   -0.4860   -2.0420 n4        1 228     -0.665800
     13 C18        -4.5800    0.4290   -3.1020 c         1 228      0.526100
     14 O19        -4.0270    0.4070   -4.1900 o         1 228     -0.414100
     15 C17        -5.8120    1.2690   -2.7060 c3        1 228      0.185500
     16 C16        -5.5660    2.7370   -3.1400 c3        1 228     -0.086400
     17 C15        -6.5800    3.0300   -4.2420 c3        1 228     -0.092400
     18 C14        -7.4740    1.7870   -4.3620 c3        1 228      0.198800
     19 N13        -7.0290    0.8300   -3.3530 nh        1 228     -0.761300
     20 C1         -7.3920   -0.5200   -3.4390 ca        1 228      0.706200
     21 N1         -6.6520   -1.4370   -2.7360 nb        1 228     -0.882000
     22 C6         -8.5270   -0.9160   -4.2010 ca        1 228     -0.411600
     23 C5         -8.8650   -2.2840   -4.2110 ca        1 228      0.524600
     24 C12       -10.0500   -2.7330   -5.0040 c3        1 228     -0.168400
     25 N4         -8.1570   -3.2120   -3.5190 nb        1 228     -0.718000
     26 C3         -7.0840   -2.7460   -2.7950 ca        1 228      0.802500
     27 N7         -6.3340   -3.6930   -2.0590 na        1 228     -0.273700
     28 C8         -5.5600   -3.4400   -0.9060 cc        1 228     -0.289600
     29 C9         -5.0240   -4.6760   -0.5280 cd        1 228      0.338200
     30 NFE        -5.4440   -5.6790   -1.4140 nd        1 228     -0.647000
     31 C11        -6.2380   -5.0840   -2.3140 cc        1 228      0.471400
     32 H28        -0.1900   -1.3370   -0.2350 ha        1 228      0.152000
     33 H301        3.1700    1.0560    2.1930 h2        1 228      0.089200
     34 H302        4.2010    0.0260    1.0000 h2        1 228      0.089200
     35 H25         1.9220    2.9040   -2.0530 ha        1 228      0.172000
     36 H24        -0.1480    1.9550   -3.0870 ha        1 228      0.140000
     37 H221       -1.3980   -1.3770   -2.5100 hc        1 228      0.078200
     38 H222       -1.6670    0.1910   -3.3810 hc        1 228      0.078200
     39 H211       -2.8280    1.1280   -1.3090 hx        1 228      0.103700
     40 H212       -2.5740   -0.4820   -0.4740 hx        1 228      0.103700
     41 HN20       -3.8610   -1.4160   -2.4590 hn        1 228      0.468300
     42 H17        -5.9630    1.2050   -1.5880 h1        1 228      0.092700
     43 H161       -4.5210    2.8820   -3.5070 hc        1 228      0.080200
     44 H162       -5.7270    3.4090   -2.2600 hc        1 228      0.080200
     45 H151       -6.0650    3.2310   -5.2150 hc        1 228      0.082200
     46 H152       -7.1960    3.9280   -3.9860 hc        1 228      0.082200
     47 H141       -7.4110    1.3450   -5.3950 h1        1 228      0.074200
     48 H142       -8.5490    2.0400   -4.1460 h1        1 228      0.074200
     49 H6         -9.1310   -0.1890   -4.7580 ha        1 228      0.174000
     50 H121      -10.4780   -1.8770   -5.5810 hc        1 228      0.077700
     51 H122      -10.8380   -3.1380   -4.3180 hc        1 228      0.077700
     52 H123       -9.7610   -3.5440   -5.7200 hc        1 228      0.077700
     53 H8         -5.5360   -2.4690   -0.4230 h4        1 228      0.162000
     54 H9         -4.3760   -4.9120    0.3180 h4        1 228      0.059100
     55 H11        -6.7630   -5.5670   -3.1500 h5        1 228      0.095100
     56 H202       -4.7040   -0.5920   -1.2880 hn        1 228      0.468300
@<TRIPOS>BOND
     1    1    2 ar  
     2    1    9 ar  
     3    1   32 1   
     4    2    3 1   
     5    2    6 ar  
     6    3    4 1   
     7    4    5 1   
     8    4   33 1   
     9    4   34 1   
    10    5    6 1   
    11    6    7 ar  
    12    7    8 ar  
    13    7   35 1   
    14    8    9 ar  
    15    8   36 1   
    16    9   10 1   
    17   10   11 1   
    18   10   37 1   
    19   10   38 1   
    20   11   12 1   
    21   11   39 1   
    22   11   40 1   
    23   12   13 1   
    24   12   41 1   
    25   12   56 1   
    26   13   14 2   
    27   13   15 1   
    28   15   16 1   
    29   15   19 1   
    30   15   42 1   
    31   16   17 1   
    32   16   43 1   
    33   16   44 1   
    34   17   18 1   
    35   17   45 1   
    36   17   46 1   
    37   18   19 1   
    38   18   47 1   
    39   18   48 1   
    40   19   20 1   
    41   20   21 ar  
    42   20   22 ar  
    43   21   26 ar  
    44   22   23 ar  
    45   22   49 1   
    46   23   24 1   
    47   23   25 ar  
    48   24   50 1   
    49   24   51 1   
    50   24   52 1   
    51   25   26 ar  
    52   26   27 1   
    53   27   28 1   
    54   27   31 1   
    55   28   29 2   
    56   28   53 1   
    57   29   30 1   
    58   29   54 1   
    59   30   31 2   
    60   31   55 1   
@<TRIPOS>SUBSTRUCTURE
     1 228         1 TEMP              0 ****  ****    0 ROOT
