@<TRIPOS>MOLECULE
228
   55    51     1     0     0
SMALL
bcc


@<TRIPOS>ATOM
      1 C28         2.8820    4.1150   -1.7100 c1        1 228     -0.110000
      2 C27         3.5980    4.7570   -2.7020 c1        1 228      0.013000
      3 O31         3.2060    5.3190   -3.9210 os        1 228     -0.216000
      4 C30         4.3640    5.8090   -4.5690 c3        1 228      0.099000
      5 O29         5.4560    5.5100   -3.7710 os        1 228     -0.217000
      6 C26         4.9830    4.8410   -2.6150 c2        1 228      0.010000
      7 C25         5.6520    4.2770   -1.5260 c2        1 228     -0.112000
      8 C24         4.9380    3.6360   -0.5330 c1        1 228     -0.128000
      9 C23         3.5510    3.5500   -0.6180 c1        1 228     -0.075000
     10 C22         2.7190    2.9400    0.5900 c3        1 228     -0.148000
     11 C21         2.3820    1.4530    0.2960 c3        1 228     -0.034000
     12 N20         1.1580    1.0670    1.0540 n         1 228     -0.354000
     13 C18         0.3810   -0.0450    0.6320 c2        1 228      0.293000
     14 O19         0.9100   -0.9770    0.1190 o         1 228     -0.370000
     15 C17        -0.9070   -0.0250    0.7630 c3        1 228     -0.018000
     16 C16        -1.4920    1.2540    0.0710 c3        1 228     -0.165000
     17 C15        -2.0120    0.8490   -1.0400 c3        1 228     -0.176000
     18 C14        -2.4460   -0.6480   -0.8280 c3        1 228     -0.041000
     19 N13        -1.5460   -1.2020   -0.1160 n3        1 228     -0.247000
     20 C1         -2.1590   -2.1860    0.7620 c2        1 228      0.178000
     21 N1         -1.9250   -3.5310    0.5600 n2        1 228     -0.257000
     22 C6         -3.0420   -1.7850    1.7230 c1        1 228     -0.308000
     23 C5         -3.6900   -2.7160    2.4810 c1        1 228      0.075000
     24 C12        -4.7490   -2.2800    3.4810 c3        1 228     -0.182000
     25 N4         -3.4540   -4.0510    2.2770 n1        1 228     -0.221000
     26 C3         -2.5700   -4.4520    1.3150 c1        1 228      0.197000
     27 N7         -2.4630   -5.8140    0.9950 n2        1 228     -0.134500
     28 C8         -1.6360   -6.7210    1.6010 c1        1 228     -0.150000
     29 C9         -1.8610   -7.9370    1.0340 c1        1 228     -0.150000
     30 NFE        -2.8050   -7.7880    0.0990 n2        1 228     -0.134500
     31 C11        -3.1790   -6.4600    0.0770 c1        1 228     -0.055000
     32 H28         1.8790    4.0550   -1.7720 ha        1 228      0.162000
     33 H301        4.2930    6.7930   -4.6660 h2        1 228      0.112000
     34 H302        4.4680    5.3370   -5.4730 h2        1 228      0.112000
     35 H25         6.6340    4.3380   -1.4660 ha        1 228      0.156000
     36 H24         5.3930    3.2540    0.2090 ha        1 228      0.137000
     37 H221        3.2450    2.9960    1.4050 hc        1 228      0.095500
     38 H222        1.8840    3.4490    0.7040 hc        1 228      0.095500
     39 H211        3.1160    0.8990    0.5680 h1        1 228      0.107500
     40 H212        2.2260    1.3400   -0.6410 h1        1 228      0.107500
     41 HN20        0.9390    1.5180    1.8500 hn        1 228      0.229000
     42 H17        -1.0030   -0.0910    1.7830 h1        1 228      0.129000
     43 H161       -2.1820    1.6570    0.6390 hc        1 228      0.106500
     44 H162       -0.7810    1.9010   -0.1040 hc        1 228      0.106500
     45 H151       -1.3880    0.8990   -1.7130 hc        1 228      0.098000
     46 H152       -2.8080    1.4070   -1.2690 hc        1 228      0.098000
     47 H141       -2.5190   -1.1170   -1.7250 h1        1 228      0.103000
     48 H142       -3.2740   -0.6790   -0.3800 h1        1 228      0.103000
     49 H6         -3.1590   -0.8080    1.9190 ha        1 228      0.175000
     50 H121       -4.3460   -1.7620    4.1630 hc        1 228      0.103000
     51 H122       -5.4190   -1.7530    3.0320 hc        1 228      0.103000
     52 H123       -5.1710   -3.0790    3.8810 hc        1 228      0.103000
     53 H8         -0.9750   -6.5240    2.3380 DU        1 228      0.198667
     54 H9         -1.4330   -8.7340    1.2580 DU        1 228      0.198667
     55 H11        -3.8650   -6.0540   -0.5210 DU        1 228      0.198667
@<TRIPOS>BOND
     1    1    9 1   
     2    1   32 1   
     3    2    3 1   
     4    2    6 1   
     5    3    4 1   
     6    4    5 1   
     7    4   33 1   
     8    4   34 1   
     9    5    6 1   
    10    6    7 1   
    11    7    8 1   
    12    7   35 1   
    13    8   36 1   
    14    9   10 1   
    15   10   11 1   
    16   10   37 1   
    17   10   38 1   
    18   11   12 1   
    19   11   39 1   
    20   11   40 1   
    21   12   13 1   
    22   12   41 1   
    23   13   14 1   
    24   13   15 1   
    25   15   16 1   
    26   15   19 1   
    27   15   42 1   
    28   16   17 1   
    29   16   43 1   
    30   16   44 1   
    31   17   18 1   
    32   17   45 1   
    33   17   46 1   
    34   18   19 1   
    35   18   47 1   
    36   18   48 1   
    37   19   20 1   
    38   20   21 1   
    39   20   22 1   
    40   21   26 1   
    41   22   49 1   
    42   23   24 1   
    43   23   25 1   
    44   24   50 1   
    45   24   51 1   
    46   24   52 1   
    47   27   28 1   
    48   27   31 1   
    49   28   29 1   
    50   29   30 1   
    51   30   31 1   
@<TRIPOS>SUBSTRUCTURE
     1 228         1 TEMP              0 ****  ****    0 ROOT
