@<TRIPOS>MOLECULE
228
   55    59     1     0     0
SMALL
bcc


@<TRIPOS>ATOM
      1 C28        -4.0850    2.1280   -0.6380 ca        1 228     -0.111000
      2 C27        -5.1620    2.3660   -1.4650 ca        1 228      0.055100
      3 O31        -6.4850    2.6220   -1.1170 os        1 228     -0.335900
      4 C30        -7.2130    2.8070   -2.3530 c3        1 228      0.321200
      5 O29        -6.2800    2.6450   -3.4470 os        1 228     -0.333900
      6 C26        -5.0380    2.3800   -2.8790 ca        1 228      0.055100
      7 C25        -3.8290    2.1550   -3.5050 ca        1 228     -0.109000
      8 C24        -2.7290    1.9120   -2.6640 ca        1 228     -0.124000
      9 C23        -2.8440    1.8960   -1.2720 ca        1 228     -0.081300
     10 C22        -1.6390    1.6420   -0.4360 c3        1 228     -0.065100
     11 C21        -1.2880    0.1480   -0.4550 c3        1 228      0.082000
     12 N20        -0.1420   -0.2100    0.3360 n         1 228     -0.553900
     13 C18         1.0890   -0.4720   -0.2370 c         1 228      0.642100
     14 O19         1.2420   -0.5440   -1.4710 o         1 228     -0.599100
     15 C17         2.2440   -0.8010    0.7380 c3        1 228      0.154500
     16 C16         2.3440   -2.3410    0.8580 c3        1 228     -0.080400
     17 C15         3.6330   -2.7410    0.1480 c3        1 228     -0.086400
     18 C14         4.3380   -1.4340   -0.2460 c3        1 228      0.198800
     19 N13         3.5540   -0.3330    0.3010 nh        1 228     -0.741300
     20 C1          3.7510    0.9670   -0.1670 ca        1 228      0.721200
     21 N1          2.7970    1.9170    0.1050 nb        1 228     -0.789000
     22 C6          4.9700    1.3140   -0.8290 ca        1 228     -0.435600
     23 C5          5.1690    2.6600   -1.1720 ca        1 228      0.499600
     24 C12         6.4330    3.0520   -1.8710 c3        1 228     -0.156400
     25 N4          4.2580    3.6260   -0.8990 nb        1 228     -0.755000
     26 C3          3.1040    3.2080   -0.2660 ca        1 228      0.790500
     27 N7          2.1440    4.2080    0.0280 na        1 228     -0.254700
     28 C8          0.8870    4.0250    0.6360 cc        1 228     -0.224600
     29 C9          0.3150    5.2980    0.7280 cd        1 228      0.291200
     30 NFE         1.1840    6.2620    0.1930 nd        1 228     -0.668000
     31 C11         2.2720    5.5980   -0.2210 cc        1 228      0.440400
     32 H28        -4.1830    2.1210    0.4550 ha        1 228      0.153000
     33 H301       -7.6150    3.8490   -2.3780 h2        1 228      0.072200
     34 H302       -7.9940    2.0110   -2.4290 h2        1 228      0.072200
     35 H25        -3.7260    2.1670   -4.5970 ha        1 228      0.157000
     36 H24        -1.7440    1.7310   -3.1240 ha        1 228      0.147000
     37 H221       -1.8210    1.9790    0.6190 hc        1 228      0.056700
     38 H222       -0.7740    2.2400   -0.8330 hc        1 228      0.056700
     39 H211       -2.1690   -0.4330   -0.0570 h1        1 228      0.068200
     40 H212       -1.1080   -0.1690   -1.5230 h1        1 228      0.068200
     41 HN20       -0.1610    0.0680    1.2900 hn        1 228      0.303500
     42 H17         2.0480   -0.3320    1.7450 h1        1 228      0.081700
     43 H161        1.4560   -2.8330    0.3910 hc        1 228      0.063700
     44 H162        2.3750   -2.6300    1.9370 hc        1 228      0.063700
     45 H151        4.2870   -3.3480    0.8200 hc        1 228      0.059700
     46 H152        3.4140   -3.3480   -0.7650 hc        1 228      0.059700
     47 H141        5.3700   -1.3830    0.1980 h1        1 228      0.055700
     48 H142        4.4280   -1.3570   -1.3660 h1        1 228      0.055700
     49 H6          5.7320    0.5620   -1.0620 ha        1 228      0.157000
     50 H121        6.9650    3.8530   -1.2990 hc        1 228      0.061033
     51 H122        7.1100    2.1700   -1.9690 hc        1 228      0.061033
     52 H123        6.2010    3.4450   -2.8930 hc        1 228      0.061033
     53 H8          0.5190    3.0450    0.9350 h4        1 228      0.188000
     54 H9         -0.6540    5.5800    1.1360 h4        1 228      0.045100
     55 H11         3.1600    6.0320   -0.6950 h5        1 228      0.083100
@<TRIPOS>BOND
     1    1    2 ar  
     2    1    9 ar  
     3    1   32 1   
     4    2    3 1   
     5    2    6 ar  
     6    3    4 1   
     7    4    5 1   
     8    4   33 1   
     9    4   34 1   
    10    5    6 1   
    11    6    7 ar  
    12    7    8 ar  
    13    7   35 1   
    14    8    9 ar  
    15    8   36 1   
    16    9   10 1   
    17   10   11 1   
    18   10   37 1   
    19   10   38 1   
    20   11   12 1   
    21   11   39 1   
    22   11   40 1   
    23   12   13 1   
    24   12   41 1   
    25   13   14 2   
    26   13   15 1   
    27   15   16 1   
    28   15   19 1   
    29   15   42 1   
    30   16   17 1   
    31   16   43 1   
    32   16   44 1   
    33   17   18 1   
    34   17   45 1   
    35   17   46 1   
    36   18   19 1   
    37   18   47 1   
    38   18   48 1   
    39   19   20 1   
    40   20   21 ar  
    41   20   22 ar  
    42   21   26 ar  
    43   22   23 ar  
    44   22   49 1   
    45   23   24 1   
    46   23   25 ar  
    47   24   50 1   
    48   24   51 1   
    49   24   52 1   
    50   25   26 ar  
    51   26   27 1   
    52   27   28 1   
    53   27   31 1   
    54   28   29 2   
    55   28   53 1   
    56   29   30 1   
    57   29   54 1   
    58   30   31 2   
    59   31   55 1   
@<TRIPOS>SUBSTRUCTURE
     1 228         1 TEMP              0 ****  ****    0 ROOT
