@<TRIPOS>MOLECULE
229
   36    37     1     0     0
SMALL
bcc


@<TRIPOS>ATOM
      1 O4         -0.3390   -0.3670    1.1520 oh        1 229     -0.598800
      2 C11         0.9390   -0.3380    0.5420 c3        1 229      0.089400
      3 C6          1.9230   -0.1880    1.7100 c3        1 229      0.132100
      4 O3          1.9850   -1.3870    2.4640 oh        1 229     -0.594800
      5 C8          3.3800    0.0510    1.2590 c3        1 229      0.078500
      6 C3          3.8100   -0.9990    0.2090 c3        1 229      0.111400
      7 O2          5.1590   -0.7770   -0.1330 oh        1 229     -0.607800
      8 N2          3.6090    1.4380    0.7430 n4        1 229     -0.756000
      9 C10         3.6620    2.4720    1.8270 c3        1 229      0.224100
     10 C4          4.1810    3.7500    1.3200 cc        1 229     -0.262300
     11 C1          3.9680    4.3140    0.0140 cc        1 229      0.129400
     12 N4          3.3210    3.8160   -1.1050 nc        1 229     -0.669100
     13 C7          3.3120    4.6180   -2.1580 cd        1 229      0.522800
     14 N3          3.8840    5.8780   -2.2450 n         1 229     -0.474400
     15 C9          4.9350    4.6960    2.0540 cd        1 229     -0.046300
     16 N1          5.1820    5.8030    1.2700 na        1 229     -0.102100
     17 C2          4.6060    5.5950    0.0230 cd        1 229     -0.211900
     18 C5          4.5790    6.4570   -1.1560 c         1 229      0.728100
     19 O1          5.0920    7.5800   -1.2520 o         1 229     -0.579500
     20 HO4        -0.9810   -0.5980    0.4680 ho        1 229      0.434000
     21 H111        1.0100    0.5320   -0.1630 h1        1 229      0.041700
     22 H112        1.1320   -1.2930   -0.0150 h1        1 229      0.041700
     23 H6          1.5750    0.6520    2.3780 h1        1 229      0.069700
     24 HO3         1.0750   -1.5970    2.7260 ho        1 229      0.454000
     25 H8          4.0410   -0.0810    2.1710 hx        1 229      0.121700
     26 H31         3.6230   -2.0140    0.6500 h1        1 229      0.091700
     27 H32         3.2250   -0.8820   -0.7440 h1        1 229      0.091700
     28 HO2         5.7070   -1.4090    0.3500 ho        1 229      0.437000
     29 HN2         2.8650    1.6840    0.0770 hn        1 229      0.470800
     30 H101        2.6110    2.5980    2.2230 hx        1 229      0.099200
     31 H102        4.3170    2.0820    2.6600 hx        1 229      0.099200
     32 H7          2.7950    4.2550   -3.0750 h5        1 229      0.069800
     33 HN3         3.8120    6.4050   -3.0900 hn        1 229      0.359500
     34 H9          5.2940    4.6340    3.0860 h4        1 229      0.195000
     35 HN1         5.6760    6.6230    1.5340 hn        1 229      0.340700
     36 H22         4.5040    1.4410    0.2260 hn        1 229      0.470800
@<TRIPOS>BOND
     1    1    2 1   
     2    1   20 1   
     3    2    3 1   
     4    2   21 1   
     5    2   22 1   
     6    3    4 1   
     7    3    5 1   
     8    3   23 1   
     9    4   24 1   
    10    5    6 1   
    11    5    8 1   
    12    5   25 1   
    13    6    7 1   
    14    6   26 1   
    15    6   27 1   
    16    7   28 1   
    17    8    9 1   
    18    8   29 1   
    19    8   36 1   
    20    9   10 1   
    21    9   30 1   
    22    9   31 1   
    23   10   11 1   
    24   10   15 2   
    25   11   12 1   
    26   11   17 2   
    27   12   13 2   
    28   13   14 1   
    29   13   32 1   
    30   14   18 1   
    31   14   33 1   
    32   15   16 1   
    33   15   34 1   
    34   16   17 1   
    35   16   35 1   
    36   17   18 1   
    37   18   19 2   
@<TRIPOS>SUBSTRUCTURE
     1 229         1 TEMP              0 ****  ****    0 ROOT
