@<TRIPOS>MOLECULE
229
   35    34     1     0     0
SMALL
bcc


@<TRIPOS>ATOM
      1 O4         -3.6890   -3.7870   -0.7230 oh        1 229     -0.339000
      2 C11        -2.5390   -3.2630   -0.0980 c3        1 229     -0.062000
      3 C6         -1.8480   -2.2980   -1.0380 c3        1 229      0.034000
      4 O3         -2.5800   -1.0990   -1.1030 oh        1 229     -0.329000
      5 C8         -0.4510   -2.0100   -0.5270 c3        1 229     -0.015000
      6 C3          0.5190   -2.9690   -1.1540 c3        1 229     -0.031000
      7 O2          1.4100   -3.4620   -0.1580 oh        1 229     -0.330000
      8 N2         -0.0800   -0.6570   -0.8690 n3        1 229     -0.298000
      9 C10         0.4980   -0.0070    0.2930 c3        1 229     -0.017000
     10 C4          1.0640    1.3570   -0.1090 c2        1 229     -0.125000
     11 C1          0.7250    2.4930    0.6270 c2        1 229     -0.014000
     12 N4         -0.5060    2.8510    1.2780 n2        1 229     -0.140000
     13 C7         -0.6110    4.1190    1.9990 c1        1 229      0.034000
     14 N3          0.5280    5.0200    2.0610 n2        1 229     -0.326000
     15 C9          2.4490    1.4680   -0.5650 c1        1 229     -0.072000
     16 N1          3.0540    2.7800   -0.0830 n2        1 229     -0.135000
     17 C2          1.8560    3.3860    0.6870 c2        1 229     -0.190000
     18 C5          1.7440    4.6730    1.4210 c2        1 229      0.363000
     19 O1          2.6870    5.4450    1.4460 o         1 229     -0.372000
     20 HO4        -4.0600   -4.3880   -0.1980 ho        1 229      0.208000
     21 H111       -2.7980   -2.7950    0.7150 h1        1 229      0.073000
     22 H112       -1.9300   -3.9910    0.1260 h1        1 229      0.073000
     23 H6         -1.7930   -2.6980   -1.9370 h1        1 229      0.099000
     24 HO3        -3.2510   -1.1870   -1.7020 ho        1 229      0.218000
     25 H8         -0.4320   -2.1160    0.4370 h1        1 229      0.095000
     26 H31         1.0270   -2.5110   -1.8450 h1        1 229      0.070000
     27 H32         0.0240   -3.7240   -1.5550 h1        1 229      0.070000
     28 HO2         1.9820   -4.0300   -0.5280 ho        1 229      0.205000
     29 HN2         0.5380   -0.6710   -1.5530 hn        1 229      0.168000
     30 H101       -0.1940    0.1160    0.9750 h1        1 229      0.102500
     31 H102        1.2140   -0.5630    0.6530 h1        1 229      0.102500
     32 H7         -1.4460    4.3600    2.4400 ha        1 229      0.180000
     33 HN3         0.4600    5.8070    2.5100 hn        1 229      0.250000
     34 H9          2.7080    1.1020   -1.4280 ha        1 229      0.184000
     35 HN1         3.7200    3.2490   -0.4970 hn        1 229      0.265000
@<TRIPOS>BOND
     1    1    2 1   
     2    1   20 1   
     3    2    3 1   
     4    2   21 1   
     5    2   22 1   
     6    3    4 1   
     7    3    5 1   
     8    3   23 1   
     9    4   24 1   
    10    5    6 1   
    11    5    8 1   
    12    5   25 1   
    13    6    7 1   
    14    6   26 1   
    15    6   27 1   
    16    7   28 1   
    17    8    9 1   
    18    8   29 1   
    19    9   10 1   
    20    9   30 1   
    21    9   31 1   
    22   10   11 1   
    23   10   15 1   
    24   11   12 1   
    25   11   17 1   
    26   12   13 1   
    27   13   32 1   
    28   14   18 1   
    29   14   33 1   
    30   15   34 1   
    31   16   17 1   
    32   16   35 1   
    33   17   18 1   
    34   18   19 1   
@<TRIPOS>SUBSTRUCTURE
     1 229         1 TEMP              0 ****  ****    0 ROOT
