@<TRIPOS>MOLECULE
229
   36    37     1     0     0
SMALL
bcc


@<TRIPOS>ATOM
      1 O4         -0.3390   -0.3920    1.0530 oh        1 229     -0.598800
      2 C11         0.9540   -0.3530    0.4780 c3        1 229      0.089400
      3 C6          1.9060   -0.1980    1.6710 c3        1 229      0.132100
      4 O3          1.9560   -1.3970    2.4250 oh        1 229     -0.594800
      5 C8          3.3730    0.0520    1.2600 c3        1 229      0.078500
      6 C3          3.8380   -0.9950    0.2220 c3        1 229      0.111400
      7 O2          5.1940   -0.7630   -0.0850 oh        1 229     -0.607800
      8 N2          3.6060    1.4400    0.7500 n4        1 229     -0.756000
      9 C10         3.6220    2.4740    1.8350 c3        1 229      0.224100
     10 C4          4.1450    3.7560    1.3430 cc        1 229     -0.262300
     11 C1          3.9660    4.3180    0.0320 cc        1 229      0.129400
     12 N4          3.3560    3.8150   -1.1050 nc        1 229     -0.669100
     13 C7          3.3720    4.6170   -2.1580 cd        1 229      0.522800
     14 N3          3.9380    5.8810   -2.2290 n         1 229     -0.474400
     15 C9          4.8700    4.7080    2.0990 cd        1 229     -0.046300
     16 N1          5.1320    5.8170    1.3220 na        1 229     -0.102100
     17 C2          4.5940    5.6040    0.0590 cd        1 229     -0.211900
     18 C5          4.5960    6.4660   -1.1210 c         1 229      0.728100
     19 O1          5.1030    7.5930   -1.2020 o         1 229     -0.579500
     20 HO4        -0.9610   -0.6270    0.3520 ho        1 229      0.434000
     21 H111        1.0380    0.5180   -0.2240 h1        1 229      0.041700
     22 H112        1.1680   -1.3060   -0.0750 h1        1 229      0.041700
     23 H6          1.5350    0.6390    2.3300 h1        1 229      0.069700
     24 HO3         1.0400   -1.6140    2.6640 ho        1 229      0.454000
     25 H8          4.0110   -0.0770    2.1890 hx        1 229      0.121700
     26 H31         3.6460   -2.0120    0.6560 h1        1 229      0.091700
     27 H32         3.2780   -0.8820   -0.7470 h1        1 229      0.091700
     28 HO2         5.7330   -1.3920    0.4120 ho        1 229      0.437000
     29 HN2         2.8780    1.6810    0.0640 hn        1 229      0.470800
     30 H101        4.2560    2.0890    2.6860 hx        1 229      0.099200
     31 H102        2.5590    2.5920    2.2020 hx        1 229      0.099200
     32 H7          2.8850    4.2500   -3.0900 h5        1 229      0.069800
     33 HN3         3.8860    6.4070   -3.0760 hn        1 229      0.359500
     34 H9          5.1990    4.6490    3.1410 h4        1 229      0.195000
     35 HN1         5.6120    6.6400    1.6010 hn        1 229      0.340700
     36 H22         4.5150    1.4500    0.2590 hn        1 229      0.470800
@<TRIPOS>BOND
     1    1    2 1   
     2    1   20 1   
     3    2    3 1   
     4    2   21 1   
     5    2   22 1   
     6    3    4 1   
     7    3    5 1   
     8    3   23 1   
     9    4   24 1   
    10    5    6 1   
    11    5    8 1   
    12    5   25 1   
    13    6    7 1   
    14    6   26 1   
    15    6   27 1   
    16    7   28 1   
    17    8    9 1   
    18    8   29 1   
    19    8   36 1   
    20    9   10 1   
    21    9   30 1   
    22    9   31 1   
    23   10   11 1   
    24   10   15 2   
    25   11   12 1   
    26   11   17 2   
    27   12   13 2   
    28   13   14 1   
    29   13   32 1   
    30   14   18 1   
    31   14   33 1   
    32   15   16 1   
    33   15   34 1   
    34   16   17 1   
    35   16   35 1   
    36   17   18 1   
    37   18   19 2   
@<TRIPOS>SUBSTRUCTURE
     1 229         1 TEMP              0 ****  ****    0 ROOT
