@<TRIPOS>MOLECULE
229
   35    36     1     0     0
SMALL
bcc


@<TRIPOS>ATOM
      1 O4          3.9030   -5.0120    2.1680 oh        1 229     -0.619800
      2 C11         2.9820   -3.9330    2.2490 c3        1 229      0.096400
      3 C6          1.6540   -4.4740    1.7150 c3        1 229      0.150100
      4 O3          1.2090   -5.5730    2.5000 oh        1 229     -0.612800
      5 C8          0.5140   -3.4270    1.7580 c3        1 229      0.168500
      6 C3          0.2380   -3.0330    3.2220 c3        1 229      0.117400
      7 O2         -0.9690   -2.2820    3.2270 oh        1 229     -0.626800
      8 N2          0.8240   -2.2770    0.9140 n3        1 229     -0.821200
      9 C10         0.4020   -2.4070   -0.4640 c3        1 229      0.236100
     10 C4         -1.0480   -2.3000   -0.7520 cc        1 229     -0.175300
     11 C1         -1.6360   -2.3050   -2.0640 cc        1 229      0.125400
     12 N4         -1.0750   -2.4060   -3.3270 nc        1 229     -0.570100
     13 C7         -1.9280   -2.3760   -4.3310 cd        1 229      0.459800
     14 N3         -3.3160   -2.2530   -4.2500 n         1 229     -0.486400
     15 C9         -2.1130   -2.1700    0.1640 cd        1 229     -0.111300
     16 N1         -3.3190   -2.0940   -0.5160 na        1 229     -0.130100
     17 C2         -3.0560   -2.1750   -1.8740 cd        1 229     -0.232900
     18 C5         -3.9700   -2.1440   -3.0070 c         1 229      0.726100
     19 O1         -5.2090   -2.0350   -2.9510 o         1 229     -0.644500
     20 HO4         4.7630   -4.6640    2.4280 ho        1 229      0.408000
     21 H111        2.8770   -3.6110    3.3190 h1        1 229      0.042200
     22 H112        3.3320   -3.0700    1.6260 h1        1 229      0.042200
     23 H6          1.8040   -4.8210    0.6530 h1        1 229      0.054700
     24 HO3         1.9380   -6.2060    2.5200 ho        1 229      0.423000
     25 H8         -0.4170   -3.9620    1.3890 h1        1 229      0.063700
     26 H31         1.0680   -2.4060    3.6440 h1        1 229      0.045700
     27 H32         0.1220   -3.9680    3.8330 h1        1 229      0.045700
     28 HO2        -1.2050   -2.1450    4.1510 ho        1 229      0.408000
     29 HN2         0.4340   -1.4470    1.3240 hn        1 229      0.374800
     30 H101        0.7710   -3.3970   -0.8620 h1        1 229      0.068700
     31 H102        0.9350   -1.5920   -1.0400 h1        1 229      0.068700
     32 H7         -1.5150   -2.4550   -5.3590 h5        1 229      0.051800
     33 HN3        -3.8660   -2.2420   -5.0780 hn        1 229      0.337500
     34 H9         -2.0710   -2.1330    1.2590 h4        1 229      0.200000
     35 HN1        -4.2190   -2.0060   -0.1190 hn        1 229      0.316700
@<TRIPOS>BOND
     1    1    2 1   
     2    1   20 1   
     3    2    3 1   
     4    2   21 1   
     5    2   22 1   
     6    3    4 1   
     7    3    5 1   
     8    3   23 1   
     9    4   24 1   
    10    5    6 1   
    11    5    8 1   
    12    5   25 1   
    13    6    7 1   
    14    6   26 1   
    15    6   27 1   
    16    7   28 1   
    17    8    9 1   
    18    8   29 1   
    19    9   10 1   
    20    9   30 1   
    21    9   31 1   
    22   10   11 1   
    23   10   15 2   
    24   11   12 1   
    25   11   17 2   
    26   12   13 2   
    27   13   14 1   
    28   13   32 1   
    29   14   18 1   
    30   14   33 1   
    31   15   16 1   
    32   15   34 1   
    33   16   17 1   
    34   16   35 1   
    35   17   18 1   
    36   18   19 2   
@<TRIPOS>SUBSTRUCTURE
     1 229         1 TEMP              0 ****  ****    0 ROOT
