@<TRIPOS>MOLECULE
229
   36    37     1     0     0
SMALL
bcc


@<TRIPOS>ATOM
      1 O4         -0.3380   -0.3790    1.1140 oh        1 229     -0.598800
      2 C11         0.9460   -0.3460    0.5200 c3        1 229      0.089400
      3 C6          1.9160   -0.1900    1.6980 c3        1 229      0.132100
      4 O3          1.9730   -1.3870    2.4560 oh        1 229     -0.594800
      5 C8          3.3780    0.0540    1.2650 c3        1 229      0.078500
      6 C3          3.8240   -0.9970    0.2230 c3        1 229      0.111400
      7 O2          5.1760   -0.7710   -0.1040 oh        1 229     -0.607800
      8 N2          3.6080    1.4400    0.7480 ny        1 229     -0.756000
      9 C10         3.6440    2.4770    1.8300 c3        1 229      0.224100
     10 C4          4.1630    3.7560    1.3260 cc        1 229     -0.262300
     11 C1          3.9660    4.3150    0.0160 cc        1 229      0.129400
     12 N4          3.3370    3.8100   -1.1100 nc        1 229     -0.669100
     13 C7          3.3390    4.6100   -2.1660 cd        1 229      0.522800
     14 N3          3.9070    5.8710   -2.2490 ns        1 229     -0.474400
     15 C9          4.9040    4.7070    2.0670 cd        1 229     -0.046300
     16 N1          5.1560    5.8130    1.2840 na        1 229     -0.102100
     17 C2          4.5980    5.5990    0.0300 cd        1 229     -0.211900
     18 C5          4.5850    6.4570   -1.1520 c         1 229      0.728100
     19 O1          5.0940    7.5820   -1.2440 o         1 229     -0.579500
     20 HO4        -0.9710   -0.6140    0.4230 ho        1 229      0.434000
     21 H111        1.0220    0.5230   -0.1860 h1        1 229      0.041700
     22 H112        1.1500   -1.3010   -0.0340 h1        1 229      0.041700
     23 H6          1.5570    0.6510    2.3610 h1        1 229      0.069700
     24 HO3         1.0610   -1.6000    2.7080 ho        1 229      0.454000
     25 H8          4.0290   -0.0740    2.1850 hx        1 229      0.121700
     26 H31         3.2510   -0.8850   -0.7370 h1        1 229      0.091700
     27 H32         3.6350   -2.0120    0.6630 h1        1 229      0.091700
     28 HO2         5.7210   -1.4000    0.3880 ho        1 229      0.437000
     29 HN2         2.8710    1.6810    0.0730 hn        1 229      0.470800
     30 H101        4.2900    2.0920    2.6720 hx        1 229      0.099200
     31 H102        2.5870    2.5990    2.2120 hx        1 229      0.099200
     32 H7          2.8360    4.2410   -3.0880 h5        1 229      0.069800
     33 HN3         3.8440    6.3960   -3.0960 hn        1 229      0.359500
     34 H9          5.2480    4.6500    3.1050 h4        1 229      0.195000
     35 HN1         5.6440    6.6350    1.5520 hn        1 229      0.340700
     36 H22         4.5090    1.4450    0.2430 hn        1 229      0.470800
@<TRIPOS>BOND
     1    1    2 1   
     2    1   20 1   
     3    2    3 1   
     4    2   21 1   
     5    2   22 1   
     6    3    4 1   
     7    3    5 1   
     8    3   23 1   
     9    4   24 1   
    10    5    6 1   
    11    5    8 1   
    12    5   25 1   
    13    6    7 1   
    14    6   26 1   
    15    6   27 1   
    16    7   28 1   
    17    8    9 1   
    18    8   29 1   
    19    8   36 1   
    20    9   10 1   
    21    9   30 1   
    22    9   31 1   
    23   10   11 1   
    24   10   15 2   
    25   11   12 1   
    26   11   17 2   
    27   12   13 2   
    28   13   14 1   
    29   13   32 1   
    30   14   18 1   
    31   14   33 1   
    32   15   16 1   
    33   15   34 1   
    34   16   17 1   
    35   16   35 1   
    36   17   18 1   
    37   18   19 2   
@<TRIPOS>SUBSTRUCTURE
     1 229         1 TEMP              0 ****  ****    0 ROOT
