@<TRIPOS>MOLECULE
22A
   32    33     1     0     0
SMALL
bcc


@<TRIPOS>ATOM
      1 N1          0.0510   -0.3560    0.0340 n         1 22A     -0.475400
      2 C2          1.4330   -0.3760    0.1550 cc        1 22A      0.518800
      3 N3          2.1340   -0.1740    1.2600 nd        1 22A     -0.657100
      4 C4          1.3850    0.0660    2.3990 cd        1 22A      0.136400
      5 C5         -0.0450    0.1270    2.3790 cc        1 22A     -0.216900
      6 C6         -0.7900   -0.0970    1.1430 c         1 22A      0.727100
      7 O6         -2.0220   -0.0720    1.0170 o         1 22A     -0.581500
      8 N7         -0.5020    0.4030    3.6620 na        1 22A     -0.102100
      9 C8          0.5880    0.5220    4.4970 cc        1 22A     -0.041300
     10 C9          1.7780    0.3130    3.7610 cd        1 22A     -0.267300
     11 N1'         4.0650    1.1340    3.4760 n4        1 22A     -0.757000
     12 C10         3.1460    0.2670    4.2860 c3        1 22A      0.229100
     13 C2'         5.4660    1.1480    4.0090 c3        1 22A      0.070500
     14 C3'         6.4610    1.5890    2.9160 c3        1 22A      0.114900
     15 C4'         5.5850    2.0850    5.2370 c3        1 22A      0.114900
     16 O5'         4.9200    3.3020    5.0100 oh        1 22A     -0.611300
     17 O6'         6.0830    2.8960    2.5260 oh        1 22A     -0.611300
     18 HN1        -0.3780   -0.5350   -0.8490 hn        1 22A      0.359500
     19 H2          2.0000   -0.5840   -0.7810 h5        1 22A      0.069800
     20 H8          0.4720    0.7360    5.5640 h4        1 22A      0.194000
     21 HN1'        3.7170    2.1070    3.4830 hn        1 22A      0.471300
     22 H10         3.1830    0.6280    5.3550 hx        1 22A      0.099200
     23 H10A        3.5530   -0.7860    4.2360 hx        1 22A      0.099200
     24 H2'         5.7350    0.0970    4.3210 hx        1 22A      0.112700
     25 H3'         6.4290    0.8950    2.0330 h1        1 22A      0.075700
     26 H3'A        7.4960    1.5820    3.3540 h1        1 22A      0.075700
     27 H4'         6.6740    2.2320    5.4620 h1        1 22A      0.075700
     28 H4'A        5.0740    1.6300    6.1290 h1        1 22A      0.075700
     29 HO5'        5.4800    3.8540    4.4430 ho        1 22A      0.443500
     30 HO6'        6.7550    3.2250    1.9130 ho        1 22A      0.443500
     31 H14        -1.4590    0.4860    3.9140 hn        1 22A      0.340700
     32 H1'2        4.0750    0.8080    2.5010 hn        1 22A      0.471300
@<TRIPOS>BOND
     1    1    2 1   
     2    1    6 1   
     3    1   18 1   
     4    2    3 2   
     5    2   19 1   
     6    3    4 1   
     7    4    5 2   
     8    4   10 1   
     9    5    6 1   
    10    5    8 1   
    11    6    7 2   
    12    8    9 1   
    13    8   31 1   
    14    9   10 2   
    15    9   20 1   
    16   10   12 1   
    17   11   12 1   
    18   11   13 1   
    19   11   21 1   
    20   11   32 1   
    21   12   22 1   
    22   12   23 1   
    23   13   14 1   
    24   13   15 1   
    25   13   24 1   
    26   14   17 1   
    27   14   25 1   
    28   14   26 1   
    29   15   16 1   
    30   15   27 1   
    31   15   28 1   
    32   16   29 1   
    33   17   30 1   
@<TRIPOS>SUBSTRUCTURE
     1 22A         1 TEMP              0 ****  ****    0 ROOT
