@<TRIPOS>MOLECULE
22A
   31    27     1     0     0
SMALL
bcc


@<TRIPOS>ATOM
      1 N1         -3.2480    1.2290   -3.7600 n3        1 22A     -0.325000
      2 C2         -1.8440    1.3360   -3.8190 c2        1 22A      0.040000
      3 N3         -1.0400    1.0230   -2.6510 n1        1 22A     -0.148000
      4 C4         -1.6760    0.5980   -1.4290 c1        1 22A     -0.076500
      5 C5         -3.0450    0.4900   -1.3730 c1        1 22A     -0.128000
      6 C6         -3.8700    0.8190   -2.5740 c1        1 22A      0.363000
      7 O6         -5.0580    0.6830   -2.5370 o         1 22A     -0.364000
      8 N7         -3.4000    0.0580   -0.0740 n2        1 22A     -0.130000
      9 C8         -2.2400   -0.0970    0.6630 c1        1 22A     -0.128000
     10 C9         -1.1590    0.2340   -0.1630 c1        1 22A     -0.076500
     11 N1'         0.7510   -0.4950    1.1760 n3        1 22A     -0.310000
     12 C10         0.3450    0.4610    0.1970 c2        1 22A     -0.008000
     13 C2'         2.1270   -0.4980    1.2740 c3        1 22A     -0.070000
     14 C3'         2.6580   -2.0160    1.2760 c3        1 22A     -0.031500
     15 C4'         2.5420    0.1860    2.5720 c3        1 22A     -0.031500
     16 O5'         3.9330    0.3780    2.5760 oh        1 22A     -0.324500
     17 O6'         4.0480   -2.0510    0.8040 oh        1 22A     -0.324500
     18 HN1        -3.7740    1.4350   -4.5290 hn        1 22A      0.253000
     19 H2         -1.4070    1.6250   -4.6530 h5        1 22A      0.183000
     20 H8         -2.1820   -0.4690    1.5490 DU        1 22A      0.226000
     21 HN1'        0.3760   -0.2640    2.0210 hn        1 22A      0.156000
     22 H10         0.9040    0.3550   -0.6260 h4        1 22A      0.091500
     23 H10A        0.4610    1.3640    0.5570 h4        1 22A      0.091500
     24 H2'         2.5100   -0.0190    0.5140 h1        1 22A      0.128000
     25 H3'         2.6100   -2.3950    2.2350 h1        1 22A      0.077750
     26 H3'A        2.0870   -2.5690    0.6710 h1        1 22A      0.077750
     27 H4'         2.2740   -0.4060    3.3730 h1        1 22A      0.077750
     28 H4'A        2.0810    1.0780    2.6450 h1        1 22A      0.077750
     29 HO5'        4.1540    0.9310    3.2390 ho        1 22A      0.204500
     30 HO6'        4.2920   -2.9180    0.6360 ho        1 22A      0.204500
     31 H14        -4.2090   -0.0850    0.2100 DU        1 22A      0.226000
@<TRIPOS>BOND
     1    1    2 1   
     2    1    6 1   
     3    1   18 1   
     4    2    3 1   
     5    2   19 1   
     6    4    5 1   
     7    4   10 1   
     8    5    8 1   
     9    6    7 1   
    10    8    9 1   
    11    9   10 1   
    12   11   12 1   
    13   11   13 1   
    14   11   21 1   
    15   12   22 1   
    16   12   23 1   
    17   13   14 1   
    18   13   15 1   
    19   13   24 1   
    20   14   17 1   
    21   14   25 1   
    22   14   26 1   
    23   15   16 1   
    24   15   27 1   
    25   15   28 1   
    26   16   29 1   
    27   17   30 1   
@<TRIPOS>SUBSTRUCTURE
     1 22A         1 TEMP              0 ****  ****    0 ROOT
