@<TRIPOS>MOLECULE
22A
   31    32     1     0     0
SMALL
bcc


@<TRIPOS>ATOM
      1 N1          3.1980    0.9880   -1.1040 n         1 22A     -0.485400
      2 C2          2.2260    1.7520   -0.4570 cc        1 22A      0.466800
      3 N3          1.2200    1.3040    0.2660 nd        1 22A     -0.571100
      4 C4          1.1330   -0.0740    0.3790 cd        1 22A      0.128400
      5 C5          2.0860   -0.9480   -0.2480 cc        1 22A     -0.230900
      6 C6          3.1880   -0.4190   -1.0400 c         1 22A      0.726100
      7 O6          4.0620   -1.0890   -1.6210 o         1 22A     -0.640500
      8 N7          1.7470   -2.2610    0.0410 na        1 22A     -0.132100
      9 C8          0.6070   -2.2480    0.8300 cc        1 22A     -0.108300
     10 C9          0.1920   -0.9210    1.0630 cd        1 22A     -0.177300
     11 N1'        -1.9590    0.3440    1.2480 n3        1 22A     -0.828200
     12 C10        -0.9610   -0.4830    1.8860 c3        1 22A      0.248100
     13 C2'        -2.7960   -0.3220    0.2590 c3        1 22A      0.097500
     14 C3'        -4.2890   -0.2070    0.6420 c3        1 22A      0.125900
     15 C4'        -2.6010    0.1950   -1.1820 c3        1 22A      0.125900
     16 O5'        -2.6940    1.5990   -1.2750 oh        1 22A     -0.608800
     17 O6'        -4.7470    1.1290    0.6650 oh        1 22A     -0.608800
     18 HN1         3.9150    1.4330   -1.6310 hn        1 22A      0.339500
     19 H2          2.3260    2.8520   -0.5740 h5        1 22A      0.055800
     20 H8          0.1550   -3.1760    1.1860 h4        1 22A      0.174000
     21 HN1'       -1.5480    1.1720    0.8540 hn        1 22A      0.395800
     22 H10        -1.4730   -1.3950    2.3100 h1        1 22A      0.057700
     23 H10A       -0.5600    0.1220    2.7530 h1        1 22A      0.057700
     24 H2'        -2.5650   -1.4300    0.2350 h1        1 22A      0.051700
     25 H3'        -4.9140   -0.7070   -0.1450 h1        1 22A      0.046450
     26 H3'A       -4.4710   -0.6970    1.6350 h1        1 22A      0.046450
     27 H4'        -1.5670   -0.0450   -1.5490 h1        1 22A      0.046450
     28 H4'A       -3.3600   -0.2930   -1.8500 h1        1 22A      0.046450
     29 HO5'       -3.5770    1.8530   -0.9720 ho        1 22A      0.418500
     30 HO6'       -4.2770    1.5850    1.3760 ho        1 22A      0.418500
     31 H14         2.2490   -3.0540   -0.2670 hn        1 22A      0.317700
@<TRIPOS>BOND
     1    1    2 1   
     2    1    6 1   
     3    1   18 1   
     4    2    3 2   
     5    2   19 1   
     6    3    4 1   
     7    4    5 2   
     8    4   10 1   
     9    5    6 1   
    10    5    8 1   
    11    6    7 2   
    12    8    9 1   
    13    8   31 1   
    14    9   10 2   
    15    9   20 1   
    16   10   12 1   
    17   11   12 1   
    18   11   13 1   
    19   11   21 1   
    20   12   22 1   
    21   12   23 1   
    22   13   14 1   
    23   13   15 1   
    24   13   24 1   
    25   14   17 1   
    26   14   25 1   
    27   14   26 1   
    28   15   16 1   
    29   15   27 1   
    30   15   28 1   
    31   16   29 1   
    32   17   30 1   
@<TRIPOS>SUBSTRUCTURE
     1 22A         1 TEMP              0 ****  ****    0 ROOT
