@<TRIPOS>MOLECULE
22A
   32    33     1     0     0
SMALL
bcc


@<TRIPOS>ATOM
      1 N1          0.0530   -0.3660    0.0380 n         1 22A     -0.475400
      2 C2          1.4340   -0.3840    0.1600 cc        1 22A      0.518800
      3 N3          2.1360   -0.1780    1.2640 nd        1 22A     -0.657100
      4 C4          1.3860    0.0630    2.4020 cd        1 22A      0.136400
      5 C5         -0.0440    0.1230    2.3820 cc        1 22A     -0.216900
      6 C6         -0.7880   -0.1040    1.1460 c         1 22A      0.727100
      7 O6         -2.0200   -0.0820    1.0200 o         1 22A     -0.581500
      8 N7         -0.5020    0.4020    3.6640 na        1 22A     -0.102100
      9 C8          0.5870    0.5230    4.4990 cc        1 22A     -0.041300
     10 C9          1.7790    0.3130    3.7640 cd        1 22A     -0.266300
     11 N1'         4.0650    1.1340    3.4760 n4        1 22A     -0.757000
     12 C10         3.1460    0.2710    4.2900 c3        1 22A      0.229100
     13 C2'         5.4650    1.1540    4.0110 c3        1 22A      0.070500
     14 C3'         6.4630    1.5840    2.9170 c3        1 22A      0.114900
     15 C4'         5.5810    2.1020    5.2310 c3        1 22A      0.114900
     16 O5'         4.9160    3.3170    4.9910 oh        1 22A     -0.611300
     17 O6'         6.0840    2.8870    2.5130 oh        1 22A     -0.611300
     18 HN1        -0.3760   -0.5470   -0.8450 hn        1 22A      0.359500
     19 H2          2.0020   -0.5930   -0.7750 h5        1 22A      0.069800
     20 H8          0.4710    0.7400    5.5660 h4        1 22A      0.194000
     21 HN1'        3.7150    2.1060    3.4760 hn        1 22A      0.471300
     22 H10         3.1820    0.6370    5.3570 hx        1 22A      0.099200
     23 H10A        3.5530   -0.7830    4.2450 hx        1 22A      0.099200
     24 H2'         5.7340    0.1050    4.3350 hx        1 22A      0.112700
     25 H3'         6.4320    0.8810    2.0410 h1        1 22A      0.075700
     26 H3'A        7.4960    1.5820    3.3570 h1        1 22A      0.075700
     27 H4'         5.0670    1.6550    6.1260 h1        1 22A      0.075700
     28 H4'A        6.6690    2.2510    5.4570 h1        1 22A      0.075700
     29 HO5'        5.4780    3.8640    4.4200 ho        1 22A      0.443500
     30 HO6'        6.7580    3.2110    1.8980 ho        1 22A      0.443500
     31 H14        -1.4590    0.4840    3.9160 hn        1 22A      0.340700
     32 H1'2        4.0780    0.8010    2.5030 hn        1 22A      0.471300
@<TRIPOS>BOND
     1    1    2 1   
     2    1    6 1   
     3    1   18 1   
     4    2    3 2   
     5    2   19 1   
     6    3    4 1   
     7    4    5 2   
     8    4   10 1   
     9    5    6 1   
    10    5    8 1   
    11    6    7 2   
    12    8    9 1   
    13    8   31 1   
    14    9   10 2   
    15    9   20 1   
    16   10   12 1   
    17   11   12 1   
    18   11   13 1   
    19   11   21 1   
    20   11   32 1   
    21   12   22 1   
    22   12   23 1   
    23   13   14 1   
    24   13   15 1   
    25   13   24 1   
    26   14   17 1   
    27   14   25 1   
    28   14   26 1   
    29   15   16 1   
    30   15   27 1   
    31   15   28 1   
    32   16   29 1   
    33   17   30 1   
@<TRIPOS>SUBSTRUCTURE
     1 22A         1 TEMP              0 ****  ****    0 ROOT
