@<TRIPOS>MOLECULE
22A
   32    33     1     0     0
SMALL
bcc


@<TRIPOS>ATOM
      1 N1          0.0060   -0.3910    0.0940 ns        1 22A     -0.475400
      2 C2          1.3900   -0.3940    0.1880 cc        1 22A      0.518800
      3 N3          2.1110   -0.1840    1.2780 nd        1 22A     -0.657100
      4 C4          1.3820    0.0460    2.4320 cd        1 22A      0.136400
      5 C5         -0.0490    0.0900    2.4410 cc        1 22A     -0.216900
      6 C6         -0.8160   -0.1410    1.2190 c         1 22A      0.727100
      7 O6         -2.0500   -0.1320    1.1190 o         1 22A     -0.581500
      8 N7         -0.4840    0.3610    3.7330 na        1 22A     -0.102100
      9 C8          0.6210    0.4910    4.5460 cc        1 22A     -0.041300
     10 C9          1.7990    0.2970    3.7860 cd        1 22A     -0.267300
     11 N1'         4.0700    1.1450    3.4560 ny        1 22A     -0.757000
     12 C10         3.1780    0.2680    4.2850 c3        1 22A      0.229100
     13 C2'         5.4810    1.1760    3.9620 c3        1 22A      0.070500
     14 C3'         6.4490    1.6270    2.8500 c3        1 22A      0.114900
     15 C4'         5.6130    2.1150    5.1870 c3        1 22A      0.114900
     16 O5'         4.9290    3.3240    4.9730 oh        1 22A     -0.611300
     17 O6'         6.0480    2.9300    2.4660 oh        1 22A     -0.611300
     18 HN1        -0.4380   -0.5740   -0.7800 hn        1 22A      0.359500
     19 H2          1.9410   -0.5940   -0.7590 h5        1 22A      0.069800
     20 H8          0.5230    0.7040    5.6160 h4        1 22A      0.194000
     21 HN1'        3.7100    2.1130    3.4710 hn        1 22A      0.471300
     22 H10         3.2310    0.6290    5.3520 hx        1 22A      0.099200
     23 H10A        3.5950   -0.7810    4.2260 hx        1 22A      0.099200
     24 H2'         5.7680    0.1280    4.2690 hx        1 22A      0.112700
     25 H3'         6.4070    0.9320    1.9680 h1        1 22A      0.075700
     26 H3'A        7.4920    1.6330    3.2670 h1        1 22A      0.075700
     27 H4'         6.7040    2.2750    5.3900 h1        1 22A      0.075700
     28 H4'A        5.1240    1.6550    6.0890 h1        1 22A      0.075700
     29 HO5'        5.4720    3.8820    4.3950 ho        1 22A      0.443500
     30 HO6'        6.7040    3.2670    1.8400 ho        1 22A      0.443500
     31 H14        -1.4360    0.4320    4.0040 hn        1 22A      0.340700
     32 H1'2        4.0650    0.8190    2.4820 hn        1 22A      0.471300
@<TRIPOS>BOND
     1    1    2 1   
     2    1    6 1   
     3    1   18 1   
     4    2    3 2   
     5    2   19 1   
     6    3    4 1   
     7    4    5 2   
     8    4   10 1   
     9    5    6 1   
    10    5    8 1   
    11    6    7 2   
    12    8    9 1   
    13    8   31 1   
    14    9   10 2   
    15    9   20 1   
    16   10   12 1   
    17   11   12 1   
    18   11   13 1   
    19   11   21 1   
    20   11   32 1   
    21   12   22 1   
    22   12   23 1   
    23   13   14 1   
    24   13   15 1   
    25   13   24 1   
    26   14   17 1   
    27   14   25 1   
    28   14   26 1   
    29   15   16 1   
    30   15   27 1   
    31   15   28 1   
    32   16   29 1   
    33   17   30 1   
@<TRIPOS>SUBSTRUCTURE
     1 22A         1 TEMP              0 ****  ****    0 ROOT
