@<TRIPOS>MOLECULE
22C
   40    41     1     0     0
SMALL
bcc


@<TRIPOS>ATOM
      1 C10        -0.0260    0.2940   -0.1600 c3        1 22C      0.057400
      2 N12        -1.8110   -0.0680    1.5560 n         1 22C     -0.465800
      3 C13        -2.2980   -0.0200    2.9190 c3        1 22C      0.060000
      4 C17        -6.1610    1.1050    3.8910 c3        1 22C     -0.143400
      5 C20        -3.8520    1.1840    0.8160 c3        1 22C      0.064000
      6 C21        -2.8520    0.0310    0.5600 c3        1 22C      0.060000
      7 C02         3.4320   -0.0760   -1.2320 ca        1 22C      0.004400
      8 C03         4.1580   -0.2890   -2.4060 ca        1 22C     -0.096000
      9 C04         3.5100   -0.2550   -3.6440 ca        1 22C     -0.005600
     10 CL2         4.4040   -0.5240   -5.0640 cl        1 22C     -0.083400
     11 C06         2.1390   -0.0020   -3.7240 ca        1 22C     -0.092000
     12 C07         1.4090    0.2190   -2.5590 ca        1 22C     -0.188000
     13 C08         2.0460    0.1830   -1.3110 ca        1 22C      0.125100
     14 O09         1.3970    0.4380   -0.1170 os        1 22C     -0.282900
     15 C11        -0.4780    0.2570    1.2980 c         1 22C      0.650100
     16 C14        -3.3020    1.1290    3.1840 c3        1 22C      0.064000
     17 N15        -4.3300    1.2390    2.1790 n         1 22C     -0.475800
     18 C16        -5.6890    1.0940    2.4500 c         1 22C      0.658100
     19 C18        -7.6660    1.1610    3.9680 c3        1 22C     -0.088100
     20 O19        -6.4970    1.0040    1.5030 o         1 22C     -0.605100
     21 O22         0.3240    0.4400    2.2280 o         1 22C     -0.556100
     22 H1         -0.4670    1.1890   -0.6750 h1        1 22C      0.065200
     23 H2         -0.3090   -0.6530   -0.6900 h1        1 22C      0.065200
     24 H3         -2.8020   -1.0070    3.1300 h1        1 22C      0.066700
     25 H4         -1.4340    0.1010    3.6320 h1        1 22C      0.066700
     26 H5         -5.7900    0.1740    4.3970 hc        1 22C      0.063200
     27 H6         -5.7230    1.9910    4.4230 hc        1 22C      0.063200
     28 H7         -3.3480    2.1660    0.5870 h1        1 22C      0.065450
     29 H8         -4.7210    1.0560    0.1100 h1        1 22C      0.065450
     30 H9         -2.4230    0.1760   -0.4680 h1        1 22C      0.066700
     31 H10        -3.4150   -0.9480    0.5640 h1        1 22C      0.066700
     32 H11         5.2410   -0.4880   -2.3520 ha        1 22C      0.165000
     33 H12         1.6330    0.0280   -4.7010 ha        1 22C      0.152000
     34 H13         0.3330    0.4290   -2.6330 ha        1 22C      0.141000
     35 H14        -2.7370    2.1060    3.2110 h1        1 22C      0.065450
     36 H15        -3.7460    0.9580    4.2020 h1        1 22C      0.065450
     37 H16        -7.9910    1.1480    5.0360 hc        1 22C      0.047700
     38 H17        -8.1170    0.2870    3.4380 hc        1 22C      0.047700
     39 H18        -8.0480    2.0910    3.4820 hc        1 22C      0.047700
     40 CL1         4.2530   -0.1300    0.2500 cl        1 22C     -0.049400
@<TRIPOS>BOND
     1    1   14 1   
     2    1   15 1   
     3    1   22 1   
     4    1   23 1   
     5    2    3 1   
     6    2    6 1   
     7    2   15 1   
     8    3   16 1   
     9    3   24 1   
    10    3   25 1   
    11    4   18 1   
    12    4   19 1   
    13    4   26 1   
    14    4   27 1   
    15    5    6 1   
    16    5   17 1   
    17    5   28 1   
    18    5   29 1   
    19    6   30 1   
    20    6   31 1   
    21    7    8 ar  
    22    7   13 ar  
    23    7   40 1   
    24    8    9 ar  
    25    8   32 1   
    26    9   10 1   
    27    9   11 ar  
    28   11   12 ar  
    29   11   33 1   
    30   12   13 ar  
    31   12   34 1   
    32   13   14 1   
    33   15   21 2   
    34   16   17 1   
    35   16   35 1   
    36   16   36 1   
    37   17   18 1   
    38   18   20 2   
    39   19   37 1   
    40   19   38 1   
    41   19   39 1   
@<TRIPOS>SUBSTRUCTURE
     1 22C         1 TEMP              0 ****  ****    0 ROOT
