@<TRIPOS>MOLECULE
22C
   40    36     1     0     0
SMALL
bcc


@<TRIPOS>ATOM
      1 C10         2.3460   -0.7470   -0.8060 c3        1 22C     -0.035000
      2 N12         0.8440    0.2590    1.1200 n         1 22C     -0.327000
      3 C13         0.3310    0.3070    2.4510 c3        1 22C     -0.053500
      4 C17        -3.3530    2.2340    3.4730 c3        1 22C     -0.172000
      5 C20        -1.2420    1.2770    0.2830 c3        1 22C     -0.051000
      6 C21         0.2960    1.2690    0.2530 c3        1 22C     -0.053500
      7 CL1        -0.0710   -2.7990   -2.0540 cl        1 22C     -0.001000
      8 C02         1.3870   -2.6900   -3.1100 c1        1 22C     -0.072000
      9 C03         1.2900   -3.0070   -4.4780 c1        1 22C     -0.120000
     10 C04         2.4250   -2.9700   -5.2810 c1        1 22C     -0.009500
     11 CL2         2.3110   -3.3920   -6.9610 cl        1 22C     -0.005000
     12 C06         3.6680   -2.6160   -4.7280 c1        1 22C     -0.109500
     13 C07         3.7660   -2.2970   -3.3570 c1        1 22C     -0.109500
     14 C08         2.6380   -2.3340   -2.5530 c1        1 22C     -0.009500
     15 O09         2.7450   -2.0700   -1.1720 o         1 22C     -0.189000
     16 C11         1.8480   -0.7450    0.6710 c2        1 22C      0.275000
     17 C14        -1.2060    0.3150    2.4740 c3        1 22C     -0.051000
     18 N15        -1.7530    1.3250    1.6130 n         1 22C     -0.331000
     19 C16        -2.7470    2.3260    2.0620 c2        1 22C      0.301000
     20 C18        -4.5800    3.0590    3.5330 c3        1 22C     -0.206000
     21 O19        -3.1740    3.1760    1.2620 o         1 22C     -0.364000
     22 O22         2.2540   -1.5430    1.4240 o         1 22C     -0.359000
     23 H1          1.6230   -0.4450   -1.3990 h1        1 22C      0.122000
     24 H2          3.1580   -0.1040   -0.8960 h1        1 22C      0.122000
     25 H3          0.6490   -0.4710    2.9420 h1        1 22C      0.104750
     26 H4          0.6840    1.1850    2.9220 h1        1 22C      0.104750
     27 H5         -2.6890    2.5730    4.1510 hc        1 22C      0.102000
     28 H6         -3.5750    1.3100    3.6700 hc        1 22C      0.102000
     29 H7         -1.5560    2.0260   -0.1980 h1        1 22C      0.105500
     30 H8         -1.5720    0.4620   -0.1480 h1        1 22C      0.105500
     31 H9          0.6320    2.1620    0.5420 h1        1 22C      0.104750
     32 H10         0.6020    1.0920   -0.6930 h1        1 22C      0.104750
     33 H11         0.4310   -3.1600   -4.8750 ha        1 22C      0.163000
     34 H12         4.5160   -2.5890   -5.3310 ha        1 22C      0.170000
     35 H13         4.6610   -2.0410   -2.9600 ha        1 22C      0.170000
     36 H14        -1.5250   -0.5420    2.1870 h1        1 22C      0.105500
     37 H15        -1.5030    0.4740    3.3770 h1        1 22C      0.105500
     38 H16        -5.3250    2.5780    3.0630 hc        1 22C      0.087000
     39 H17        -4.4120    3.9470    3.0820 hc        1 22C      0.087000
     40 H18        -4.8220    3.2060    4.4460 hc        1 22C      0.087000
@<TRIPOS>BOND
     1    1   15 1   
     2    1   16 1   
     3    1   23 1   
     4    1   24 1   
     5    2    3 1   
     6    2    6 1   
     7    2   16 1   
     8    3   17 1   
     9    3   25 1   
    10    3   26 1   
    11    4   19 1   
    12    4   20 1   
    13    4   27 1   
    14    4   28 1   
    15    5    6 1   
    16    5   18 1   
    17    5   29 1   
    18    5   30 1   
    19    6   31 1   
    20    6   32 1   
    21    7    8 1   
    22    8    9 1   
    23    9   33 1   
    24   10   12 1   
    25   12   34 1   
    26   13   14 1   
    27   13   35 1   
    28   16   22 1   
    29   17   18 1   
    30   17   36 1   
    31   17   37 1   
    32   18   19 1   
    33   19   21 1   
    34   20   38 1   
    35   20   39 1   
    36   20   40 1   
@<TRIPOS>SUBSTRUCTURE
     1 22C         1 TEMP              0 ****  ****    0 ROOT
