@<TRIPOS>MOLECULE
22C
   40    41     1     0     0
SMALL
bcc


@<TRIPOS>ATOM
      1 C10         0.3350   -0.0110    0.0170 c3        1 22C      0.057400
      2 N12        -2.0460    0.5440    0.5530 n         1 22C     -0.465800
      3 C13        -3.1850    1.4370    0.5230 c3        1 22C      0.060000
      4 C17        -7.0590    0.1250   -0.1000 c3        1 22C     -0.143400
      5 C20        -3.4900   -1.2770   -0.3860 c3        1 22C      0.064000
      6 C21        -2.4010   -0.8540    0.6300 c3        1 22C      0.060000
      7 C02         3.8490    0.9320   -0.0310 ca        1 22C      0.004400
      8 C03         5.1050    0.3410    0.1300 ca        1 22C     -0.096000
      9 C04         5.2160   -1.0490    0.2240 ca        1 22C     -0.005600
     10 CL2         6.7480   -1.7540    0.4260 cl        1 22C     -0.083400
     11 C06         4.0810   -1.8600    0.1540 ca        1 22C     -0.092000
     12 C07         2.8270   -1.2800   -0.0130 ca        1 22C     -0.188000
     13 C08         2.7010    0.1120   -0.1040 ca        1 22C      0.125100
     14 O09         1.4960    0.7560   -0.3170 os        1 22C     -0.282900
     15 C11        -0.8170    0.9900    0.0630 c         1 22C      0.650100
     16 C14        -4.2810    1.0190   -0.4890 c3        1 22C      0.064000
     17 N15        -4.6220   -0.3800   -0.4240 n         1 22C     -0.475800
     18 C16        -5.8950   -0.8470   -0.1030 c         1 22C      0.658100
     19 C18        -8.3710   -0.6030    0.0490 c3        1 22C     -0.088100
     20 O19        -6.0620   -2.0610    0.1300 o         1 22C     -0.605100
     21 O22        -0.6550    2.1790   -0.2590 o         1 22C     -0.556100
     22 H1          0.1540   -0.7670   -0.7930 h1        1 22C      0.065200
     23 H2          0.4680   -0.5120    1.0110 h1        1 22C      0.065200
     24 H3         -3.6260    1.4520    1.5600 h1        1 22C      0.066700
     25 H4         -2.8490    2.4800    0.2620 h1        1 22C      0.066700
     26 H5         -6.9260    0.8420    0.7530 hc        1 22C      0.063200
     27 H6         -7.0600    0.7130   -1.0560 hc        1 22C      0.063200
     28 H7         -3.0370   -1.3060   -1.4190 h1        1 22C      0.065450
     29 H8         -3.8320   -2.3170   -0.1180 h1        1 22C      0.065450
     30 H9         -1.5070   -1.5140    0.4630 h1        1 22C      0.066700
     31 H10        -2.7830   -1.0470    1.6750 h1        1 22C      0.066700
     32 H11         6.0050    0.9750    0.1840 ha        1 22C      0.165000
     33 H12         4.1730   -2.9550    0.2250 ha        1 22C      0.152000
     34 H13         1.9420   -1.9280   -0.0780 ha        1 22C      0.141000
     35 H14        -5.1790    1.6660   -0.2960 h1        1 22C      0.065450
     36 H15        -3.9130    1.2380   -1.5340 h1        1 22C      0.065450
     37 H16        -8.3840   -1.1980    0.9940 hc        1 22C      0.047700
     38 H17        -9.2120    0.1320    0.0690 hc        1 22C      0.047700
     39 H18        -8.5260   -1.3090   -0.8020 hc        1 22C      0.047700
     40 CL1         3.7550    2.6210   -0.1360 cl        1 22C     -0.049400
@<TRIPOS>BOND
     1    1   14 1   
     2    1   15 1   
     3    1   22 1   
     4    1   23 1   
     5    2    3 1   
     6    2    6 1   
     7    2   15 1   
     8    3   16 1   
     9    3   24 1   
    10    3   25 1   
    11    4   18 1   
    12    4   19 1   
    13    4   26 1   
    14    4   27 1   
    15    5    6 1   
    16    5   17 1   
    17    5   28 1   
    18    5   29 1   
    19    6   30 1   
    20    6   31 1   
    21    7    8 ar  
    22    7   13 ar  
    23    7   40 1   
    24    8    9 ar  
    25    8   32 1   
    26    9   10 1   
    27    9   11 ar  
    28   11   12 ar  
    29   11   33 1   
    30   12   13 ar  
    31   12   34 1   
    32   13   14 1   
    33   15   21 2   
    34   16   17 1   
    35   16   35 1   
    36   16   36 1   
    37   17   18 1   
    38   18   20 2   
    39   19   37 1   
    40   19   38 1   
    41   19   39 1   
@<TRIPOS>SUBSTRUCTURE
     1 22C         1 TEMP              0 ****  ****    0 ROOT
