@<TRIPOS>MOLECULE
22E
   47    49     1     0     0
SMALL
bcc


@<TRIPOS>ATOM
      1 CAA         0.9010   -0.4010    0.8190 c3        1 22E     -0.201000
      2 CAB         2.9370   -4.3110    2.2110 cx        1 22E     -0.180000
      3 OAC        -1.9510   -9.3670    1.2560 o         1 22E     -0.372000
      4 OAD         6.3340    1.4110   -2.6390 o         1 22E     -0.327000
      5 CAE         0.1430  -14.0390    2.0190 c1        1 22E     -0.248000
      6 CAF        -0.2810  -13.0680    2.5750 c1        1 22E     -0.150000
      7 CAG        -1.0400  -11.8370   -2.4630 c1        1 22E     -0.063000
      8 CAH         4.1530   -0.7720   -0.9680 c1        1 22E     -0.043000
      9 CAI        -0.7870  -11.9090    3.2370 c3        1 22E     -0.129000
     10 CAJ        -1.5770  -11.0420   -1.7090 c1        1 22E     -0.143000
     11 CAK        -2.8980   -5.8560    0.0990 c2        1 22E     -0.132000
     12 CAL         3.5490   -1.3390   -0.1000 c1        1 22E     -0.191000
     13 CAM        -2.6820   -4.5300    0.1340 c2        1 22E     -0.119000
     14 CAN        -0.4160   -6.4020    0.3120 c1        1 22E     -0.010000
     15 NAO         4.8190   -0.1430   -1.9470 n         1 22E     -0.268000
     16 NAP        -0.9320   -2.7660    0.5080 n2        1 22E     -0.118000
     17 CAR        -2.0280   -9.2260    0.0270 c2        1 22E      0.341000
     18 CAS        -1.8240   -6.8580    0.3960 c3        1 22E      0.003000
     19 CAT        -2.2990  -10.2450   -0.9330 c1        1 22E      0.060000
     20 CAU         1.3600   -1.8060    0.8030 c2        1 22E      0.051000
     21 CAV         2.3040   -4.6230    0.8720 cx        1 22E     -0.135000
     22 CAW         5.7490    0.8640   -1.6970 c2        1 22E      0.273000
     23 CAX        -1.3460   -4.0180    0.3770 c2        1 22E      0.007000
     24 CAY         2.8440   -2.0330    0.9460 c3        1 22E      0.072000
     25 CAZ        -0.2250   -5.0220    0.4710 c2        1 22E     -0.238000
     26 CBA         0.4930   -2.8420    0.6810 c2        1 22E     -0.128000
     27 CBB         3.2900   -3.4780    1.0140 cx        1 22E     -0.152000
     28 CBC         0.9190   -4.2700    0.6680 c2        1 22E      0.130000
     29 HAA         0.2330   -0.2280    1.7010 hc        1 22E      0.106333
     30 HAAA        0.3060   -0.1790   -0.1050 hc        1 22E      0.106333
     31 HAAB        1.7600    0.3120    0.8710 hc        1 22E      0.106333
     32 HAB         2.6160   -5.5510    0.3460 hc        1 22E      0.167000
     33 HABA        3.6830   -5.0220    2.6080 hc        1 22E      0.125500
     34 HABB        2.3110   -3.8730    3.0090 hc        1 22E      0.125500
     35 HAF         0.0130  -11.4340    3.8610 hc        1 22E      0.102667
     36 HAG        -0.5830  -12.5320   -3.1230 ha        1 22E      0.240000
     37 HAH         4.6250   -0.4210   -2.8880 hn        1 22E      0.255000
     38 HAI        -1.6420  -12.1840    3.9080 hc        1 22E      0.102667
     39 HAJ        -1.1520  -11.1500    2.4930 hc        1 22E      0.102667
     40 HAK        -3.8890   -6.2740   -0.1360 ha        1 22E      0.148000
     41 HAL         3.1430   -1.5530    1.9340 hc        1 22E      0.132000
     42 HAM        -3.4900   -3.8020   -0.0370 ha        1 22E      0.151000
     43 HAN        -1.9550   -7.2100    1.4750 h1        1 22E      0.172000
     44 HNAO        5.9020    1.1110   -0.6230 h5        1 22E      0.148000
     45 HBB         4.2930   -3.6250    0.5610 hc        1 22E      0.142000
     46 OAQ        -2.0210   -7.9610   -0.5100 os        1 22E     -0.242000
     47 HAE         0.5180  -14.9010    1.5320 ha        1 22E      0.216000
@<TRIPOS>BOND
     1    1   20 1   
     2    1   29 1   
     3    1   30 1   
     4    1   31 1   
     5    2   21 1   
     6    2   27 1   
     7    2   33 1   
     8    2   34 1   
     9    3   17 1   
    10    4   22 1   
    11    5    6 1   
    12    5   47 1   
    13    6    9 1   
    14    7   10 1   
    15    7   36 1   
    16    8   12 1   
    17    8   15 1   
    18    9   35 1   
    19    9   38 1   
    20    9   39 1   
    21   10   19 1   
    22   11   13 1   
    23   11   18 1   
    24   11   40 1   
    25   12   24 1   
    26   13   23 1   
    27   13   42 1   
    28   14   18 1   
    29   14   25 1   
    30   15   22 1   
    31   15   37 1   
    32   16   23 1   
    33   16   26 1   
    34   17   19 1   
    35   17   46 1   
    36   18   43 1   
    37   18   46 1   
    38   20   24 1   
    39   20   26 1   
    40   21   27 1   
    41   21   28 1   
    42   21   32 1   
    43   22   44 1   
    44   23   25 1   
    45   24   27 1   
    46   24   41 1   
    47   25   28 1   
    48   26   28 1   
    49   27   45 1   
@<TRIPOS>SUBSTRUCTURE
     1 22E         1 TEMP              0 ****  ****    0 ROOT
