@<TRIPOS>MOLECULE
22E
   47    48     1     0     0
SMALL
bcc


@<TRIPOS>ATOM
      1 CAA         0.0370   -0.0830    0.4760 c3        1 22E     -0.209000
      2 CAB         3.1720   -5.0490    0.8190 c3        1 22E     -0.206000
      3 OAC        -0.2820   -9.4270    1.4310 o         1 22E     -0.328000
      4 OAD         6.6230    0.7790   -1.5750 o         1 22E     -0.335000
      5 CAE        -2.7770  -13.7310    2.4190 c2        1 22E     -0.192000
      6 CAF        -1.9420  -12.8860    2.9450 c1        1 22E     -0.157000
      7 CAG         2.1490  -11.0840   -1.6800 c1        1 22E      0.261000
      8 CAH         4.1860   -0.1220   -0.5460 c2        1 22E     -0.020000
      9 CAI        -1.1070  -12.0430    3.4700 c2        1 22E     -0.192000
     10 CAJ         0.9870  -10.7640   -1.2340 c1        1 22E     -0.527000
     11 CAK        -2.3160   -6.3780    0.0750 c2        1 22E     -0.136000
     12 CAL         2.8760   -0.2930   -0.0860 c1        1 22E      0.017000
     13 CAM        -2.4340   -5.0420    0.0140 c2        1 22E     -0.110000
     14 CAN         0.2160   -6.2650    0.3630 c1        1 22E     -0.024000
     15 NAO         4.6900   -0.5680   -1.6630 n2        1 22E     -0.284000
     16 NAP        -1.1910   -2.8730    0.2600 n2        1 22E     -0.111000
     17 CAR        -0.4280   -9.3660    0.2100 c2        1 22E      0.316000
     18 CAS        -1.0350   -7.0530    0.4630 c3        1 22E      0.008000
     19 CAT        -0.2040  -10.4450   -0.7860 c2        1 22E      0.170000
     20 CAU         0.7830   -1.3530    0.5480 c2        1 22E      0.068000
     21 CAV         2.3980   -3.7880    0.7380 c2        1 22E     -0.030000
     22 CAW         5.9470   -0.1120   -2.1110 c2        1 22E      0.215000
     23 CAX        -1.2730   -4.1970    0.2300 c2        1 22E      0.008000
     24 CAY         2.2680   -1.2720    0.7890 c3        1 22E     -0.077000
     25 CAZ         0.0580   -4.8750    0.4090 c2        1 22E     -0.230000
     26 CBA         0.1980   -2.5740    0.4560 c2        1 22E     -0.116000
     27 CBB         2.9900   -2.5760    0.8420 c2        1 22E     -0.161000
     28 CBC         0.9780   -3.8440    0.5410 c2        1 22E      0.121000
     29 HAA        -0.8600   -0.1810   -0.1870 hc        1 22E      0.115333
     30 HAAA        0.6840    0.7430    0.0850 hc        1 22E      0.115333
     31 HAAB       -0.3210    0.1980    1.5010 hc        1 22E      0.115333
     32 HAB         3.4400   -5.2630    1.8840 hc        1 22E      0.110333
     33 HABA        2.5680   -5.9120    0.4300 hc        1 22E      0.110333
     34 HABB        4.1170   -4.9700    0.2260 hc        1 22E      0.110333
     35 HAF        -0.7200  -12.1640    4.4920 ha        1 22E      0.135000
     36 HAG        -2.4430  -14.6130    1.8550 ha        1 22E      0.135000
     37 HAH         4.7320    0.6170    0.1110 h4        1 22E      0.167000
     38 HAI        -0.7370  -11.1590    2.9260 ha        1 22E      0.135000
     39 HAJ        -1.1310  -10.9620   -1.1040 ha        1 22E      0.159000
     40 HAK        -3.1650   -7.0450   -0.1380 ha        1 22E      0.146000
     41 HAL         2.3730   -0.7950    1.8320 hc        1 22E      0.194000
     42 HAM        -3.3930   -4.5510   -0.2190 ha        1 22E      0.154000
     43 HAN        -1.1090   -7.3620    1.5580 h1        1 22E      0.166000
     44 HNAO        6.2690   -0.6550   -3.0290 h5        1 22E      0.150000
     45 HBB         4.0830   -2.4970    0.9670 ha        1 22E      0.147000
     46 OAQ        -0.9260   -8.2330   -0.3650 os        1 22E     -0.241000
     47 HAE        -3.8670  -13.6140    2.5110 ha        1 22E      0.135000
@<TRIPOS>BOND
     1    1   20 1   
     2    1   29 1   
     3    1   30 1   
     4    1   31 1   
     5    2   21 1   
     6    2   32 1   
     7    2   33 1   
     8    2   34 1   
     9    3   17 1   
    10    4   22 1   
    11    5    6 1   
    12    5   36 1   
    13    5   47 1   
    14    6    9 1   
    15    7   10 1   
    16    8   12 1   
    17    8   15 1   
    18    8   37 1   
    19    9   35 1   
    20    9   38 1   
    21   10   19 1   
    22   11   13 1   
    23   11   18 1   
    24   11   40 1   
    25   12   24 1   
    26   13   23 1   
    27   13   42 1   
    28   14   18 1   
    29   14   25 1   
    30   15   22 1   
    31   16   23 1   
    32   16   26 1   
    33   17   19 1   
    34   17   46 1   
    35   18   43 1   
    36   18   46 1   
    37   19   39 1   
    38   20   24 1   
    39   20   26 1   
    40   21   27 1   
    41   21   28 1   
    42   22   44 1   
    43   23   25 1   
    44   24   27 1   
    45   24   41 1   
    46   25   28 1   
    47   26   28 1   
    48   27   45 1   
@<TRIPOS>SUBSTRUCTURE
     1 22E         1 TEMP              0 ****  ****    0 ROOT
