@<TRIPOS>MOLECULE
22E
   47    43     1     0     0
SMALL
bcc


@<TRIPOS>ATOM
      1 CAA        -1.1470    3.6220   -4.1300 c3        1 22E     -0.181000
      2 CAB         2.1160   -0.0380   -0.8220 c3        1 22E     -0.197000
      3 OAC        -2.9920   -2.5540    2.6780 o         1 22E     -0.333000
      4 OAD         3.9620    1.7100   -1.6980 o         1 22E     -0.338000
      5 CAE        -0.3100   -5.1830    5.8460 c1        1 22E     -0.114500
      6 CAF         0.3000   -4.8460    4.6380 c1        1 22E     -0.114500
      7 CAG        -1.4290   -4.4810    6.2790 c1        1 22E     -0.114500
      8 CAH         3.4730    3.0440   -5.0220 c1        1 22E     -0.114500
      9 CAI        -0.2120   -3.8070    3.8650 c1        1 22E     -0.068000
     10 CAJ        -1.9430   -3.4370    5.5020 c1        1 22E     -0.114500
     11 CAK        -3.1460    0.0110    1.3810 c1        1 22E     -0.131000
     12 CAL         1.8280    3.1570   -4.9480 c1        1 22E     -0.114500
     13 CAM        -3.3120    0.8010    0.2160 c1        1 22E     -0.076000
     14 CAN        -0.6820    0.0820    1.0990 c1        1 22E     -0.098000
     15 NAO         4.1820    2.3090   -3.8670 n2        1 22E     -0.325000
     16 NAP        -1.9690    2.1520   -1.5890 n1        1 22E     -0.097000
     17 OAQ        -1.5470   -0.8840    3.1010 os        1 22E     -0.233000
     18 CAR        -2.0230   -2.1720    3.2910 c2        1 22E      0.355000
     19 CAS        -1.8290   -0.3510    1.8260 c1        1 22E      0.058000
     20 CAT        -1.3360   -3.1020    4.2980 c1        1 22E     -0.118000
     21 CAU        -0.2650    2.7840   -3.2940 c2        1 22E     -0.026000
     22 CAV         1.3860    0.9790   -1.6060 c2        1 22E      0.014000
     23 CAW         3.4220    1.9330   -2.7850 c2        1 22E      0.314000
     24 CAX        -2.2080    1.2230   -0.4920 c1        1 22E     -0.050000
     25 CAY         1.1220    2.3350   -3.8340 c1        1 22E     -0.061000
     26 CAZ        -0.8320    0.8450   -0.0260 c2        1 22E     -0.063000
     27 CBA        -0.7190    2.3690   -1.8400 c2        1 22E      0.020000
     28 CBB         1.9450    1.4390   -3.0520 c3        1 22E     -0.061000
     29 CBC         0.1550    1.6650   -1.0100 c2        1 22E     -0.107000
     30 HAA        -0.8830    4.5620   -4.0430 hc        1 22E      0.094333
     31 HAAA       -1.0660    3.3470   -5.0650 hc        1 22E      0.094333
     32 HAAB       -2.0610    3.5160   -3.8420 hc        1 22E      0.094333
     33 HAB         2.2500    0.2910    0.0980 hc        1 22E      0.102333
     34 HABA        3.0170   -0.2140   -1.2510 hc        1 22E      0.102333
     35 HABB        1.5820   -0.8880   -0.8000 hc        1 22E      0.102333
     36 HAE         0.0390   -5.8900    6.3730 ha        1 22E      0.147333
     37 HAF         1.0850   -5.3380    4.3330 ha        1 22E      0.147333
     38 HAG        -1.8580   -4.7170    7.1290 ha        1 22E      0.147333
     39 HAH         3.9880    3.6600   -5.6090 ha        1 22E      0.147333
     40 HAI         0.2030   -3.5800    3.0450 ha        1 22E      0.156000
     41 HAJ        -2.7020   -2.9610    5.7960 ha        1 22E      0.147333
     42 HAK        -3.9030   -0.2800    1.8640 ha        1 22E      0.157000
     43 HAL         1.3150    3.4530   -5.7510 ha        1 22E      0.147333
     44 HAM        -4.2420    1.0550   -0.0960 ha        1 22E      0.153000
     45 HAN         0.2090   -0.1670    1.4030 ha        1 22E      0.151000
     46 HNAO        5.0130    1.9370   -3.9980 hn        1 22E      0.247000
     47 HBB         2.0260    0.6090   -3.5910 hc        1 22E      0.149000
@<TRIPOS>BOND
     1    1   21 1   
     2    1   30 1   
     3    1   31 1   
     4    1   32 1   
     5    2   22 1   
     6    2   33 1   
     7    2   34 1   
     8    2   35 1   
     9    3   18 1   
    10    4   23 1   
    11    5    6 1   
    12    5   36 1   
    13    6   37 1   
    14    7   10 1   
    15    7   38 1   
    16    8   12 1   
    17    8   39 1   
    18    9   20 1   
    19    9   40 1   
    20   10   41 1   
    21   11   19 1   
    22   11   42 1   
    23   12   43 1   
    24   13   24 1   
    25   13   44 1   
    26   14   26 1   
    27   14   45 1   
    28   15   23 1   
    29   15   46 1   
    30   16   27 1   
    31   17   18 1   
    32   17   19 1   
    33   18   20 1   
    34   21   25 1   
    35   21   27 1   
    36   22   28 1   
    37   22   29 1   
    38   23   28 1   
    39   24   26 1   
    40   25   28 1   
    41   26   29 1   
    42   27   29 1   
    43   28   47 1   
@<TRIPOS>SUBSTRUCTURE
     1 22E         1 TEMP              0 ****  ****    0 ROOT
