@<TRIPOS>MOLECULE
22E
   47    51     1     0     0
SMALL
bcc


@<TRIPOS>ATOM
      1 CAA         4.9500    2.5640    0.2260 c3        1 22E     -0.058900
      2 CAB         1.3460   -2.0080   -0.6410 c3        1 22E     -0.075900
      3 OAC        -2.9680   -0.8420    1.2120 o         1 22E     -0.522000
      4 OAD         3.3830   -3.1500    0.7700 o         1 22E     -0.610500
      5 CAE        -7.8180   -1.2380   -0.2910 ca        1 22E     -0.095000
      6 CAF        -7.0750   -1.9580    0.6450 ca        1 22E     -0.147000
      7 CAG        -7.2290   -0.1850   -0.9920 ca        1 22E     -0.147000
      8 CAH         6.3980   -1.3720    0.2850 c2        1 22E     -0.007400
      9 CAI        -5.7430   -1.6290    0.8840 ca        1 22E     -0.070000
     10 CAJ        -5.8960    0.1520   -0.7600 ca        1 22E     -0.070000
     11 CAK        -1.8250    2.6650    0.1120 ca        1 22E     -0.131000
     12 CAL         5.9680   -0.1400   -0.0810 ce        1 22E     -0.216000
     13 CAM        -0.5460    3.2270    0.1750 ca        1 22E     -0.080000
     14 CAN        -0.8820    0.4080   -0.1760 ca        1 22E     -0.099000
     15 NAO         5.5220   -2.4210    0.5370 n         1 22E     -0.481100
     16 NAP         1.9410    2.7380    0.1190 nc        1 22E     -0.527100
     17 CAR        -3.7420   -0.2540    0.4570 c         1 22E      0.653700
     18 CAS        -1.9780    1.2850   -0.0680 ca        1 22E      0.104100
     19 CAT        -5.1510   -0.5710    0.1790 ca        1 22E     -0.138600
     20 CAU         4.0580    1.4020    0.0020 cf        1 22E     -0.117800
     21 CAV         2.2130   -0.8340   -0.3970 c2        1 22E      0.009600
     22 CAW         4.1460   -2.2670    0.3470 c         1 22E      0.706500
     23 CAX         0.5570    2.3870    0.0650 ca        1 22E      0.091400
     24 CAY         4.5460    0.1460   -0.1720 ce        1 22E     -0.063200
     25 CAZ         0.3810    0.9610   -0.1180 ca        1 22E     -0.070800
     26 CBA         2.6200    1.6080   -0.0140 cd        1 22E      0.482900
     27 CBB         3.6930   -1.0540   -0.4700 c3        1 22E     -0.064300
     28 CBC         1.7340    0.4040   -0.1900 cd        1 22E     -0.183800
     29 HAA         5.5080    2.8010   -0.7160 hc        1 22E      0.054367
     30 HAAA        4.3850    3.4770    0.5340 hc        1 22E      0.054367
     31 HAAB        5.6970    2.3330    1.0270 hc        1 22E      0.054367
     32 HAB         0.9860   -2.4170    0.3390 hc        1 22E      0.064700
     33 HABA        0.4600   -1.7250   -1.2610 hc        1 22E      0.064700
     34 HABB        1.9050   -2.8230   -1.1640 hc        1 22E      0.064700
     35 HAF        -7.5410   -2.7880    1.1980 ha        1 22E      0.140500
     36 HAG        -7.8150    0.3820   -1.7300 ha        1 22E      0.140500
     37 HAH         7.4690   -1.6190    0.4030 h4        1 22E      0.153000
     38 HAI        -5.1450   -2.1910    1.6200 ha        1 22E      0.157000
     39 HAJ        -5.4250    0.9820   -1.3100 ha        1 22E      0.157000
     40 HAK        -2.7160    3.3040    0.1940 ha        1 22E      0.148000
     41 HAL         6.6800    0.6690   -0.2880 ha        1 22E      0.154000
     42 HAM        -0.4220    4.3110    0.3170 ha        1 22E      0.152000
     43 HAN        -1.0490   -0.6740   -0.2720 ha        1 22E      0.159000
     44 HNAO        5.8410   -3.2090    1.0540 hn        1 22E      0.333500
     45 HBB         3.9080   -1.3340   -1.5540 hc        1 22E      0.109700
     46 OAQ        -3.2890    0.8440   -0.2450 os        1 22E     -0.368200
     47 HAE        -8.8700   -1.5010   -0.4770 ha        1 22E      0.137000
@<TRIPOS>BOND
     1    1   20 1   
     2    1   29 1   
     3    1   30 1   
     4    1   31 1   
     5    2   21 1   
     6    2   32 1   
     7    2   33 1   
     8    2   34 1   
     9    3   17 2   
    10    4   22 2   
    11    5    6 ar  
    12    5    7 ar  
    13    5   47 1   
    14    6    9 ar  
    15    6   35 1   
    16    7   10 ar  
    17    7   36 1   
    18    8   12 2   
    19    8   15 1   
    20    8   37 1   
    21    9   19 ar  
    22    9   38 1   
    23   10   19 ar  
    24   10   39 1   
    25   11   13 ar  
    26   11   18 ar  
    27   11   40 1   
    28   12   24 1   
    29   12   41 1   
    30   13   23 ar  
    31   13   42 1   
    32   14   18 ar  
    33   14   25 ar  
    34   14   43 1   
    35   15   22 1   
    36   15   44 1   
    37   16   23 1   
    38   16   26 2   
    39   17   19 1   
    40   17   46 1   
    41   18   46 1   
    42   20   24 2   
    43   20   26 1   
    44   21   27 1   
    45   21   28 2   
    46   22   27 1   
    47   23   25 ar  
    48   24   27 1   
    49   25   28 1   
    50   26   28 1   
    51   27   45 1   
@<TRIPOS>SUBSTRUCTURE
     1 22E         1 TEMP              0 ****  ****    0 ROOT
