@<TRIPOS>MOLECULE
22E
   47    48     1     0     0
SMALL
bcc


@<TRIPOS>ATOM
      1 CAA         0.3530   -0.1030    0.0650 c3        1 22E     -0.209000
      2 CAB         2.3190   -5.4940    1.3610 c3        1 22E     -0.205000
      3 OAC        -1.8260   -9.1370    1.1600 o         1 22E     -0.330000
      4 OAD         7.2900   -0.5430   -0.1640 o         1 22E     -0.335000
      5 CAE         1.6270  -12.6880    2.5620 c2        1 22E     -0.191500
      6 CAF         0.7040  -11.8940    3.0140 c1        1 22E     -0.157000
      7 CAG        -3.2630  -11.8460   -1.9600 c1        1 22E      0.257000
      8 CAH         4.5450   -0.9300    0.1900 c2        1 22E     -0.020000
      9 CAI        -0.2200  -11.1010    3.4640 c2        1 22E     -0.191500
     10 CAJ        -2.3600  -11.0930   -1.4430 c1        1 22E     -0.537000
     11 CAK        -2.9390   -5.9130   -0.7900 c2        1 22E     -0.132000
     12 CAL         3.1520   -0.8390    0.2860 c1        1 22E      0.018000
     13 CAM        -2.7880   -4.5840   -0.9170 c2        1 22E     -0.112000
     14 CAN        -0.5890   -6.2160    0.1470 c1        1 22E     -0.031000
     15 NAO         5.2300   -1.5370   -0.7380 n2        1 22E     -0.285000
     16 NAP        -1.2700   -2.6490   -0.4020 n2        1 22E     -0.111000
     17 CAR        -1.7170   -9.1570   -0.0660 c2        1 22E      0.315000
     18 CAS        -1.9490   -6.7660   -0.0580 c3        1 22E      0.007000
     19 CAT        -1.4250  -10.3340   -0.9240 c2        1 22E      0.176000
     20 CAU         0.8080   -1.4740    0.3650 c2        1 22E      0.068000
     21 CAV         1.8400   -4.1290    1.0420 c2        1 22E     -0.031000
     22 CAW         6.6220   -1.3370   -0.8430 c2        1 22E      0.215000
     23 CAX        -1.5850   -3.9380   -0.4210 c2        1 22E      0.009000
     24 CAY         2.1680   -1.6300    0.9930 c3        1 22E     -0.077000
     25 CAZ        -0.4930   -4.8200    0.1220 c2        1 22E     -0.229000
     26 CBA         0.0520   -2.5800    0.1490 c2        1 22E     -0.115000
     27 CBB         2.5980   -3.0320    1.2720 c2        1 22E     -0.160000
     28 CBC         0.5350   -3.9550    0.4700 c2        1 22E      0.120000
     29 HAA        -0.2060    0.3060    0.9460 hc        1 22E      0.116000
     30 HAAA        1.2210    0.5700   -0.1530 hc        1 22E      0.116000
     31 HAAB       -0.3380   -0.0950   -0.8160 hc        1 22E      0.116000
     32 HAB         2.2530   -5.6720    2.4650 hc        1 22E      0.109000
     33 HABA        1.6900   -6.2670    0.8440 hc        1 22E      0.109000
     34 HABB        3.3840   -5.6220    1.0470 hc        1 22E      0.109000
     35 HAF        -0.4930  -11.0670    4.5290 ha        1 22E      0.135000
     36 HAG         2.6820  -12.3860    2.5000 ha        1 22E      0.135000
     37 HAH         5.0290   -0.2460    0.9490 h4        1 22E      0.167000
     38 HAI        -0.7850  -10.4170    2.8100 ha        1 22E      0.135000
     39 HAJ        -0.3410  -10.5160   -1.0670 ha        1 22E      0.166000
     40 HAK        -3.8130   -6.4400   -1.2040 ha        1 22E      0.151000
     41 HAL         2.0870   -1.1020    2.0130 hc        1 22E      0.194000
     42 HAM        -3.5450   -3.9540   -1.4100 ha        1 22E      0.155000
     43 HAN        -2.3540   -6.9690    0.9890 h1        1 22E      0.166000
     44 HNAO        7.0640   -1.9870   -1.6330 h5        1 22E      0.149000
     45 HBB         3.6150   -3.1320    1.6850 ha        1 22E      0.147000
     46 OAQ        -1.8600   -8.0090   -0.7890 os        1 22E     -0.237000
     47 HAE         1.4070  -13.7080    2.2170 ha        1 22E      0.135000
@<TRIPOS>BOND
     1    1   20 1   
     2    1   29 1   
     3    1   30 1   
     4    1   31 1   
     5    2   21 1   
     6    2   32 1   
     7    2   33 1   
     8    2   34 1   
     9    3   17 1   
    10    4   22 1   
    11    5    6 1   
    12    5   36 1   
    13    5   47 1   
    14    6    9 1   
    15    7   10 1   
    16    8   12 1   
    17    8   15 1   
    18    8   37 1   
    19    9   35 1   
    20    9   38 1   
    21   10   19 1   
    22   11   13 1   
    23   11   18 1   
    24   11   40 1   
    25   12   24 1   
    26   13   23 1   
    27   13   42 1   
    28   14   18 1   
    29   14   25 1   
    30   15   22 1   
    31   16   23 1   
    32   16   26 1   
    33   17   19 1   
    34   17   46 1   
    35   18   43 1   
    36   18   46 1   
    37   19   39 1   
    38   20   24 1   
    39   20   26 1   
    40   21   27 1   
    41   21   28 1   
    42   22   44 1   
    43   23   25 1   
    44   24   27 1   
    45   24   41 1   
    46   25   28 1   
    47   26   28 1   
    48   27   45 1   
@<TRIPOS>SUBSTRUCTURE
     1 22E         1 TEMP              0 ****  ****    0 ROOT
