@<TRIPOS>MOLECULE
22F
   23    20     1     0     0
SMALL
bcc


@<TRIPOS>ATOM
      1 F15        -4.8230    0.9620    0.5050 f         1 22F     -0.098000
      2 C12        -3.4850    0.9110    0.4840 c2        1 22F      0.121000
      3 C11        -2.7840    0.6050    1.6400 c2        1 22F     -0.180000
      4 C10        -1.3980    0.5820    1.6240 c1        1 22F     -0.050000
      5 C13        -2.8000    1.1940   -0.6880 c1        1 22F     -0.182000
      6 C14        -1.4140    1.1710   -0.7030 c1        1 22F     -0.065000
      7 C9         -0.7130    0.8650    0.4530 c1        1 22F     -0.169000
      8 C7          0.8000    0.9010    0.4520 c2        1 22F      0.307000
      9 O8          1.3850    1.8520    0.9310 o         1 22F     -0.278000
     10 C1          1.5840   -0.2450   -0.1500 c2        1 22F     -0.107000
     11 C6          1.6870   -1.4280    0.5220 c2        1 22F     -0.151000
     12 C5          2.4710   -2.4500    0.0100 c1        1 22F     -0.079000
     13 N4          3.1400   -2.2730   -1.1640 n1        1 22F     -0.121000
     14 C3          3.0380   -1.0920   -1.8360 c1        1 22F     -0.078000
     15 C2          2.2550   -0.0690   -1.3260 c1        1 22F     -0.134000
     16 H11        -3.2670    0.4060    2.4650 ha        1 22F      0.156000
     17 H10        -0.9050    0.3670    2.4390 ha        1 22F      0.160000
     18 H13        -3.2930    1.4100   -1.5020 ha        1 22F      0.155000
     19 H14        -0.9310    1.3700   -1.5280 ha        1 22F      0.148000
     20 H6          1.2080   -1.5550    1.3630 ha        1 22F      0.152000
     21 H5          2.5440   -3.2960    0.4910 ha        1 22F      0.164000
     22 H3          3.5180   -0.9670   -2.6770 ha        1 22F      0.166000
     23 H2          2.1820    0.7770   -1.8070 ha        1 22F      0.161000
@<TRIPOS>BOND
     1    1    2 1   
     2    2    3 1   
     3    2    5 1   
     4    3    4 1   
     5    3   16 1   
     6    4   17 1   
     7    5   18 1   
     8    6    7 1   
     9    6   19 1   
    10    7    8 1   
    11    8    9 1   
    12    8   10 1   
    13   10   11 1   
    14   10   15 1   
    15   11   12 1   
    16   11   20 1   
    17   12   21 1   
    18   13   14 1   
    19   14   22 1   
    20   15   23 1   
@<TRIPOS>SUBSTRUCTURE
     1 22F         1 TEMP              0 ****  ****    0 ROOT
