@<TRIPOS>MOLECULE
22F
   23    24     1     0     0
SMALL
bcc


@<TRIPOS>ATOM
      1 F15        -4.5910    1.0170    0.2890 f         1 22F     -0.132900
      2 C12        -3.3530    0.4820    0.1950 ca        1 22F      0.155900
      3 C11        -2.2480    1.1750    0.7280 ca        1 22F     -0.181000
      4 C10        -0.9770    0.6220    0.6220 ca        1 22F     -0.057500
      5 C13        -3.1730   -0.7660   -0.4320 ca        1 22F     -0.181000
      6 C14        -1.8960   -1.3070   -0.5200 ca        1 22F     -0.057500
      7 C9         -0.7890   -0.6160   -0.0050 ca        1 22F     -0.189600
      8 C7          0.5490   -1.2360   -0.1100 c         1 22F      0.587300
      9 O8          0.6860   -2.4630   -0.2010 o         1 22F     -0.517100
     10 C1          1.7280   -0.3380   -0.1030 ca        1 22F     -0.127600
     11 C6          2.8910   -0.7280    0.5740 ca        1 22F     -0.207800
     12 C5          4.0030    0.1330    0.5470 ca        1 22F      0.386700
     13 N4          4.0160    1.3110   -0.1070 nb        1 22F     -0.647000
     14 C3          2.8950    1.6660   -0.7630 ca        1 22F      0.386700
     15 C2          1.7270    0.8820   -0.7890 ca        1 22F     -0.207800
     16 H11        -2.4010    2.1440    1.2240 ha        1 22F      0.155500
     17 H10        -0.1140    1.1620    1.0420 ha        1 22F      0.154000
     18 H13        -4.0420   -1.3020   -0.8400 ha        1 22F      0.155500
     19 H14        -1.7420   -2.2910   -0.9940 ha        1 22F      0.154000
     20 H6          2.9330   -1.6910    1.1030 ha        1 22F      0.156500
     21 H5          4.9370   -0.1360    1.0730 h4        1 22F      0.028100
     22 H3          2.9370    2.6320   -1.2980 h4        1 22F      0.028100
     23 H2          0.8400    1.2200   -1.3430 ha        1 22F      0.156500
@<TRIPOS>BOND
     1    1    2 1   
     2    2    3 ar  
     3    2    5 ar  
     4    3    4 ar  
     5    3   16 1   
     6    4    7 ar  
     7    4   17 1   
     8    5    6 ar  
     9    5   18 1   
    10    6    7 ar  
    11    6   19 1   
    12    7    8 1   
    13    8    9 2   
    14    8   10 1   
    15   10   11 ar  
    16   10   15 ar  
    17   11   12 ar  
    18   11   20 1   
    19   12   13 ar  
    20   12   21 1   
    21   13   14 ar  
    22   14   15 ar  
    23   14   22 1   
    24   15   23 1   
@<TRIPOS>SUBSTRUCTURE
     1 22F         1 TEMP              0 ****  ****    0 ROOT
