@<TRIPOS>MOLECULE
22F
   23    24     1     0     0
SMALL
bcc


@<TRIPOS>ATOM
      1 F15        -0.0140   -0.2160    0.0470 f         1 22F     -0.132900
      2 C12         1.3370   -0.1370    0.0300 ca        1 22F      0.155900
      3 C11         2.0600   -0.2500    1.2330 ca        1 22F     -0.181000
      4 C10         3.4470   -0.1610    1.2080 ca        1 22F     -0.057500
      5 C13         2.0130    0.0560   -1.1900 ca        1 22F     -0.181000
      6 C14         3.4010    0.1330   -1.1950 ca        1 22F     -0.057500
      7 C9          4.1270    0.0360    0.0010 ca        1 22F     -0.189600
      8 C7          5.6020    0.1100   -0.0540 c         1 22F      0.587300
      9 O8          6.2260   -0.1950   -1.0790 o         1 22F     -0.517100
     10 C1          6.3160    0.5660    1.1620 ca        1 22F     -0.127600
     11 C6          7.5310   -0.0350    1.5180 ca        1 22F     -0.207800
     12 C5          8.1980    0.4310    2.6650 ca        1 22F      0.386700
     13 N4          7.7400    1.4360    3.4360 nb        1 22F     -0.647000
     14 C3          6.5780    2.0120    3.0740 ca        1 22F      0.386700
     15 C2          5.8280    1.6140    1.9520 ca        1 22F     -0.207800
     16 H11         1.5220   -0.4090    2.1790 ha        1 22F      0.155500
     17 H10         4.0130   -0.2530    2.1500 ha        1 22F      0.154000
     18 H13         1.4400    0.1370   -2.1250 ha        1 22F      0.155500
     19 H14         3.9450    0.2670   -2.1450 ha        1 22F      0.154000
     20 H6          7.9540   -0.8440    0.9060 ha        1 22F      0.156500
     21 H5          9.1560   -0.0210    2.9820 h4        1 22F      0.028100
     22 H3          6.2300    2.8390    3.7190 h4        1 22F      0.028100
     23 H2          4.8860    2.1210    1.7010 ha        1 22F      0.156500
@<TRIPOS>BOND
     1    1    2 1   
     2    2    3 ar  
     3    2    5 ar  
     4    3    4 ar  
     5    3   16 1   
     6    4    7 ar  
     7    4   17 1   
     8    5    6 ar  
     9    5   18 1   
    10    6    7 ar  
    11    6   19 1   
    12    7    8 1   
    13    8    9 2   
    14    8   10 1   
    15   10   11 ar  
    16   10   15 ar  
    17   11   12 ar  
    18   11   20 1   
    19   12   13 ar  
    20   12   21 1   
    21   13   14 ar  
    22   14   15 ar  
    23   14   22 1   
    24   15   23 1   
@<TRIPOS>SUBSTRUCTURE
     1 22F         1 TEMP              0 ****  ****    0 ROOT
