@<TRIPOS>MOLECULE
22G
   44    45     1     0     0
SMALL
bcc


@<TRIPOS>ATOM
      1 CD1        -3.2150    1.2150   -1.2240 ca        1 22G     -0.104500
      2 CE1        -3.7350    2.4900   -1.0150 ca        1 22G     -0.187500
      3 CZ         -4.6150    2.7030    0.0530 ca        1 22G      0.091100
      4 OH         -5.1750    3.9390    0.3190 oh        1 22G     -0.513100
      5 CE2        -4.9730    1.6520    0.9100 ca        1 22G     -0.187500
      6 CD2        -4.4410    0.3870    0.6840 ca        1 22G     -0.104500
      7 CG         -3.5600    0.1510   -0.3820 ca        1 22G     -0.080300
      8 CB         -3.0040   -1.2080   -0.6150 c3        1 22G     -0.037100
      9 CA         -1.7320   -1.4850    0.1980 c3        1 22G      0.051500
     10 C1         -1.3530   -3.0010    0.0210 c         1 22G      0.929600
     11 O          -0.5470   -3.4880    0.8620 o         1 22G     -0.832800
     12 NAA        -0.6470   -0.5820   -0.1730 n3        1 22G     -0.800200
     13 CAN         0.5110   -0.6830    0.6870 c3        1 22G      0.110800
     14 CAU         1.7820   -0.0500    0.0540 c3        1 22G      0.160500
     15 N           1.6300    1.3240   -0.3950 n3        1 22G     -0.906800
     16 CAO         2.9110   -0.1940    1.0910 c3        1 22G     -0.037100
     17 CAS         4.2560    0.0350    0.5010 ca        1 22G     -0.051300
     18 CAH         4.7800    1.3310    0.3990 ca        1 22G     -0.120000
     19 CAF         6.0480    1.5380   -0.1390 ca        1 22G     -0.139000
     20 CAE         6.8080    0.4550   -0.5820 ca        1 22G     -0.147000
     21 CAG         6.2910   -0.8370   -0.4890 ca        1 22G     -0.139000
     22 CAI         5.0220   -1.0470    0.0480 ca        1 22G     -0.120000
     23 H1         -2.5200    1.0370   -2.0600 ha        1 22G      0.140500
     24 H2         -3.4600    3.3200   -1.6800 ha        1 22G      0.128000
     25 H3         -4.8260    4.5600   -0.3350 ho        1 22G      0.407000
     26 H4         -5.6620    1.8400    1.7440 ha        1 22G      0.128000
     27 H5         -4.7100   -0.4460    1.3520 ha        1 22G      0.140500
     28 H6         -3.7550   -1.9910   -0.3230 hc        1 22G      0.070700
     29 H7         -2.7790   -1.3640   -1.7040 hc        1 22G      0.070700
     30 H8         -1.9920   -1.3560    1.2940 h1        1 22G      0.002700
     31 O1         -1.9090   -3.6470   -0.9040 o         1 22G     -0.832800
     32 H10        -0.9960    0.3620   -0.1580 hn        1 22G      0.314800
     33 H12         0.3410   -0.1960    1.6930 h1        1 22G      0.056700
     34 H13         0.7190   -1.7800    0.8710 h1        1 22G      0.056700
     35 H14         2.0620   -0.6670   -0.8510 h1        1 22G      0.074700
     36 H15         1.0640    1.3430   -1.2220 hn        1 22G      0.338800
     37 H16         1.1690    1.8650    0.3120 hn        1 22G      0.338800
     38 H18         2.7430    0.5200    1.9400 hc        1 22G      0.050700
     39 H19         2.8560   -1.2350    1.5110 hc        1 22G      0.050700
     40 H20         4.1720    2.1860    0.7300 ha        1 22G      0.137500
     41 H21         6.4490    2.5580   -0.2190 ha        1 22G      0.118500
     42 H22         7.8080    0.6200   -1.0060 ha        1 22G      0.116000
     43 H23         6.8830   -1.6920   -0.8440 ha        1 22G      0.118500
     44 H24         4.6130   -2.0670    0.1130 ha        1 22G      0.137500
@<TRIPOS>BOND
     1    1    2 ar  
     2    1    7 ar  
     3    1   23 1   
     4    2    3 ar  
     5    2   24 1   
     6    3    4 1   
     7    3    5 ar  
     8    4   25 1   
     9    5    6 ar  
    10    5   26 1   
    11    6    7 ar  
    12    6   27 1   
    13    7    8 1   
    14    8    9 1   
    15    8   28 1   
    16    8   29 1   
    17    9   10 1   
    18    9   12 1   
    19    9   30 1   
    20   10   11 1   
    21   10   31 1   
    22   12   13 1   
    23   12   32 1   
    24   13   14 1   
    25   13   33 1   
    26   13   34 1   
    27   14   15 1   
    28   14   16 1   
    29   14   35 1   
    30   15   36 1   
    31   15   37 1   
    32   16   17 1   
    33   16   38 1   
    34   16   39 1   
    35   17   18 ar  
    36   17   22 ar  
    37   18   19 ar  
    38   18   40 1   
    39   19   20 ar  
    40   19   41 1   
    41   20   21 ar  
    42   20   42 1   
    43   21   22 ar  
    44   21   43 1   
    45   22   44 1   
@<TRIPOS>SUBSTRUCTURE
     1 22G         1 TEMP              0 ****  ****    0 ROOT
