@<TRIPOS>MOLECULE
22G
   44    39     1     0     0
SMALL
bcc


@<TRIPOS>ATOM
      1 CD1         2.7740    3.9460    1.2680 c1        1 22G     -0.114000
      2 CE1         3.2090    4.8100    2.2810 c1        1 22G     -0.173000
      3 CZ          2.3750    5.0940    3.3600 c1        1 22G      0.046000
      4 OH          2.8080    6.0180    4.3840 o         1 22G     -0.273000
      5 CE2         1.1120    4.5210    3.4320 c2        1 22G     -0.213000
      6 CD2         0.6770    3.6570    2.4180 c1        1 22G     -0.088000
      7 CG          1.5140    3.3730    1.3370 c1        1 22G     -0.079000
      8 CB          0.9860    2.4880    0.1380 c3        1 22G     -0.107000
      9 CA          0.8810    1.0110    0.5850 c3        1 22G     -0.113000
     10 C1         -0.3720    0.8150    1.3800 c2        1 22G      0.304000
     11 O          -1.5010    1.0760    0.8600 o         1 22G     -0.573500
     12 NAA         0.8510    0.1730   -0.5600 n3        1 22G     -0.289000
     13 CAN         0.8260   -1.2180   -0.1410 c3        1 22G     -0.099000
     14 CAU         0.1440   -2.0630   -1.2140 c3        1 22G     -0.073000
     15 N           1.1390   -2.7960   -1.9500 n3        1 22G     -0.354000
     16 CAO        -0.8040   -3.0170   -0.5690 c3        1 22G     -0.114000
     17 CAS        -1.9370   -3.3570   -1.5530 c1        1 22G     -0.034000
     18 CAH        -2.0690   -4.6490   -2.0460 c1        1 22G     -0.143750
     19 CAF        -3.0780   -4.9420   -2.9650 c1        1 22G     -0.143750
     20 CAE        -3.9520   -3.9390   -3.3870 c1        1 22G     -0.143750
     21 CAG        -3.8180   -2.6490   -2.8930 c1        1 22G     -0.143750
     22 CAI        -2.8140   -2.3540   -1.9780 c1        1 22G     -0.099000
     23 H1          3.3490    3.7500    0.5240 ha        1 22G      0.123000
     24 H2          4.0890    5.2080    2.2330 ha        1 22G      0.129000
     25 H3          3.1910    5.5600    5.0610 ho        1 22G      0.206000
     26 H4          0.5230    4.7220    4.1940 ha        1 22G      0.124000
     27 H5         -0.2170    3.2510    2.4680 ha        1 22G      0.207000
     28 H6          1.6270    2.5590   -0.6370 hc        1 22G      0.090500
     29 H7          0.1040    2.8080   -0.1390 hc        1 22G      0.090500
     30 H8          1.6680    0.7780    1.1450 h1        1 22G      0.091000
     31 O1         -0.3000    0.4520    2.5970 o         1 22G     -0.573500
     32 H10         0.0940    0.3590   -1.0580 hn        1 22G      0.158000
     33 H12         0.3160   -1.2980    0.7210 h1        1 22G      0.070500
     34 H13         1.7580   -1.5400   -0.0070 h1        1 22G      0.070500
     35 H14        -0.3550   -1.4710   -1.8320 h1        1 22G      0.129000
     36 H15         1.9180   -2.3160   -1.9690 hn        1 22G      0.160500
     37 H16         1.2870   -3.6090   -1.5410 hn        1 22G      0.160500
     38 H18        -0.3260   -3.8370   -0.3230 hc        1 22G      0.076000
     39 H19        -1.1850   -2.6040    0.2400 hc        1 22G      0.076000
     40 H20        -1.4900   -5.3770   -1.6960 ha        1 22G      0.116750
     41 H21        -3.1740   -5.8540   -3.3150 ha        1 22G      0.116750
     42 H22        -4.6880   -4.1560   -4.0040 ha        1 22G      0.116750
     43 H23        -4.4350   -1.9420   -3.1920 ha        1 22G      0.116750
     44 H24        -2.7030   -1.4420   -1.6540 ha        1 22G      0.166000
@<TRIPOS>BOND
     1    1    7 1   
     2    1   23 1   
     3    2    3 1   
     4    2   24 1   
     5    3    5 1   
     6    4   25 1   
     7    5    6 1   
     8    5   26 1   
     9    6   27 1   
    10    7    8 1   
    11    8    9 1   
    12    8   28 1   
    13    8   29 1   
    14    9   10 1   
    15    9   12 1   
    16    9   30 1   
    17   10   11 1   
    18   10   31 1   
    19   12   13 1   
    20   12   32 1   
    21   13   14 1   
    22   13   33 1   
    23   13   34 1   
    24   14   15 1   
    25   14   16 1   
    26   14   35 1   
    27   15   36 1   
    28   15   37 1   
    29   16   17 1   
    30   16   38 1   
    31   16   39 1   
    32   17   22 1   
    33   18   19 1   
    34   18   40 1   
    35   19   41 1   
    36   20   21 1   
    37   20   42 1   
    38   21   43 1   
    39   22   44 1   
@<TRIPOS>SUBSTRUCTURE
     1 22G         1 TEMP              0 ****  ****    0 ROOT
