@<TRIPOS>MOLECULE
22H
   44    39     1     0     0
SMALL
bcc


@<TRIPOS>ATOM
      1 CAA       -44.5650   11.8010   -9.4150 c3        1 22H     -0.246000
      2 CAB       -41.6440   10.9820   -4.3830 c3        1 22H     -0.228000
      3 CAL       -40.0670   15.0280   -1.6480 c2        1 22H     -0.036000
      4 CAM       289.7720  -95.4150   37.1600 c1        1 22H      0.201000
      5 CAQ       -45.8470   12.2350   -8.7460 c2        1 22H      0.290000
      6 CAR       -43.1390   12.6800   -5.4890 c2        1 22H      0.342000
      7 CAS       -42.0550   12.4390   -4.4050 c3        1 22H     -0.034000
      8 CAT       -37.7060   12.8310   -4.2290 c3        1 22H     -0.067000
      9 CAU       -40.6230   14.6330   -2.8010 c2        1 22H     -0.281000
     10 CAV       -38.7200   13.9840   -4.3060 c3        1 22H      0.007000
     11 CAW       -40.0670   13.5600   -3.6760 c3        1 22H      0.035000
     12 NAN       -45.7580   13.0180   -7.6310 n         1 22H     -0.398000
     13 OAC       -46.9660   11.9330   -9.2380 o         1 22H     -0.463000
     14 OAE       292.3350  -98.6450   36.3120 o         1 22H     -1.130333
     15 OAH       -37.0550   12.8220   -2.9700 oh        1 22H     -0.344000
     16 OAI       -38.8100   14.4350   -5.6390 oh        1 22H     -0.332000
     17 OAJ       293.7140  -96.8500   37.5030 o         1 22H     -1.130333
     18 OAK       292.0460  -96.1860   35.6880 o         1 22H     -1.130333
     19 OAP       -40.9430   13.2730   -4.7580 os        1 22H     -0.264000
     20 PAX       292.6870  -97.2290   36.5160 p3        1 22H      2.389000
     21 H1        -44.2090   12.6210  -10.0840 hc        1 22H      0.103333
     22 H2        -43.7670   11.5830   -8.6590 hc        1 22H      0.103333
     23 H3        -44.7650   10.8920  -10.0290 hc        1 22H      0.103333
     24 H4        -41.3440   10.6660   -5.4120 hc        1 22H      0.071000
     25 H5        -42.4560   12.7580   -3.4050 h1        1 22H      0.079000
     26 H6        -42.5110   10.3600   -4.0570 hc        1 22H      0.071000
     27 H7        -40.4760   15.8130   -0.9930 h4        1 22H      0.151000
     28 H8        -36.9560   12.9310   -5.0590 h1        1 22H      0.098000
     29 H9        -38.2100   11.8310   -4.3010 h1        1 22H      0.098000
     30 H10       -40.7900   10.8070   -3.6860 hc        1 22H      0.071000
     31 H11       -35.6920   15.2110   -4.3600 ha        1 22H      0.001000
     32 H12       -38.3110   14.8690   -3.7340 h1        1 22H      0.098000
     33 H13       -36.2710   15.0970   -4.6930 ha        1 22H      0.001000
     34 H14       -39.9010   12.6320   -3.0530 h1        1 22H      0.080000
     35 H15       -44.8860   13.0840   -7.1340 hn        1 22H      0.243500
     36 H18       -36.5290   13.6300   -2.9180 ho        1 22H      0.197000
     37 H19       -39.5010   13.9320   -6.0940 ho        1 22H      0.244000
     38 H21       -41.5580   15.0920   -3.1610 ha        1 22H      0.170000
     39 H22       -38.5810   13.8010   -1.6370 ho        1 22H      0.225000
     40 OAD       -44.2090   13.2440   -5.1200 o         1 22H     -0.571000
     41 OAG       -42.9390   12.2780   -6.6690 o         1 22H     -0.571000
     42 HAN2      -46.5810   13.1960   -7.1110 hn        1 22H      0.243500
     43 OAF       -38.9060   14.5400   -1.0970 oh        1 22H     -0.290000
     44 OAO       290.5580  -96.2260   37.4720 o         1 22H     -0.200000
@<TRIPOS>BOND
     1    1    5 1   
     2    1   21 1   
     3    1   22 1   
     4    1   23 1   
     5    2    7 1   
     6    2   24 1   
     7    2   26 1   
     8    2   30 1   
     9    3    9 1   
    10    3   27 1   
    11    3   43 1   
    12    4   44 1   
    13    5   12 1   
    14    5   13 1   
    15    6    7 1   
    16    6   40 1   
    17    6   41 1   
    18    7   19 1   
    19    7   25 1   
    20    8   10 1   
    21    8   15 1   
    22    8   28 1   
    23    8   29 1   
    24    9   11 1   
    25    9   38 1   
    26   10   11 1   
    27   10   16 1   
    28   10   32 1   
    29   11   19 1   
    30   11   34 1   
    31   12   35 1   
    32   12   42 1   
    33   14   20 1   
    34   15   36 1   
    35   16   37 1   
    36   17   20 1   
    37   18   20 1   
    38   31   33 1   
    39   39   43 1   
@<TRIPOS>SUBSTRUCTURE
     1 22H         1 TEMP              0 ****  ****    0 ROOT
