@<TRIPOS>MOLECULE
22H
   44    37     1     0     0
SMALL
bcc


@<TRIPOS>ATOM
      1 CAA      -221.7790  120.7330    0.6520 c3        1 22H     -0.245000
      2 CAB      -227.1720  121.8940    4.1740 c3        1 22H     -0.088000
      3 CAL      -218.5020  119.1130   -2.8180 c1        1 22H     -0.235500
      4 CAM      1448.7650 -778.7490   -4.0380 c1        1 22H      0.201000
      5 CAQ      -222.8800  120.4780   -0.3470 c2        1 22H      0.301000
      6 CAR      -224.8370  121.0060    3.6660 c2        1 22H      0.351000
      7 CAS      -226.1260  121.3790    3.2880 c2        1 22H     -0.474000
      8 CAT      -221.3790  121.8450    4.2630 c3        1 22H     -0.050000
      9 CAU      -219.6150  119.3750   -2.4640 c1        1 22H     -0.235500
     10 CAV      -227.3430  119.9660    0.2390 c2        1 22H     -0.185000
     11 CAW      -226.9830  120.1060    1.5300 c2        1 22H     -0.082000
     12 NAN      -224.1700  120.7210    0.0250 n         1 22H     -0.409000
     13 OAC      -222.6130  120.0950   -1.5170 o         1 22H     -0.468000
     14 OAE      1452.8030 -777.6840   -3.5100 o         1 22H     -1.130333
     15 OAH      -221.4380  120.4650    4.5320 oh        1 22H     -0.370000
     16 OAI      -227.1950  120.9530   -0.7220 oh        1 22H     -0.316000
     17 OAJ      1451.3090 -778.8170   -5.2420 o         1 22H     -1.130333
     18 OAK      1452.6800 -780.2360   -3.6220 o         1 22H     -1.130333
     19 OAP      -226.4400  121.3170    1.9330 os        1 22H     -0.138000
     20 PAX      1452.2540 -778.9130   -4.1090 p3        1 22H      2.389000
     21 H1       -221.6060  121.8330    0.7380 hc        1 22H      0.107333
     22 H2       -222.0490  120.3390    1.6670 hc        1 22H      0.107333
     23 H3       -220.8430  120.2420    0.2940 hc        1 22H      0.107333
     24 H4       -228.1260  122.0330    3.6090 hc        1 22H      0.036667
     25 H5       -225.1310  121.5770    5.4910 ho        1 22H      0.199000
     26 H6       -227.3710  121.1940    5.0290 hc        1 22H      0.036667
     27 H7       -217.5170  118.8810   -3.1280 ha        1 22H      0.232500
     28 H8       -220.4010  122.1960    4.6780 h1        1 22H      0.052667
     29 H9       -221.4180  122.0290    3.1580 h1        1 22H      0.052667
     30 H10      -226.8840  122.8830    4.6170 hc        1 22H      0.036667
     31 H11      -227.7750  119.0650   -0.2090 h4        1 22H      0.152000
     32 H12      -220.6120  119.6090   -2.1480 ha        1 22H      0.232500
     33 H13      -222.2300  122.3820    4.7550 h1        1 22H      0.052667
     34 H14      -227.0860  119.3170    2.2840 h4        1 22H      0.145000
     35 H15      -224.9080  120.4680   -0.5870 hn        1 22H      0.245000
     36 H18      -222.3360  120.1760    4.2920 ho        1 22H      0.249000
     37 H19      -226.8640  121.7510   -0.2850 ho        1 22H      0.230000
     38 H21      -228.0650  120.1860   -2.5830 ho        1 22H      0.207000
     39 H22      -229.1440  120.6210   -1.6240 ho        1 22H      0.207000
     40 OAD      -224.4130  121.1900    4.9790 oh        1 22H     -0.349000
     41 OAG      -223.8980  120.5050    2.9900 o         1 22H     -0.521000
     42 HAN2     -224.3950  120.8710    0.9890 hn        1 22H      0.245000
     43 OAF      -229.0230  120.2240   -2.4930 oh        1 22H     -0.419000
     44 OAO      1449.7940 -778.8220   -3.4810 o         1 22H     -0.200000
@<TRIPOS>BOND
     1    1    5 1   
     2    1   21 1   
     3    1   22 1   
     4    1   23 1   
     5    2    7 1   
     6    2   24 1   
     7    2   26 1   
     8    2   30 1   
     9    3    9 1   
    10    3   27 1   
    11    4   44 1   
    12    5   12 1   
    13    5   13 1   
    14    6    7 1   
    15    6   40 1   
    16    6   41 1   
    17    7   19 1   
    18    8   15 1   
    19    8   28 1   
    20    8   29 1   
    21    8   33 1   
    22    9   32 1   
    23   10   11 1   
    24   10   16 1   
    25   10   31 1   
    26   11   19 1   
    27   11   34 1   
    28   12   35 1   
    29   12   42 1   
    30   14   20 1   
    31   15   36 1   
    32   16   37 1   
    33   17   20 1   
    34   18   20 1   
    35   25   40 1   
    36   38   43 1   
    37   39   43 1   
@<TRIPOS>SUBSTRUCTURE
     1 22H         1 TEMP              0 ****  ****    0 ROOT
