@<TRIPOS>MOLECULE
22H
   44    40     1     0     0
SMALL
bcc


@<TRIPOS>ATOM
      1 CAA      -210.3960   75.7640   13.0470 c3        1 22H     -0.243000
      2 CAB      -214.3200   73.3290   11.8280 c3        1 22H     -0.205000
      3 CAL      -211.2120   72.5950   16.2460 c3        1 22H     -0.013000
      4 CAM      1378.3160 -472.4730  -87.7190 c1        1 22H      0.201000
      5 CAQ      -210.5390   74.4210   13.7310 c2        1 22H      0.293000
      6 CAR      -215.9320   71.9170   13.1360 c2        1 22H      0.309000
      7 CAS      -214.5220   72.4920   13.0780 c3        1 22H     -0.005000
      8 CAT      -214.4030   71.1800   17.0770 c3        1 22H      0.039000
      9 CAU      -212.0470   72.9010   14.9840 c3        1 22H     -0.045000
     10 CAV      -214.0240   71.4220   15.6620 c2        1 22H     -0.544000
     11 CAW      -213.5710   72.7880   15.3000 c3        1 22H      0.099000
     12 NAN      -211.7090   74.1860   14.4050 ns        1 22H     -0.346000
     13 OAC      -209.6040   73.5880   13.6910 o         1 22H     -0.408000
     14 OAE      1381.0200 -474.7460  -90.0070 o         1 22H     -1.130333
     15 OAH      -213.3040   71.0130   17.9830 oh        1 22H     -0.398000
     16 OAI      -213.4070   70.3590   15.0260 oh        1 22H     -0.270000
     17 OAJ      1382.2030 -474.0820  -87.8400 o         1 22H     -1.130333
     18 OAK      1380.7730 -472.3760  -89.0910 o         1 22H     -1.130333
     19 OAP      -214.3180   73.3440   14.2000 os        1 22H     -0.307000
     20 PAX      1381.3200 -473.7440  -88.9690 p3        1 22H      2.389000
     21 H1       -211.1790   75.8840   12.2610 hc        1 22H      0.093667
     22 H2       -209.3880   75.8190   12.5700 hc        1 22H      0.093667
     23 H3       -210.4930   76.5930   13.7890 hc        1 22H      0.093667
     24 H4       -214.9900   74.2210   11.8500 hc        1 22H      0.074000
     25 H5       -213.8060   71.6210   13.1010 h1        1 22H      0.127000
     26 H6       -214.5710   72.7160   10.9300 hc        1 22H      0.074000
     27 H7       -210.1350   72.8680   16.0750 h1        1 22H      0.082500
     28 H8       -214.9670   72.0530   17.4990 h1        1 22H      0.063500
     29 H9       -215.0410   70.2550   17.1450 h1        1 22H      0.063500
     30 H10      -213.2620   73.6750   11.7660 hc        1 22H      0.074000
     31 H11      -213.5810   68.5660   16.5670 ha        1 22H      0.000500
     32 H12      -211.7870   72.1010   14.2250 h1        1 22H      0.102000
     33 H13      -213.1220   68.1820   16.8870 ha        1 22H      0.000500
     34 H14      -213.8250   73.5210   16.1230 h1        1 22H      0.091000
     35 H15      -215.5070   71.2700   14.9220 ho        1 22H      0.328000
     36 H18      -212.7280   70.3450   17.5990 ho        1 22H      0.186000
     37 H19      -212.5070   70.2690   15.3860 ho        1 22H      0.102000
     38 H21      -211.2870   71.4940   16.4580 h1        1 22H      0.082500
     39 H22      -212.4380   72.9530   17.6920 ho        1 22H      0.222000
     40 OAD      -216.3160   71.2980   14.2520 oh        1 22H     -0.369000
     41 OAG      -216.7560   71.9560   12.2060 o         1 22H     -0.424000
     42 HAN2     -212.4620   74.8290   14.3090 hn        1 22H      0.231000
     43 OAF      -211.6050   73.3380   17.3780 oh        1 22H     -0.349000
     44 OAO      1379.0680 -473.3610  -87.8570 o         1 22H     -0.200000
@<TRIPOS>BOND
     1    1    5 1   
     2    1   21 1   
     3    1   22 1   
     4    1   23 1   
     5    2    7 1   
     6    2   24 1   
     7    2   26 1   
     8    2   30 1   
     9    3    9 1   
    10    3   27 1   
    11    3   38 1   
    12    3   43 1   
    13    4   44 1   
    14    5   12 1   
    15    5   13 1   
    16    6    7 1   
    17    6   40 1   
    18    6   41 1   
    19    7   19 1   
    20    7   25 1   
    21    8   10 1   
    22    8   15 1   
    23    8   28 1   
    24    8   29 1   
    25    9   11 1   
    26    9   12 1   
    27    9   32 1   
    28   10   11 1   
    29   10   16 1   
    30   11   19 1   
    31   11   34 1   
    32   12   42 1   
    33   14   20 1   
    34   15   36 1   
    35   16   37 1   
    36   17   20 1   
    37   18   20 1   
    38   31   33 1   
    39   35   40 1   
    40   39   43 1   
@<TRIPOS>SUBSTRUCTURE
     1 22H         1 TEMP              0 ****  ****    0 ROOT
