@<TRIPOS>MOLECULE
22J
   25    25     1     0     0
SMALL
bcc


@<TRIPOS>ATOM
      1 OA1         2.1320    1.6390   -1.0050 o         1 22J     -0.804800
      2 CA1         2.9360    1.2620   -0.1080 c         1 22J      0.861600
      3 OA2         3.6070    2.0040    0.6490 o         1 22J     -0.804800
      4 CA2         3.0600   -0.2640    0.1010 c         1 22J      0.448300
      5 OA3         4.0360   -0.9460   -0.2220 o         1 22J     -0.558100
      6 CA3         1.8560   -0.8460    0.7440 ce        1 22J     -0.169200
      7 CA4         0.9450   -1.5560    0.0770 c2        1 22J     -0.235200
      8 CA5        -0.3720   -1.9970    0.6390 c3        1 22J      0.123800
      9 FA5        -0.5670   -1.6400    1.9640 f         1 22J     -0.233300
     10 CA6        -1.4960   -1.4440   -0.2630 c         1 22J      0.573700
     11 OA4        -2.0600   -2.2110   -1.0470 o         1 22J     -0.522100
     12 CB1        -1.8360   -0.0110   -0.1550 ca        1 22J     -0.200600
     13 CB6        -0.8670    0.9690   -0.3940 ca        1 22J     -0.054000
     14 CB3        -1.1940    2.3240   -0.3140 ca        1 22J     -0.132000
     15 CB4        -2.4910    2.7140    0.0090 ca        1 22J     -0.103000
     16 CB5        -3.4750    1.7580    0.2510 ca        1 22J     -0.193000
     17 CB2        -3.1530    0.3930    0.1650 ca        1 22J      0.149900
     18 FB2        -4.1180   -0.5280    0.4060 f         1 22J     -0.146900
     19 H3          1.7150   -0.5540    1.7990 ha        1 22J      0.146000
     20 H5          1.0940   -1.8510   -0.9750 ha        1 22J      0.144000
     21 H6         -0.4260   -3.1280    0.5840 h1        1 22J      0.068700
     22 H7          0.1800    0.6940   -0.6480 ha        1 22J      0.210000
     23 H8         -0.4010    3.0660   -0.5040 ha        1 22J      0.171000
     24 H9         -2.7450    3.7820    0.0760 ha        1 22J      0.126000
     25 H10        -4.5000    2.0550    0.5080 ha        1 22J      0.134000
@<TRIPOS>BOND
     1    1    2 1   
     2    2    3 1   
     3    2    4 1   
     4    4    5 2   
     5    4    6 1   
     6    6    7 2   
     7    6   19 1   
     8    7    8 1   
     9    7   20 1   
    10    8    9 1   
    11    8   10 1   
    12    8   21 1   
    13   10   11 2   
    14   10   12 1   
    15   12   13 ar  
    16   12   17 ar  
    17   13   14 ar  
    18   13   22 1   
    19   14   15 ar  
    20   14   23 1   
    21   15   16 ar  
    22   15   24 1   
    23   16   17 ar  
    24   16   25 1   
    25   17   18 1   
@<TRIPOS>SUBSTRUCTURE
     1 22J         1 TEMP              0 ****  ****    0 ROOT
