@<TRIPOS>MOLECULE
22J
   25    20     1     0     0
SMALL
bcc


@<TRIPOS>ATOM
      1 OA1         1.6250    0.6360    5.6080 o         1 22J     -0.518000
      2 CA1         1.1240    0.8840    4.4800 c1        1 22J      0.331000
      3 OA2         0.0570    1.5480    4.3980 os        1 22J     -0.576000
      4 CA2         1.7940    0.3710    3.2250 c2        1 22J      0.192000
      5 OA3         2.4990    1.1100    2.5670 o         1 22J     -0.320000
      6 CA3         1.6200   -1.0740    2.8110 c2        1 22J     -0.159000
      7 CA4         1.0870   -1.3710    1.6100 c1        1 22J     -0.200000
      8 CA5         0.6630   -0.2610    0.6740 c2        1 22J      0.037000
      9 FA5         1.5670    0.7280    0.7170 f         1 22J     -0.165000
     10 CA6         0.5700   -0.7980   -0.7360 c2        1 22J      0.258000
     11 OA4         1.3280   -1.6720   -1.1050 o         1 22J     -0.281000
     12 CB1        -0.4580   -0.2350   -1.6930 c1        1 22J     -0.181000
     13 CB6        -1.7420   -0.7580   -1.7180 c1        1 22J     -0.126250
     14 CB3        -2.6780   -0.2550   -2.6080 c1        1 22J     -0.126250
     15 CB4        -2.3310    0.7700   -3.4740 c1        1 22J     -0.126250
     16 CB5        -1.0470    1.2930   -3.4500 c1        1 22J     -0.126250
     17 CB2        -0.1110    0.7900   -2.5590 c1        1 22J      0.125000
     18 FB2         1.1400    1.2690   -2.5620 f         1 22J     -0.104000
     19 H3          1.8930   -1.7910    3.4150 ha        1 22J      0.131000
     20 H5          0.9740   -2.3040    1.3430 ha        1 22J      0.130000
     21 H6         -0.2100    0.0830    0.9510 h4        1 22J      0.178000
     22 H7         -1.9870   -1.4790   -1.1080 ha        1 22J      0.156500
     23 H8         -3.5820   -0.6230   -2.6250 ha        1 22J      0.156500
     24 H9         -2.9900    1.1240   -4.1010 ha        1 22J      0.156500
     25 H10        -0.8030    2.0140   -4.0590 ha        1 22J      0.156500
@<TRIPOS>BOND
     1    1    2 1   
     2    2    4 1   
     3    4    5 1   
     4    4    6 1   
     5    6    7 1   
     6    6   19 1   
     7    7   20 1   
     8    8    9 1   
     9    8   10 1   
    10    8   21 1   
    11   10   11 1   
    12   10   12 1   
    13   12   17 1   
    14   13   14 1   
    15   13   22 1   
    16   14   23 1   
    17   15   16 1   
    18   15   24 1   
    19   16   25 1   
    20   17   18 1   
@<TRIPOS>SUBSTRUCTURE
     1 22J         1 TEMP              0 ****  ****    0 ROOT
