@<TRIPOS>MOLECULE
22K
   46    49     1     0     0
SMALL
bcc


@<TRIPOS>ATOM
      1 C01         0.0120   -0.3010   -0.1030 cc        1 22K     -0.012800
      2 C02         1.4300   -0.1950   -0.1190 cd        1 22K      0.329500
      3 N03         1.8200   -0.3120    1.2980 na        1 22K     -0.000800
      4 N04         0.7640   -0.4680    2.1040 nd        1 22K     -0.545100
      5 C05        -0.3300   -0.4680    1.3020 cc        1 22K      0.411500
      6 N06         2.3580   -0.0200   -1.0990 nd        1 22K     -0.562000
      7 C07         3.6430    0.0450   -0.7780 cc        1 22K      0.420600
      8 C08         4.1150   -0.0590    0.6010 cc        1 22K     -0.139200
      9 C09         3.1720   -0.2300    1.6120 cd        1 22K      0.093300
     10 BR10        5.9270    0.0360    1.0370 br        1 22K      0.017900
     11 N11         3.5480   -0.3300    3.0350 n4        1 22K     -0.719000
     12 C12        -0.8740   -0.2560   -1.1920 cc        1 22K     -0.272100
     13 C13        -0.5560   -0.0500   -2.5950 cc        1 22K      0.337200
     14 N14        -1.6840   -0.0730   -3.3380 nd        1 22K     -0.489800
     15 N15        -2.7140   -0.2820   -2.4920 na        1 22K      0.126400
     16 C16        -2.2880   -0.4000   -1.1780 cd        1 22K     -0.075300
     17 C17        -4.0960   -0.3590   -2.9220 c3        1 22K      0.022600
     18 C18         4.6580    0.2780   -1.8780 c3        1 22K     -0.104000
     19 C19         4.2360   -0.3730   -3.1950 c3        1 22K     -0.095400
     20 C20         5.3240   -0.1230   -4.2480 c3        1 22K      0.120500
     21 C21         5.5220    1.3820   -4.4650 c3        1 22K     -0.106400
     22 C22         5.9000    2.0350   -3.1510 c3        1 22K     -0.079400
     23 C23         4.8630    1.7770   -2.0790 c3        1 22K     -0.089400
     24 N24         4.9840   -0.8100   -5.5460 n4        1 22K     -0.842600
     25 H05        -1.3380   -0.5840    1.7190 h4        1 22K      0.091800
     26 HN11        3.0990    0.4300    3.5690 hn        1 22K      0.489133
     27 HN1A        3.2300   -1.2330    3.4190 hn        1 22K      0.489133
     28 H13         0.4260    0.1130   -3.0370 h4        1 22K      0.042100
     29 H16        -2.9750   -0.5700   -0.3460 h4        1 22K      0.194000
     30 H17        -4.2160   -1.1960   -3.6610 h1        1 22K      0.081033
     31 H17A       -4.7410   -0.5490   -2.0250 h1        1 22K      0.081033
     32 H17B       -4.3960    0.6080   -3.4090 h1        1 22K      0.081033
     33 H18         5.6350   -0.1900   -1.5620 hc        1 22K      0.081700
     34 H19         4.0880   -1.4740   -3.0340 hc        1 22K      0.080200
     35 H19A        3.2640    0.0660   -3.5460 hc        1 22K      0.080200
     36 H20         6.3000   -0.5810   -3.8990 hx        1 22K      0.112700
     37 H21         6.3350    1.5660   -5.2160 hc        1 22K      0.077700
     38 H21A        4.5750    1.8450   -4.8540 hc        1 22K      0.077700
     39 H22         6.9030    1.6590   -2.8140 hc        1 22K      0.080700
     40 H22A        5.9970    3.1420   -3.3150 hc        1 22K      0.080700
     41 H23         5.2010    2.2450   -1.1180 hc        1 22K      0.075200
     42 H23A        3.8890    2.2550   -2.3650 hc        1 22K      0.075200
     43 HN24        5.7320   -0.6460   -6.2280 hn        1 22K      0.464133
     44 HN2A        4.1060   -0.4360   -5.9220 hn        1 22K      0.464133
     45 H113        4.5750   -0.2570    3.1230 hn        1 22K      0.489133
     46 H243        4.8770   -1.8170   -5.3930 hn        1 22K      0.464133
@<TRIPOS>BOND
     1    1    2 2   
     2    1    5 1   
     3    1   12 1   
     4    2    3 1   
     5    2    6 1   
     6    3    4 1   
     7    3    9 1   
     8    4    5 2   
     9    5   25 1   
    10    6    7 2   
    11    7    8 1   
    12    7   18 1   
    13    8    9 2   
    14    8   10 1   
    15    9   11 1   
    16   11   26 1   
    17   11   27 1   
    18   11   45 1   
    19   12   13 1   
    20   12   16 2   
    21   13   14 2   
    22   13   28 1   
    23   14   15 1   
    24   15   16 1   
    25   15   17 1   
    26   16   29 1   
    27   17   30 1   
    28   17   31 1   
    29   17   32 1   
    30   18   19 1   
    31   18   23 1   
    32   18   33 1   
    33   19   20 1   
    34   19   34 1   
    35   19   35 1   
    36   20   21 1   
    37   20   24 1   
    38   20   36 1   
    39   21   22 1   
    40   21   37 1   
    41   21   38 1   
    42   22   23 1   
    43   22   39 1   
    44   22   40 1   
    45   23   41 1   
    46   23   42 1   
    47   24   43 1   
    48   24   44 1   
    49   24   46 1   
@<TRIPOS>SUBSTRUCTURE
     1 22K         1 TEMP              0 ****  ****    0 ROOT
