@<TRIPOS>MOLECULE
22K
   44    39     1     0     0
SMALL
bcc


@<TRIPOS>ATOM
      1 C01        -2.7660    0.0220    1.1350 c2        1 22K     -0.098000
      2 C02        -1.3790    0.0230    1.2020 c1        1 22K     -0.021000
      3 N03        -1.0240    0.0680    2.5110 n1        1 22K     -0.127000
      4 N04        -2.1920    0.0960    3.2750 n1        1 22K     -0.137000
      5 C05        -3.2540    0.0680    2.4230 c1        1 22K     -0.021000
      6 N06        -0.4030   -0.0100    0.2190 n1        1 22K     -0.137000
      7 C07         0.9010    0.0030    0.5620 c1        1 22K      0.108000
      8 C08         1.2620    0.0490    1.8880 c1        1 22K     -0.390000
      9 C09         0.2960    0.0810    2.8610 c1        1 22K      0.291000
     10 BR10        2.9290   -0.0380    2.8090 br        1 22K      0.075000
     11 N11         0.6350   -0.0270    4.2520 n3        1 22K     -0.372000
     12 C12        -3.8690    0.0330    0.2430 c2        1 22K     -0.097000
     13 C13        -4.3470    1.1240   -0.4300 c1        1 22K     -0.133500
     14 N14        -5.3340    0.7010   -1.2710 n2        1 22K     -0.106500
     15 N15        -5.4700   -0.6570   -1.1190 n2        1 22K     -0.106500
     16 C16        -4.5690   -1.0700   -0.1880 c1        1 22K     -0.133500
     17 C17        -6.3980   -1.5080   -1.8430 c2        1 22K     -0.055000
     18 C18         1.8200    0.0260   -0.6550 c3        1 22K     -0.063000
     19 C19         2.7050    1.2580   -0.5770 c3        1 22K     -0.157000
     20 C20         3.7760    1.2700   -1.6490 c3        1 22K     -0.023000
     21 C21         4.5770   -0.0190   -1.6830 c3        1 22K     -0.155000
     22 C22         3.6920   -1.2520   -1.7610 c3        1 22K     -0.155000
     23 C23         2.6220   -1.2640   -0.6890 c3        1 22K     -0.158000
     24 N24         4.6720    2.3670   -1.3960 n3        1 22K     -0.345000
     25 H05        -4.1900    0.1210    2.6770 DU        1 22K      0.183000
     26 HN11        1.5130   -0.0410    4.5090 hn        1 22K      0.256000
     27 HN1A       -0.0250   -0.0540    4.8820 hn        1 22K      0.256000
     28 H13        -4.0350    2.0480   -0.3260 DU        1 22K      0.183000
     29 H16        -4.4410   -1.9870    0.1210 DU        1 22K      0.183000
     30 H17        -6.9690   -1.9900   -1.2040 ha        1 22K      0.094667
     31 H17A       -5.9000   -2.1480   -2.3810 ha        1 22K      0.094667
     32 H17B       -6.9590   -0.9550   -2.4290 ha        1 22K      0.094667
     33 H18         1.2760    0.0800   -1.4590 hc        1 22K      0.116000
     34 H19         3.1350    1.2820    0.2980 hc        1 22K      0.098500
     35 H19A        2.1510    2.0500   -0.6780 hc        1 22K      0.098500
     36 H20         3.3520    1.4020   -2.5180 h1        1 22K      0.047000
     37 H21         5.1250   -0.0730   -0.8740 hc        1 22K      0.087000
     38 H21A        5.1700   -0.0040   -2.4670 hc        1 22K      0.087000
     39 H22         3.2610   -1.2760   -2.6380 hc        1 22K      0.081000
     40 H22A        4.2530   -2.0540   -1.6590 hc        1 22K      0.081000
     41 H23         2.0180   -2.0060   -0.8580 hc        1 22K      0.093000
     42 H23A        3.0490   -1.3950    0.1840 hc        1 22K      0.093000
     43 HN24        4.1900    3.1020   -1.1460 hn        1 22K      0.145500
     44 HN2A        5.1430    2.5550   -2.1520 hn        1 22K      0.145500
@<TRIPOS>BOND
     1    1    2 1   
     2    1    5 1   
     3    1   12 1   
     4    2    6 1   
     5    3    9 1   
     6    4    5 1   
     7    7    8 1   
     8    7   18 1   
     9    8   10 1   
    10    9   11 1   
    11   11   26 1   
    12   11   27 1   
    13   12   13 1   
    14   12   16 1   
    15   13   14 1   
    16   14   15 1   
    17   15   16 1   
    18   17   30 1   
    19   17   31 1   
    20   17   32 1   
    21   18   19 1   
    22   18   23 1   
    23   18   33 1   
    24   19   20 1   
    25   19   34 1   
    26   19   35 1   
    27   20   21 1   
    28   20   24 1   
    29   20   36 1   
    30   21   22 1   
    31   21   37 1   
    32   21   38 1   
    33   22   23 1   
    34   22   39 1   
    35   22   40 1   
    36   23   41 1   
    37   23   42 1   
    38   24   43 1   
    39   24   44 1   
@<TRIPOS>SUBSTRUCTURE
     1 22K         1 TEMP              0 ****  ****    0 ROOT
