@<TRIPOS>MOLECULE
22K
   45    48     1     0     0
SMALL
bcc


@<TRIPOS>ATOM
      1 C01         0.0200   -0.2470   -0.0880 cc        1 22K     -0.143800
      2 C02         1.4360   -0.1590   -0.0810 cd        1 22K      0.395500
      3 N03         1.8150   -0.2920    1.3150 na        1 22K     -0.014800
      4 N04         0.7400   -0.4480    2.1160 nd        1 22K     -0.552100
      5 C05        -0.3430   -0.4240    1.3060 cc        1 22K      0.401500
      6 N06         2.3590    0.0110   -1.0800 nd        1 22K     -0.695000
      7 C07         3.6430    0.0410   -0.7390 cc        1 22K      0.502600
      8 C08         4.1120   -0.0870    0.6140 cc        1 22K     -0.346200
      9 C09         3.1740   -0.2550    1.6710 cd        1 22K      0.375300
     10 BR10        5.9310   -0.0340    1.0230 br        1 22K     -0.061100
     11 N11         3.5420   -0.3820    2.9800 nh        1 22K     -0.845200
     12 C12        -0.8550   -0.1820   -1.1960 cc        1 22K     -0.190100
     13 C13        -0.5150    0.0640   -2.5850 cc        1 22K      0.311200
     14 N14        -1.6300    0.0440   -3.3550 nd        1 22K     -0.516800
     15 N15        -2.6670   -0.2020   -2.5360 na        1 22K      0.098400
     16 C16        -2.2570   -0.3460   -1.2080 cd        1 22K     -0.128300
     17 C17        -4.0390   -0.2790   -2.9790 c3        1 22K      0.036600
     18 C18         4.6570    0.2440   -1.8480 c3        1 22K     -0.108000
     19 C19         4.2050   -0.4200   -3.1470 c3        1 22K     -0.096400
     20 C20         5.2760   -0.2020   -4.2200 c3        1 22K      0.119500
     21 C21         5.4950    1.2940   -4.4660 c3        1 22K     -0.102400
     22 C22         5.9090    1.9590   -3.1670 c3        1 22K     -0.077400
     23 C23         4.8880    1.7330   -2.0720 c3        1 22K     -0.088400
     24 N24         4.8860   -0.9050   -5.4980 n4        1 22K     -0.843600
     25 H05        -1.3550   -0.5290    1.7060 h4        1 22K      0.064800
     26 HN11        2.8700   -0.4890    3.7030 hn        1 22K      0.469800
     27 HN1A        4.5040   -0.3330    3.2180 hn        1 22K      0.469800
     28 H13         0.4740    0.2540   -2.9990 h4        1 22K      0.039100
     29 H16        -2.9560   -0.5480   -0.3980 h4        1 22K      0.181000
     30 H17        -4.3620    0.7100   -3.4010 h1        1 22K      0.064367
     31 H17A       -4.1430   -1.0660   -3.7730 h1        1 22K      0.064367
     32 H17B       -4.6850   -0.5430   -2.1020 h1        1 22K      0.064367
     33 H18         5.6270   -0.2370   -1.5300 hc        1 22K      0.081700
     34 H19         4.0440   -1.5150   -2.9630 hc        1 22K      0.080200
     35 H19A        3.2320    0.0280   -3.4870 hc        1 22K      0.080200
     36 H20         6.2500   -0.6740   -3.8870 hx        1 22K      0.109700
     37 H21         4.5470    1.7670   -4.8380 hc        1 22K      0.066200
     38 H21A        6.2940    1.4520   -5.2370 hc        1 22K      0.066200
     39 H22         6.9090    1.5670   -2.8430 hc        1 22K      0.070700
     40 H22A        6.0230    3.0610   -3.3500 hc        1 22K      0.070700
     41 H23         5.2540    2.2000   -1.1200 hc        1 22K      0.078700
     42 H23A        3.9180    2.2290   -2.3410 hc        1 22K      0.078700
     43 HN24        4.0000   -0.5230   -5.8440 hn        1 22K      0.457467
     44 HN2A        5.6090   -0.7660   -6.2070 hn        1 22K      0.457467
     45 H243        4.7670   -1.9060   -5.3190 hn        1 22K      0.457467
@<TRIPOS>BOND
     1    1    2 2   
     2    1    5 1   
     3    1   12 1   
     4    2    3 1   
     5    2    6 1   
     6    3    4 1   
     7    3    9 1   
     8    4    5 2   
     9    5   25 1   
    10    6    7 2   
    11    7    8 1   
    12    7   18 1   
    13    8    9 2   
    14    8   10 1   
    15    9   11 1   
    16   11   26 1   
    17   11   27 1   
    18   12   13 1   
    19   12   16 2   
    20   13   14 2   
    21   13   28 1   
    22   14   15 1   
    23   15   16 1   
    24   15   17 1   
    25   16   29 1   
    26   17   30 1   
    27   17   31 1   
    28   17   32 1   
    29   18   19 1   
    30   18   23 1   
    31   18   33 1   
    32   19   20 1   
    33   19   34 1   
    34   19   35 1   
    35   20   21 1   
    36   20   24 1   
    37   20   36 1   
    38   21   22 1   
    39   21   37 1   
    40   21   38 1   
    41   22   23 1   
    42   22   39 1   
    43   22   40 1   
    44   23   41 1   
    45   23   42 1   
    46   24   43 1   
    47   24   44 1   
    48   24   45 1   
@<TRIPOS>SUBSTRUCTURE
     1 22K         1 TEMP              0 ****  ****    0 ROOT
