@<TRIPOS>MOLECULE
22K
   44    47     1     0     0
SMALL
bcc


@<TRIPOS>ATOM
      1 C01         2.5240   -1.3190    0.1360 cc        1 22K     -0.168800
      2 C02         1.1360   -1.0140    0.1670 cd        1 22K      0.414500
      3 N03         0.4890   -2.2640    0.5210 na        1 22K     -0.012800
      4 N04         1.3760   -3.2640    0.6990 nd        1 22K     -0.579100
      5 C05         2.5980   -2.7250    0.4740 cc        1 22K      0.394500
      6 N06         0.4350    0.1410   -0.0630 nd        1 22K     -0.675000
      7 C07        -0.8890    0.1000    0.0430 cc        1 22K      0.524600
      8 C08        -1.6130   -1.0970    0.3970 cc        1 22K     -0.324200
      9 C09        -0.9110   -2.3040    0.6410 cd        1 22K      0.351300
     10 BR10       -3.4750   -1.1000    0.5530 br        1 22K     -0.071100
     11 N11        -1.5340   -3.4770    0.9820 nh        1 22K     -0.864200
     12 C12         3.6060   -0.4590   -0.1590 cc        1 22K     -0.176100
     13 C13         3.5610    0.9510   -0.5070 cc        1 22K      0.324200
     14 N14         4.8110    1.4230   -0.7210 nd        1 22K     -0.514800
     15 N15         5.6570    0.3930   -0.5370 na        1 22K      0.083400
     16 C16         4.9790   -0.7790   -0.1860 cd        1 22K     -0.149300
     17 C17         7.0910    0.5040   -0.6330 c3        1 22K      0.042600
     18 C18        -1.6580    1.3810   -0.2100 c3        1 22K     -0.124000
     19 C19        -1.4480    2.3530    0.9450 c3        1 22K     -0.069400
     20 C20        -2.3040    3.6120    0.7240 c3        1 22K      0.173500
     21 C21        -1.9050    4.2670   -0.6090 c3        1 22K     -0.077400
     22 C22        -2.0710    3.2900   -1.7530 c3        1 22K     -0.078400
     23 C23        -1.2580    2.0310   -1.5280 c3        1 22K     -0.069400
     24 N24        -2.1740    4.5420    1.8350 n3        1 22K     -0.912800
     25 H05         3.5070   -3.3260    0.5520 h4        1 22K      0.051800
     26 HN11       -1.0210   -4.3100    1.1400 hn        1 22K      0.461300
     27 HN1A       -2.5220   -3.4920    1.0480 hn        1 22K      0.461300
     28 H13         2.6740    1.5820   -0.5950 h4        1 22K      0.061100
     29 H16         5.4950   -1.7180    0.0060 h4        1 22K      0.171000
     30 H17         7.4930    1.0770    0.2450 h1        1 22K      0.055700
     31 H17A        7.5320   -0.5260   -0.6410 h1        1 22K      0.055700
     32 H17B        7.3750    1.0410   -1.5770 h1        1 22K      0.055700
     33 H18        -2.7570    1.1290   -0.2710 hc        1 22K      0.070700
     34 H19        -1.7370    1.8560    1.9070 hc        1 22K      0.058700
     35 H19A       -0.3660    2.6380    1.0150 hc        1 22K      0.058700
     36 H20        -3.3810    3.2650    0.6130 h1        1 22K      0.004700
     37 H21        -2.5430    5.1700   -0.7940 hc        1 22K      0.048700
     38 H21A       -0.8390    4.6090   -0.5540 hc        1 22K      0.048700
     39 H22        -3.1550    3.0240   -1.8690 hc        1 22K      0.040700
     40 H22A       -1.7420    3.7780   -2.7070 hc        1 22K      0.040700
     41 H23        -0.1670    2.2910   -1.5170 hc        1 22K      0.054700
     42 H23A       -1.4290    1.3110   -2.3690 hc        1 22K      0.054700
     43 HN24       -2.7520    5.3430    1.6830 hn        1 22K      0.349300
     44 HN2A       -2.4390    4.0970    2.6910 hn        1 22K      0.349300
@<TRIPOS>BOND
     1    1    2 2   
     2    1    5 1   
     3    1   12 1   
     4    2    3 1   
     5    2    6 1   
     6    3    4 1   
     7    3    9 1   
     8    4    5 2   
     9    5   25 1   
    10    6    7 2   
    11    7    8 1   
    12    7   18 1   
    13    8    9 2   
    14    8   10 1   
    15    9   11 1   
    16   11   26 1   
    17   11   27 1   
    18   12   13 1   
    19   12   16 2   
    20   13   14 2   
    21   13   28 1   
    22   14   15 1   
    23   15   16 1   
    24   15   17 1   
    25   16   29 1   
    26   17   30 1   
    27   17   31 1   
    28   17   32 1   
    29   18   19 1   
    30   18   23 1   
    31   18   33 1   
    32   19   20 1   
    33   19   34 1   
    34   19   35 1   
    35   20   21 1   
    36   20   24 1   
    37   20   36 1   
    38   21   22 1   
    39   21   37 1   
    40   21   38 1   
    41   22   23 1   
    42   22   39 1   
    43   22   40 1   
    44   23   41 1   
    45   23   42 1   
    46   24   43 1   
    47   24   44 1   
@<TRIPOS>SUBSTRUCTURE
     1 22K         1 TEMP              0 ****  ****    0 ROOT
