@<TRIPOS>MOLECULE
22K
   45    48     1     0     0
SMALL
bcc


@<TRIPOS>ATOM
      1 C01         0.0120   -0.2220   -0.0920 cc        1 22K     -0.143800
      2 C02         1.4290   -0.1530   -0.0830 cd        1 22K      0.395500
      3 N03         1.8050   -0.2970    1.3130 na        1 22K     -0.014800
      4 N04         0.7270   -0.4420    2.1110 nd        1 22K     -0.552100
      5 C05        -0.3550   -0.4000    1.3010 cc        1 22K      0.401500
      6 N06         2.3560    0.0080   -1.0800 nd        1 22K     -0.695000
      7 C07         3.6400    0.0190   -0.7380 cc        1 22K      0.502600
      8 C08         4.1050   -0.1210    0.6150 cc        1 22K     -0.346200
      9 C09         3.1640   -0.2800    1.6700 cd        1 22K      0.375300
     10 Br10        5.9240   -0.0940    1.0270 br        1 22K     -0.061100
     11 N11         3.5280   -0.4180    2.9790 nv        1 22K     -0.845200
     12 C12        -0.8600   -0.1410   -1.2010 cc        1 22K     -0.190100
     13 C13        -0.5150    0.1080   -2.5880 cc        1 22K      0.311200
     14 N14        -1.6290    0.1060   -3.3600 nd        1 22K     -0.516800
     15 N15        -2.6700   -0.1310   -2.5430 na        1 22K      0.098400
     16 C16        -2.2640   -0.2860   -1.2150 cd        1 22K     -0.128300
     17 C17        -4.0420   -0.1870   -2.9890 c3        1 22K      0.036600
     18 C18         4.6580    0.2130   -1.8450 c3        1 22K     -0.108000
     19 C19         4.1990   -0.4400   -3.1460 c3        1 22K     -0.096400
     20 C20         5.2740   -0.2320   -4.2170 c3        1 22K      0.119500
     21 C21         5.5130    1.2620   -4.4570 c3        1 22K     -0.102400
     22 C22         5.9350    1.9170   -3.1550 c3        1 22K     -0.077400
     23 C23         4.9100    1.7000   -2.0630 c3        1 22K     -0.088400
     24 N24         4.8760   -0.9250   -5.4980 nz        1 22K     -0.843600
     25 H05        -1.3690   -0.4930    1.6990 h4        1 22K      0.064800
     26 HN11        2.8540   -0.5180    3.7010 hn        1 22K      0.469800
     27 HN1A        4.4910   -0.3830    3.2190 hn        1 22K      0.469800
     28 H13         0.4770    0.2870   -3.0000 h4        1 22K      0.039100
     29 H16        -2.9670   -0.4830   -0.4070 h4        1 22K      0.181000
     30 H17        -4.3530    0.8090   -3.4030 h1        1 22K      0.064367
     31 H17A       -4.1550   -0.9670   -3.7890 h1        1 22K      0.064367
     32 H17B       -4.6930   -0.4500   -2.1140 h1        1 22K      0.064367
     33 H18         5.6220   -0.2820   -1.5280 hc        1 22K      0.081700
     34 H19         4.0230   -1.5330   -2.9660 hc        1 22K      0.080200
     35 H19A        3.2330    0.0220   -3.4860 hc        1 22K      0.080200
     36 H20         6.2410   -0.7190   -3.8850 hx        1 22K      0.109700
     37 H21         4.5720    1.7480   -4.8290 hc        1 22K      0.066200
     38 H21A        6.3150    1.4110   -5.2260 hc        1 22K      0.066200
     39 H22         6.0630    3.0180   -3.3340 hc        1 22K      0.070700
     40 H22A        6.9290    1.5100   -2.8320 hc        1 22K      0.070700
     41 H23         3.9470    2.2100   -2.3300 hc        1 22K      0.078700
     42 H23A        5.2800    2.1590   -1.1080 hc        1 22K      0.078700
     43 HN24        5.6030   -0.7930   -6.2060 hn        1 22K      0.457467
     44 HN2A        4.7440   -1.9250   -5.3230 hn        1 22K      0.457467
     45 H243        3.9960   -0.5300   -5.8440 hn        1 22K      0.457467
@<TRIPOS>BOND
     1    1    2 2   
     2    1    5 1   
     3    1   12 1   
     4    2    3 1   
     5    2    6 1   
     6    3    4 1   
     7    3    9 1   
     8    4    5 2   
     9    5   25 1   
    10    6    7 2   
    11    7    8 1   
    12    7   18 1   
    13    8    9 2   
    14    8   10 1   
    15    9   11 1   
    16   11   26 1   
    17   11   27 1   
    18   12   13 1   
    19   12   16 2   
    20   13   14 2   
    21   13   28 1   
    22   14   15 1   
    23   15   16 1   
    24   15   17 1   
    25   16   29 1   
    26   17   30 1   
    27   17   31 1   
    28   17   32 1   
    29   18   19 1   
    30   18   23 1   
    31   18   33 1   
    32   19   20 1   
    33   19   34 1   
    34   19   35 1   
    35   20   21 1   
    36   20   24 1   
    37   20   36 1   
    38   21   22 1   
    39   21   37 1   
    40   21   38 1   
    41   22   23 1   
    42   22   39 1   
    43   22   40 1   
    44   23   41 1   
    45   23   42 1   
    46   24   43 1   
    47   24   44 1   
    48   24   45 1   
@<TRIPOS>SUBSTRUCTURE
     1 22K         1 TEMP              0 ****  ****    0 ROOT
