@<TRIPOS>MOLECULE
22L
   24    26     1     0     0
SMALL
bcc


@<TRIPOS>ATOM
      1 C1          0.0290   -0.1350   -0.1010 ca        1 22L     -0.121000
      2 C2          1.4230   -0.1740   -0.0420 ca        1 22L     -0.136000
      3 C3          2.0730   -0.0810    1.1860 ca        1 22L     -0.098500
      4 C7          2.0380    0.1150    3.6420 cc        1 22L      0.026000
      5 C8          3.1130   -0.7120    3.9330 cd        1 22L     -0.213100
      6 C10         2.6800    0.7630    5.8140 cd        1 22L      0.134300
      7 C11         1.7720    0.9880    4.7460 cc        1 22L     -0.217600
      8 C12         0.7590    2.0310    4.8930 c         1 22L      0.729100
      9 C15         1.7420    2.4180    7.0930 cc        1 22L      0.487800
     10 C4          1.3340    0.0590    2.3720 ca        1 22L     -0.035000
     11 C5         -0.0650    0.1030    2.3040 ca        1 22L     -0.098500
     12 C6         -0.7110    0.0040    1.0720 ca        1 22L     -0.136000
     13 S9          3.7630   -0.4590    5.4410 ss        1 22L      0.133200
     14 O13        -0.1210    2.3580    4.0800 o         1 22L     -0.618500
     15 N14         0.8030    2.7330    6.1240 n         1 22L     -0.492400
     16 N16         2.6640    1.4790    6.9990 nd        1 22L     -0.592100
     17 H1         -0.4830   -0.2090   -1.0710 ha        1 22L      0.130000
     18 H2          2.0100   -0.2780   -0.9660 ha        1 22L      0.131500
     19 H3          3.1720   -0.1110    1.2300 ha        1 22L      0.139500
     20 H4          3.5040   -1.4680    3.2510 h4        1 22L      0.181000
     21 H5          1.7080    3.0130    8.0310 h5        1 22L      0.054800
     22 H6         -0.6530    0.2380    3.2250 ha        1 22L      0.139500
     23 H7         -1.8090    0.0430    1.0300 ha        1 22L      0.131500
     24 H8          0.1460    3.4630    6.2780 hn        1 22L      0.338500
@<TRIPOS>BOND
     1    1    2 ar  
     2    1   12 ar  
     3    1   17 1   
     4    2    3 ar  
     5    2   18 1   
     6    3   10 ar  
     7    3   19 1   
     8    4    5 2   
     9    4    7 1   
    10    4   10 1   
    11    5   13 1   
    12    5   20 1   
    13    6    7 2   
    14    6   13 1   
    15    6   16 1   
    16    7    8 1   
    17    8   14 2   
    18    8   15 1   
    19    9   15 1   
    20    9   16 2   
    21    9   21 1   
    22   10   11 ar  
    23   11   12 ar  
    24   11   22 1   
    25   12   23 1   
    26   15   24 1   
@<TRIPOS>SUBSTRUCTURE
     1 22L         1 TEMP              0 ****  ****    0 ROOT
