@<TRIPOS>MOLECULE
22L
   24    26     1     0     0
SMALL
bcc


@<TRIPOS>ATOM
      1 C1          0.0340   -0.1230   -0.1060 ca        1 22L     -0.121000
      2 C2          1.4270   -0.1680   -0.0430 ca        1 22L     -0.136000
      3 C3          2.0750   -0.0800    1.1860 ca        1 22L     -0.098500
      4 C7          2.0350    0.1120    3.6430 cc        1 22L      0.026000
      5 C8          3.1070   -0.7200    3.9340 cd        1 22L     -0.213100
      6 C10         2.6750    0.7520    5.8170 cd        1 22L      0.134300
      7 C11         1.7690    0.9830    4.7480 cc        1 22L     -0.217600
      8 C12         0.7610    2.0290    4.8950 c         1 22L      0.729100
      9 C15         1.7400    2.4080    7.0980 cc        1 22L      0.487800
     10 C4          1.3340    0.0610    2.3710 ca        1 22L     -0.035000
     11 C5         -0.0640    0.1100    2.3000 ca        1 22L     -0.098500
     12 C6         -0.7080    0.0170    1.0660 ca        1 22L     -0.136000
     13 S9          3.7540   -0.4720    5.4440 ss        1 22L      0.133200
     14 O13        -0.1160    2.3610    4.0800 o         1 22L     -0.618500
     15 N14         0.8050    2.7290    6.1270 n         1 22L     -0.492400
     16 N16         2.6590    1.4660    7.0040 nd        1 22L     -0.592100
     17 H1         -0.4760   -0.1930   -1.0770 ha        1 22L      0.130000
     18 H2          2.0170   -0.2710   -0.9660 ha        1 22L      0.131500
     19 H3          3.1740   -0.1130    1.2330 ha        1 22L      0.139500
     20 H4          3.4960   -1.4760    3.2520 h4        1 22L      0.181000
     21 H5          1.7060    3.0020    8.0370 h5        1 22L      0.054800
     22 H6         -0.6540    0.2450    3.2200 ha        1 22L      0.139500
     23 H7         -1.8060    0.0590    1.0210 ha        1 22L      0.131500
     24 H8          0.1490    3.4620    6.2810 hn        1 22L      0.338500
@<TRIPOS>BOND
     1    1    2 ar  
     2    1   12 ar  
     3    1   17 1   
     4    2    3 ar  
     5    2   18 1   
     6    3   10 ar  
     7    3   19 1   
     8    4    5 2   
     9    4    7 1   
    10    4   10 1   
    11    5   13 1   
    12    5   20 1   
    13    6    7 2   
    14    6   13 1   
    15    6   16 1   
    16    7    8 1   
    17    8   14 2   
    18    8   15 1   
    19    9   15 1   
    20    9   16 2   
    21    9   21 1   
    22   10   11 ar  
    23   11   12 ar  
    24   11   22 1   
    25   12   23 1   
    26   15   24 1   
@<TRIPOS>SUBSTRUCTURE
     1 22L         1 TEMP              0 ****  ****    0 ROOT
