@<TRIPOS>MOLECULE
22L
   24    18     1     0     0
SMALL
bcc


@<TRIPOS>ATOM
      1 C1         -2.0840    0.9360   -3.1320 c1        1 22L     -0.130000
      2 C2         -2.7390    0.7020   -1.9390 c1        1 22L     -0.130000
      3 C3         -2.0210    0.6620   -0.7520 c1        1 22L     -0.114000
      4 C7          0.1160    0.7280    0.5120 c1        1 22L     -0.085500
      5 C8          0.2800    1.9480    1.2770 c1        1 22L     -0.379000
      6 C10         1.4510    0.0730    2.4740 c1        1 22L     -0.379000
      7 C11         0.8630   -0.4590    1.2800 c1        1 22L     -0.085500
      8 C12         1.0240   -1.9080    0.9520 c1        1 22L      0.366000
      9 C15         2.3070   -2.2370    3.0770 c1        1 22L      0.064000
     10 C4         -0.6820    0.8540   -0.7660 c1        1 22L     -0.035000
     11 C5         -0.0210    1.0920   -1.9790 c2        1 22L     -0.083000
     12 C6         -0.7260    1.1300   -3.1440 c1        1 22L     -0.133000
     13 S9          1.1170    1.6070    2.5320 ss        1 22L      0.673000
     14 O13         0.5910   -2.3540   -0.1250 o         1 22L     -0.343000
     15 N14         1.7400   -2.7710    1.8490 n1        1 22L     -0.332000
     16 N16         2.2040   -0.8050    3.3700 n1        1 22L     -0.165000
     17 H1         -2.6150    0.9660   -4.0150 ha        1 22L      0.130000
     18 H2         -3.6560    0.5720   -1.9290 ha        1 22L      0.130000
     19 H3         -2.4570    0.5070    0.0440 ha        1 22L      0.130000
     20 H4          0.0170    2.8150    1.0030 DU        1 22L      0.181000
     21 H5          2.8360   -2.8750    3.7340 ha        1 22L      0.184000
     22 H6          0.9040    1.2230   -1.9890 ha        1 22L      0.149000
     23 H7         -0.2570    1.2960   -3.9980 ha        1 22L      0.133000
     24 H8          1.8080   -3.7000    1.6630 hn        1 22L      0.252000
@<TRIPOS>BOND
     1    1    2 1   
     2    1   17 1   
     3    2   18 1   
     4    3   10 1   
     5    3   19 1   
     6    4    5 1   
     7    4    7 1   
     8    5   13 1   
     9    6    7 1   
    10    6   13 1   
    11    8   14 1   
    12    9   16 1   
    13    9   21 1   
    14   10   11 1   
    15   11   12 1   
    16   11   22 1   
    17   12   23 1   
    18   15   24 1   
@<TRIPOS>SUBSTRUCTURE
     1 22L         1 TEMP              0 ****  ****    0 ROOT
