@<TRIPOS>MOLECULE
22L
   24    26     1     0     0
SMALL
bcc


@<TRIPOS>ATOM
      1 C1          4.3670    0.2580   -0.0430 ca        1 22L     -0.121000
      2 C2          3.8780   -0.7820    0.7480 ca        1 22L     -0.136000
      3 C3          2.5170   -1.0740    0.7550 ca        1 22L     -0.098500
      4 C7          0.2160   -0.6740   -0.0310 cc        1 22L      0.026000
      5 C8         -0.2220   -1.9900   -0.0740 cd        1 22L     -0.213100
      6 C10        -2.1320   -0.4930    0.0160 cd        1 22L      0.134300
      7 C11        -0.9030    0.2180    0.0190 cc        1 22L     -0.217600
      8 C12        -0.9370    1.6770    0.0930 c         1 22L      0.729100
      9 C15        -3.3650    1.4360    0.1500 cc        1 22L      0.487800
     10 C4          1.6250   -0.3220   -0.0280 ca        1 22L     -0.035000
     11 C5          2.1230    0.7240   -0.8160 ca        1 22L     -0.098500
     12 C6          3.4880    1.0090   -0.8230 ca        1 22L     -0.136000
     13 S9         -1.8760   -2.1460   -0.0580 ss        1 22L      0.133200
     14 O13         0.0260    2.4610    0.0920 o         1 22L     -0.618500
     15 N14        -2.2360    2.2400    0.1640 n         1 22L     -0.492400
     16 N16        -3.3740    0.1180    0.0770 nd        1 22L     -0.592100
     17 H1          5.4430    0.4870   -0.0480 ha        1 22L      0.130000
     18 H2          4.5670   -1.3720    1.3690 ha        1 22L      0.131500
     19 H3          2.1330   -1.8930    1.3810 ha        1 22L      0.139500
     20 H4          0.4430   -2.8520   -0.1230 h4        1 22L      0.181000
     21 H5         -4.3460    1.9550    0.2060 h5        1 22L      0.054800
     22 H6          1.4300    1.3350   -1.4150 ha        1 22L      0.139500
     23 H7          3.8680    1.8340   -1.4430 ha        1 22L      0.131500
     24 H8         -2.3220    3.2290    0.2270 hn        1 22L      0.338500
@<TRIPOS>BOND
     1    1    2 ar  
     2    1   12 ar  
     3    1   17 1   
     4    2    3 ar  
     5    2   18 1   
     6    3   10 ar  
     7    3   19 1   
     8    4    5 2   
     9    4    7 1   
    10    4   10 1   
    11    5   13 1   
    12    5   20 1   
    13    6    7 2   
    14    6   13 1   
    15    6   16 1   
    16    7    8 1   
    17    8   14 2   
    18    8   15 1   
    19    9   15 1   
    20    9   16 2   
    21    9   21 1   
    22   10   11 ar  
    23   11   12 ar  
    24   11   22 1   
    25   12   23 1   
    26   15   24 1   
@<TRIPOS>SUBSTRUCTURE
     1 22L         1 TEMP              0 ****  ****    0 ROOT
