@<TRIPOS>MOLECULE
22M
   34    25     1     0     0
SMALL
bcc


@<TRIPOS>ATOM
      1 C1         -1.3950   -1.0660   -3.3040 c1        1 22M     -0.122333
      2 C2         -0.0610   -0.6870   -3.3720 c1        1 22M     -0.101000
      3 C3          0.4740    0.3690   -4.3150 c2        1 22M      0.115000
      4 N4         -0.2340    1.4370   -4.5690 n1        1 22M     -0.305000
      5 N5          1.7450    0.1990   -4.9230 n3        1 22M     -0.332000
      6 C6          0.6600   -0.4750   -2.2070 c1        1 22M     -0.108000
      7 C7          0.0410   -0.6440   -0.9570 c1        1 22M     -0.039500
      8 C8         -1.2760   -1.0190   -0.8890 c1        1 22M     -0.039500
      9 C9         -2.0060   -1.2330   -2.0700 c1        1 22M     -0.122333
     10 C10        -1.6240   -1.1100    0.4410 c1        1 22M     -0.186000
     11 C11        -0.5130   -0.7890    1.1950 c2        1 22M      0.020000
     12 C12        -0.1760    0.1900    2.1150 c1        1 22M     -0.038000
     13 C13        -0.3370    1.5280    1.7910 c1        1 22M     -0.122333
     14 C14         0.0750    2.5100    2.6780 c1        1 22M     -0.122333
     15 C15         0.6490    2.1540    3.8880 c1        1 22M     -0.122333
     16 C16         0.8100    0.8170    4.2120 c1        1 22M     -0.122333
     17 C17         0.3980   -0.1660    3.3250 c1        1 22M     -0.039000
     18 C18         0.4910   -1.6240    3.7170 c3        1 22M     -0.187000
     19 N19         0.5120   -0.5020    0.3360 n1        1 22M     -0.207000
     20 H1         -1.9070   -1.1980   -4.1240 ha        1 22M      0.135167
     21 HN4        -1.0530    1.5470   -4.1780 DU        1 22M      0.188333
     22 HN51        2.0270   -0.6360   -5.1650 hn        1 22M      0.191500
     23 HN52        2.2750    0.9250   -5.0830 hn        1 22M      0.191500
     24 H6          1.5980   -0.2080   -2.2550 ha        1 22M      0.149000
     25 H9         -2.9440   -1.5000   -2.0230 ha        1 22M      0.135167
     26 H10        -2.4930   -1.3850    0.7890 DU        1 22M      0.188333
     27 H13        -0.7420    1.7790    0.9390 ha        1 22M      0.135167
     28 H14        -0.0390    3.4520    2.4500 ha        1 22M      0.135167
     29 H15         0.9390    2.8460    4.5130 ha        1 22M      0.135167
     30 H16         1.2140    0.5660    5.0640 ha        1 22M      0.135167
     31 H181       -0.3930   -2.0410    3.6410 hc        1 22M      0.090333
     32 H182        1.1200   -2.0830    3.1220 hc        1 22M      0.090333
     33 H183        0.8070   -1.6950    4.6420 hc        1 22M      0.090333
     34 HN19        1.3580   -0.2600    0.5750 DU        1 22M      0.188333
@<TRIPOS>BOND
     1    1    9 1   
     2    1   20 1   
     3    2    3 1   
     4    2    6 1   
     5    3    4 1   
     6    3    5 1   
     7    5   22 1   
     8    5   23 1   
     9    6   24 1   
    10    7    8 1   
    11    9   25 1   
    12   10   11 1   
    13   11   12 1   
    14   11   19 1   
    15   12   17 1   
    16   13   14 1   
    17   13   27 1   
    18   14   28 1   
    19   15   16 1   
    20   15   29 1   
    21   16   30 1   
    22   17   18 1   
    23   18   31 1   
    24   18   32 1   
    25   18   33 1   
@<TRIPOS>SUBSTRUCTURE
     1 22M         1 TEMP              0 ****  ****    0 ROOT
