@<TRIPOS>MOLECULE
22M
   35    37     1     0     0
SMALL
bcc


@<TRIPOS>ATOM
      1 C1         -0.0400    0.3970   -0.0360 ca        1 22M     -0.147000
      2 C2          1.3590    0.2050   -0.0200 ca        1 22M     -0.271900
      3 C3          2.0960    0.1830   -1.2960 ce        1 22M      0.602800
      4 N4          2.9920    0.9480   -1.7880 n2        1 22M     -0.725100
      5 N5          1.6790   -0.9940   -2.1470 nz        1 22M     -0.827600
      6 C6          2.0750    0.0690    1.1700 ca        1 22M     -0.081000
      7 C7          1.3510    0.1190    2.3640 ca        1 22M     -0.062200
      8 C8         -0.0940    0.3070    2.3610 ca        1 22M     -0.040800
      9 C9         -0.7640    0.4500    1.1430 ca        1 22M     -0.067000
     10 C10        -0.5100    0.3090    3.7330 cc        1 22M     -0.190200
     11 C11         0.6410    0.1330    4.5200 cd        1 22M      0.070700
     12 C12         0.7060    0.0360    5.9710 ca        1 22M     -0.088800
     13 C13        -0.2430   -0.7810    6.6080 ca        1 22M     -0.093000
     14 C14        -0.2420   -0.9170    7.9920 ca        1 22M     -0.130000
     15 C15         0.7050   -0.2330    8.7560 ca        1 22M     -0.095000
     16 C16         1.6410    0.5870    8.1320 ca        1 22M     -0.128000
     17 C17         1.6540    0.7350    6.7380 ca        1 22M     -0.050300
     18 C18         2.6550    1.6420    6.1260 c3        1 22M     -0.065800
     19 N19         1.7650    0.0090    3.6900 na        1 22M     -0.169400
     20 H1         -0.5610    0.5430   -0.9950 ha        1 22M      0.128000
     21 HN4         3.2770    1.7440   -1.2540 hn        1 22M      0.487400
     22 HN51        2.0890   -0.9620   -3.0870 hn        1 22M      0.467800
     23 HN52        0.6550   -0.9870   -2.2130 hn        1 22M      0.467800
     24 H6          3.1660   -0.0710    1.1700 ha        1 22M      0.145000
     25 H9         -1.8530    0.6090    1.1280 ha        1 22M      0.163000
     26 H10        -1.5250    0.4340    4.1010 ha        1 22M      0.181000
     27 H13        -0.9900   -1.3180    6.0010 ha        1 22M      0.141000
     28 H14        -0.9880   -1.5610    8.4820 ha        1 22M      0.148000
     29 H15         0.7100   -0.3390    9.8520 ha        1 22M      0.148000
     30 H16         2.3790    1.1330    8.7400 ha        1 22M      0.146000
     31 H181        3.0300    2.3820    6.8780 hc        1 22M      0.049700
     32 H182        3.5360    1.0580    5.7560 hc        1 22M      0.049700
     33 H183        2.2140    2.2150    5.2740 hc        1 22M      0.049700
     34 HN19        2.6970   -0.0870    4.0030 hn        1 22M      0.316700
     35 H53         1.9770   -1.8520   -1.6720 hn        1 22M      0.467800
@<TRIPOS>BOND
     1    1    2 ar  
     2    1    9 ar  
     3    1   20 1   
     4    2    3 1   
     5    2    6 ar  
     6    3    4 2   
     7    3    5 1   
     8    4   21 1   
     9    5   22 1   
    10    5   23 1   
    11    5   35 1   
    12    6    7 ar  
    13    6   24 1   
    14    7    8 ar  
    15    7   19 1   
    16    8    9 ar  
    17    8   10 1   
    18    9   25 1   
    19   10   11 2   
    20   10   26 1   
    21   11   12 1   
    22   11   19 1   
    23   12   13 ar  
    24   12   17 ar  
    25   13   14 ar  
    26   13   27 1   
    27   14   15 ar  
    28   14   28 1   
    29   15   16 ar  
    30   15   29 1   
    31   16   17 ar  
    32   16   30 1   
    33   17   18 1   
    34   18   31 1   
    35   18   32 1   
    36   18   33 1   
    37   19   34 1   
@<TRIPOS>SUBSTRUCTURE
     1 22M         1 TEMP              0 ****  ****    0 ROOT
