@<TRIPOS>MOLECULE
22M
   35    37     1     0     0
SMALL
bcc


@<TRIPOS>ATOM
      1 C1         -0.0340    0.3910   -0.0390 ca        1 22M     -0.147000
      2 C2          1.3670    0.2120   -0.0190 ca        1 22M     -0.271900
      3 C3          2.1070    0.1970   -1.2940 ce        1 22M      0.602800
      4 N4          2.9970    0.9710   -1.7830 n2        1 22M     -0.725100
      5 N5          1.7020   -0.9830   -2.1470 n4        1 22M     -0.827600
      6 C6          2.0810    0.0800    1.1720 ca        1 22M     -0.081000
      7 C7          1.3530    0.1220    2.3650 ca        1 22M     -0.062200
      8 C8         -0.0930    0.2980    2.3580 ca        1 22M     -0.040800
      9 C9         -0.7610    0.4360    1.1390 ca        1 22M     -0.067000
     10 C10        -0.5120    0.2940    3.7290 cc        1 22M     -0.190200
     11 C11         0.6390    0.1280    4.5190 cd        1 22M      0.070700
     12 C12         0.7010    0.0290    5.9700 ca        1 22M     -0.088800
     13 C13        -0.2430   -0.7970    6.6030 ca        1 22M     -0.093000
     14 C14        -0.2440   -0.9340    7.9870 ca        1 22M     -0.130000
     15 C15         0.6960   -0.2440    8.7540 ca        1 22M     -0.095000
     16 C16         1.6260    0.5850    8.1340 ca        1 22M     -0.128000
     17 C17         1.6420    0.7350    6.7400 ca        1 22M     -0.050300
     18 C18         2.6360    1.6510    6.1320 c3        1 22M     -0.065800
     19 N19         1.7660    0.0140    3.6910 na        1 22M     -0.169400
     20 H1         -0.5540    0.5340   -0.9980 ha        1 22M      0.128000
     21 HN4         3.2730    1.7690   -1.2480 hn        1 22M      0.487400
     22 HN51        2.1140   -0.9460   -3.0860 hn        1 22M      0.467800
     23 HN52        0.6780   -0.9840   -2.2160 hn        1 22M      0.467800
     24 H6          3.1730   -0.0510    1.1750 ha        1 22M      0.145000
     25 H9         -1.8520    0.5860    1.1220 ha        1 22M      0.163000
     26 H10        -1.5290    0.4100    4.0960 ha        1 22M      0.181000
     27 H13        -0.9830   -1.3390    5.9940 ha        1 22M      0.141000
     28 H14        -0.9860   -1.5850    8.4750 ha        1 22M      0.148000
     29 H15         0.6990   -0.3510    9.8500 ha        1 22M      0.148000
     30 H16         2.3590    1.1370    8.7440 ha        1 22M      0.146000
     31 H181        3.0040    2.3930    6.8850 hc        1 22M      0.049700
     32 H182        3.5220    1.0760    5.7630 hc        1 22M      0.049700
     33 H183        2.1930    2.2220    5.2790 hc        1 22M      0.049700
     34 HN19        2.6980   -0.0740    4.0060 hn        1 22M      0.316700
     35 H53         2.0060   -1.8380   -1.6720 hn        1 22M      0.467800
@<TRIPOS>BOND
     1    1    2 ar  
     2    1    9 ar  
     3    1   20 1   
     4    2    3 1   
     5    2    6 ar  
     6    3    4 2   
     7    3    5 1   
     8    4   21 1   
     9    5   22 1   
    10    5   23 1   
    11    5   35 1   
    12    6    7 ar  
    13    6   24 1   
    14    7    8 ar  
    15    7   19 1   
    16    8    9 ar  
    17    8   10 1   
    18    9   25 1   
    19   10   11 2   
    20   10   26 1   
    21   11   12 1   
    22   11   19 1   
    23   12   13 ar  
    24   12   17 ar  
    25   13   14 ar  
    26   13   27 1   
    27   14   15 ar  
    28   14   28 1   
    29   15   16 ar  
    30   15   29 1   
    31   16   17 ar  
    32   16   30 1   
    33   17   18 1   
    34   18   31 1   
    35   18   32 1   
    36   18   33 1   
    37   19   34 1   
@<TRIPOS>SUBSTRUCTURE
     1 22M         1 TEMP              0 ****  ****    0 ROOT
