@<TRIPOS>MOLECULE
22M
   34    36     1     0     0
SMALL
bcc


@<TRIPOS>ATOM
      1 C1         -3.2410   -1.2870    0.6980 ca        1 22M     -0.141000
      2 C2         -3.3630   -0.0090    0.1110 ca        1 22M     -0.128900
      3 C3         -4.7280    0.5730   -0.1050 ce        1 22M      0.653800
      4 N4         -4.9630    1.7810    0.3140 n2        1 22M     -0.831100
      5 N5         -5.6500   -0.3150   -0.7030 nh        1 22M     -0.959800
      6 C6         -2.2490    0.7310   -0.2670 ca        1 22M     -0.102000
      7 C7         -0.9870    0.1530   -0.0560 ca        1 22M     -0.052200
      8 C8         -0.8510   -1.1610    0.5350 ca        1 22M     -0.086800
      9 C9         -2.0000   -1.8630    0.9090 ca        1 22M     -0.089000
     10 C10         0.5610   -1.4370    0.6010 cc        1 22M     -0.176200
     11 C11         1.2300   -0.3240    0.0780 cd        1 22M     -0.000300
     12 C12         2.6680   -0.1560   -0.0810 ca        1 22M     -0.046800
     13 C13         3.3920   -1.2190   -0.6430 ca        1 22M     -0.104000
     14 C14         4.7690   -1.1260   -0.8140 ca        1 22M     -0.136000
     15 C15         5.4400    0.0340   -0.4240 ca        1 22M     -0.118000
     16 C16         4.7310    1.0890    0.1420 ca        1 22M     -0.133000
     17 C17         3.3430    1.0090    0.3240 ca        1 22M     -0.061300
     18 C18         2.6360    2.1490    0.9550 c3        1 22M     -0.061800
     19 N19         0.2910    0.6350   -0.3410 na        1 22M     -0.181400
     20 H1         -4.1500   -1.8260    1.0080 ha        1 22M      0.141000
     21 HN4        -5.8810    2.1370    0.1530 hn        1 22M      0.380400
     22 HN51       -5.2500   -1.0880   -1.1790 hn        1 22M      0.398800
     23 HN52       -6.4310    0.0920   -1.1620 hn        1 22M      0.398800
     24 H6         -2.3500    1.7350   -0.7010 ha        1 22M      0.148000
     25 H9         -1.9110   -2.8570    1.3700 ha        1 22M      0.137000
     26 H10         1.0210   -2.3390    0.9940 ha        1 22M      0.159000
     27 H13         2.8560   -2.1310   -0.9490 ha        1 22M      0.141000
     28 H14         5.3260   -1.9650   -1.2560 ha        1 22M      0.135000
     29 H15         6.5290    0.1130   -0.5610 ha        1 22M      0.134000
     30 H16         5.2640    1.9990    0.4570 ha        1 22M      0.134000
     31 H181        2.1800    2.8060    0.1720 hc        1 22M      0.048700
     32 H182        1.8270    1.7910    1.6390 hc        1 22M      0.048700
     33 H183        3.3450    2.7740    1.5530 hc        1 22M      0.048700
     34 HN19        0.5090    1.5360   -0.6740 hn        1 22M      0.301700
@<TRIPOS>BOND
     1    1    2 ar  
     2    1    9 ar  
     3    1   20 1   
     4    2    3 1   
     5    2    6 ar  
     6    3    4 2   
     7    3    5 1   
     8    4   21 1   
     9    5   22 1   
    10    5   23 1   
    11    6    7 ar  
    12    6   24 1   
    13    7    8 ar  
    14    7   19 1   
    15    8    9 ar  
    16    8   10 1   
    17    9   25 1   
    18   10   11 2   
    19   10   26 1   
    20   11   12 1   
    21   11   19 1   
    22   12   13 ar  
    23   12   17 ar  
    24   13   14 ar  
    25   13   27 1   
    26   14   15 ar  
    27   14   28 1   
    28   15   16 ar  
    29   15   29 1   
    30   16   17 ar  
    31   16   30 1   
    32   17   18 1   
    33   18   31 1   
    34   18   32 1   
    35   18   33 1   
    36   19   34 1   
@<TRIPOS>SUBSTRUCTURE
     1 22M         1 TEMP              0 ****  ****    0 ROOT
