@<TRIPOS>MOLECULE
22M
   35    37     1     0     0
SMALL
bcc


@<TRIPOS>ATOM
      1 C1         -0.0270    0.4000   -0.0410 ca        1 22M     -0.147000
      2 C2          1.3710    0.1950   -0.0200 ca        1 22M     -0.271900
      3 C3          2.1110    0.1620   -1.2930 ce        1 22M      0.602800
      4 N4          3.0160    0.9180   -1.7840 n2        1 22M     -0.725100
      5 N5          1.6850   -1.0130   -2.1430 n4        1 22M     -0.827600
      6 C6          2.0810    0.0540    1.1730 ca        1 22M     -0.081000
      7 C7          1.3530    0.1140    2.3650 ca        1 22M     -0.062200
      8 C8         -0.0890    0.3170    2.3560 ca        1 22M     -0.040800
      9 C9         -0.7540    0.4620    1.1360 ca        1 22M     -0.067000
     10 C10        -0.5090    0.3250    3.7270 cc        1 22M     -0.190200
     11 C11         0.6380    0.1400    4.5180 cd        1 22M      0.070700
     12 C12         0.6970    0.0460    5.9700 ca        1 22M     -0.088800
     13 C13        -0.2620   -0.7610    6.6050 ca        1 22M     -0.093000
     14 C14        -0.2670   -0.8930    7.9900 ca        1 22M     -0.130000
     15 C15         0.6850   -0.2170    8.7550 ca        1 22M     -0.095000
     16 C16         1.6300    0.5940    8.1320 ca        1 22M     -0.128000
     17 C17         1.6490    0.7390    6.7380 ca        1 22M     -0.050300
     18 C18         2.6600    1.6340    6.1270 c3        1 22M     -0.065800
     19 N19         1.7630    0.0030    3.6920 na        1 22M     -0.169400
     20 H1         -0.5430    0.5490   -1.0010 ha        1 22M      0.128000
     21 HN4         3.3070    1.7120   -1.2520 hn        1 22M      0.487400
     22 HN51        1.9720   -1.8720   -1.6650 hn        1 22M      0.467800
     23 HN52        2.0980   -0.9870   -3.0820 hn        1 22M      0.467800
     24 H6          3.1700   -0.0970    1.1770 ha        1 22M      0.145000
     25 H9         -1.8420    0.6320    1.1180 ha        1 22M      0.163000
     26 H10        -1.5240    0.4610    4.0920 ha        1 22M      0.181000
     27 H13        -1.0110   -1.2920    5.9980 ha        1 22M      0.141000
     28 H14        -1.0200   -1.5290    8.4790 ha        1 22M      0.148000
     29 H15         0.6850   -0.3200    9.8510 ha        1 22M      0.148000
     30 H16         2.3710    1.1350    8.7410 ha        1 22M      0.146000
     31 H181        3.5360    1.0420    5.7610 hc        1 22M      0.049700
     32 H182        3.0400    2.3720    6.8780 hc        1 22M      0.049700
     33 H183        2.2270    2.2090    5.2720 hc        1 22M      0.049700
     34 HN19        2.6930   -0.1010    4.0080 hn        1 22M      0.316700
     35 H53         0.6610   -0.9950   -2.2130 hn        1 22M      0.467800
@<TRIPOS>BOND
     1    1    2 ar  
     2    1    9 ar  
     3    1   20 1   
     4    2    3 1   
     5    2    6 ar  
     6    3    4 2   
     7    3    5 1   
     8    4   21 1   
     9    5   22 1   
    10    5   23 1   
    11    5   35 1   
    12    6    7 ar  
    13    6   24 1   
    14    7    8 ar  
    15    7   19 1   
    16    8    9 ar  
    17    8   10 1   
    18    9   25 1   
    19   10   11 2   
    20   10   26 1   
    21   11   12 1   
    22   11   19 1   
    23   12   13 ar  
    24   12   17 ar  
    25   13   14 ar  
    26   13   27 1   
    27   14   15 ar  
    28   14   28 1   
    29   15   16 ar  
    30   15   29 1   
    31   16   17 ar  
    32   16   30 1   
    33   17   18 1   
    34   18   31 1   
    35   18   32 1   
    36   18   33 1   
    37   19   34 1   
@<TRIPOS>SUBSTRUCTURE
     1 22M         1 TEMP              0 ****  ****    0 ROOT
