@<TRIPOS>MOLECULE
22N
   45    45     1     0     0
SMALL
bcc


@<TRIPOS>ATOM
      1 C1          0.0100    0.0080    0.0350 c         1 22N      0.627300
      2 O1A         1.0170    0.6740    0.2620 o         1 22N     -0.444000
      3 O1B        -0.4830   -0.6490    1.1240 oh        1 22N     -0.554100
      4 C2         -0.6780   -0.0970   -1.2740 ce        1 22N     -0.214400
      5 C3         -2.1600   -0.2110   -1.2430 c3        1 22N     -0.058200
      6 C4         -2.7560    0.1840   -2.5970 c3        1 22N      0.110500
      7 C5         -2.0400   -0.5570   -3.7760 c3        1 22N      0.084700
      8 N5         -2.1590   -1.9910   -3.6940 ns        1 22N     -0.560900
      9 C10        -3.2390   -2.6410   -4.2930 c         1 22N      0.671100
     10 O10        -4.2980   -1.9990   -4.4840 o         1 22N     -0.667100
     11 C11        -3.1120   -4.1010   -4.6140 c3        1 22N     -0.176100
     12 C6         -0.5730   -0.0370   -3.7690 c3        1 22N      0.162300
     13 C7          0.0380   -0.0600   -2.4070 c2        1 22N     -0.096200
     14 O7          0.1610   -0.8500   -4.6720 os        1 22N     -0.425600
     15 C8          1.2750   -0.1860   -5.3110 c3        1 22N      0.140100
     16 C9          2.4130   -1.2040   -5.3380 c3        1 22N     -0.097900
     17 C81         0.8700    0.2170   -6.7240 c3        1 22N     -0.097900
     18 C82        -0.1160    1.3550   -6.7490 c3        1 22N     -0.097100
     19 C91         3.0220   -1.4110   -3.9770 c3        1 22N     -0.097100
     20 N4         -4.2350   -0.0560   -2.6350 nz        1 22N     -0.836600
     21 H2         -2.4370   -1.2720   -0.9880 hc        1 22N      0.078700
     22 H3         -2.5710    0.4550   -0.4340 hc        1 22N      0.078700
     23 H4         -2.6040    1.2950   -2.7610 hx        1 22N      0.115700
     24 H5         -2.5120   -0.2010   -4.7460 h1        1 22N      0.086700
     25 H6         -1.1790   -1.2670    0.8620 ho        1 22N      0.422000
     26 H7         -2.7400   -4.6790   -3.7320 hc        1 22N      0.091700
     27 H8         -4.1140   -4.4970   -4.9160 hc        1 22N      0.091700
     28 H9         -2.3970   -4.2380   -5.4640 hc        1 22N      0.091700
     29 H10        -0.5920    1.0360   -4.1270 h1        1 22N      0.085700
     30 H11         1.1450   -0.0100   -2.3860 ha        1 22N      0.188000
     31 H12         1.5800    0.7170   -4.7160 h1        1 22N      0.053700
     32 H13         2.0230   -2.1780   -5.7360 hc        1 22N      0.065950
     33 H14         3.1960   -0.8330   -6.0520 hc        1 22N      0.065950
     34 H15         1.7980    0.5160   -7.2800 hc        1 22N      0.065950
     35 H16         0.4350   -0.6750   -7.2470 hc        1 22N      0.065950
     36 H17        -0.3120    1.6680   -7.8040 hc        1 22N      0.038533
     37 H18         0.2760    2.2370   -6.1880 hc        1 22N      0.038533
     38 H19        -1.0880    1.0440   -6.2920 hc        1 22N      0.038533
     39 H20         2.2570   -1.8040   -3.2620 hc        1 22N      0.038533
     40 H21         3.8580   -2.1490   -4.0390 hc        1 22N      0.038533
     41 H22         3.4280   -0.4540   -3.5700 hc        1 22N      0.038533
     42 H23        -4.5650   -0.0150   -3.6140 hn        1 22N      0.468800
     43 H24        -4.7270    0.6300   -2.0610 hn        1 22N      0.468800
     44 H52        -1.2890   -2.4840   -3.6650 hn        1 22N      0.343500
     45 H43        -4.4450   -1.0040   -2.2980 hn        1 22N      0.468800
@<TRIPOS>BOND
     1    1    2 2   
     2    1    3 1   
     3    1    4 1   
     4    3   25 1   
     5    4    5 1   
     6    4   13 2   
     7    5    6 1   
     8    5   21 1   
     9    5   22 1   
    10    6    7 1   
    11    6   20 1   
    12    6   23 1   
    13    7    8 1   
    14    7   12 1   
    15    7   24 1   
    16    8    9 1   
    17    8   44 1   
    18    9   10 2   
    19    9   11 1   
    20   11   26 1   
    21   11   27 1   
    22   11   28 1   
    23   12   13 1   
    24   12   14 1   
    25   12   29 1   
    26   13   30 1   
    27   14   15 1   
    28   15   16 1   
    29   15   17 1   
    30   15   31 1   
    31   16   19 1   
    32   16   32 1   
    33   16   33 1   
    34   17   18 1   
    35   17   34 1   
    36   17   35 1   
    37   18   36 1   
    38   18   37 1   
    39   18   38 1   
    40   19   39 1   
    41   19   40 1   
    42   19   41 1   
    43   20   42 1   
    44   20   43 1   
    45   20   45 1   
@<TRIPOS>SUBSTRUCTURE
     1 22N         1 TEMP              0 ****  ****    0 ROOT
