@<TRIPOS>MOLECULE
22N
   45    45     1     0     0
SMALL
bcc


@<TRIPOS>ATOM
      1 C1          0.0320   -0.0000    0.0310 c         1 22N      0.627300
      2 O1A         1.0410    0.6640    0.2540 o         1 22N     -0.444000
      3 O1B        -0.4560   -0.6590    1.1220 oh        1 22N     -0.554100
      4 C2         -0.6630   -0.1020   -1.2740 ce        1 22N     -0.214400
      5 C3         -2.1460   -0.2140   -1.2350 c3        1 22N     -0.058200
      6 C4         -2.7480    0.1840   -2.5860 c3        1 22N      0.110500
      7 C5         -2.0400   -0.5580   -3.7690 c3        1 22N      0.084700
      8 N5         -2.1600   -1.9920   -3.6880 n         1 22N     -0.560900
      9 C10        -3.2440   -2.6390   -4.2820 c         1 22N      0.671100
     10 O10        -4.3030   -1.9950   -4.4660 o         1 22N     -0.667100
     11 C11        -3.1210   -4.0990   -4.6050 c3        1 22N     -0.176100
     12 C6         -0.5710   -0.0410   -3.7700 c3        1 22N      0.162300
     13 C7          0.0470   -0.0660   -2.4110 c2        1 22N     -0.096200
     14 O7          0.1560   -0.8530   -4.6770 os        1 22N     -0.425600
     15 C8          1.2690   -0.1910   -5.3210 c3        1 22N      0.140100
     16 C9          2.4050   -1.2110   -5.3560 c3        1 22N     -0.097900
     17 C81         0.8560    0.2150   -6.7310 c3        1 22N     -0.097900
     18 C82        -0.1270    1.3550   -6.7500 c3        1 22N     -0.097100
     19 C91         3.0190   -1.4210   -3.9980 c3        1 22N     -0.097100
     20 N4         -4.2270   -0.0540   -2.6160 n4        1 22N     -0.836600
     21 H2         -2.5510    0.4520   -0.4240 hc        1 22N      0.078700
     22 H3         -2.4220   -1.2760   -0.9800 hc        1 22N      0.078700
     23 H4         -2.5950    1.2940   -2.7490 hx        1 22N      0.115700
     24 H5         -2.5160   -0.2000   -4.7360 h1        1 22N      0.086700
     25 H6         -1.2910   -2.4860   -3.6640 hn        1 22N      0.343500
     26 H7         -4.1250   -4.4930   -4.9020 hc        1 22N      0.091700
     27 H8         -2.7450   -4.6790   -3.7260 hc        1 22N      0.091700
     28 H9         -2.4120   -4.2360   -5.4600 hc        1 22N      0.091700
     29 H10        -0.5910    1.0340   -4.1260 h1        1 22N      0.085700
     30 H11         1.1540   -0.0180   -2.3950 ha        1 22N      0.188000
     31 H12         1.5780    0.7120   -4.7260 h1        1 22N      0.053700
     32 H13         3.1840   -0.8400   -6.0730 hc        1 22N      0.065950
     33 H14         2.0100   -2.1830   -5.7530 hc        1 22N      0.065950
     34 H15         1.7820    0.5130   -7.2920 hc        1 22N      0.065950
     35 H16         0.4170   -0.6750   -7.2530 hc        1 22N      0.065950
     36 H17        -1.0970    1.0460   -6.2880 hc        1 22N      0.038533
     37 H18         0.2700    2.2360   -6.1900 hc        1 22N      0.038533
     38 H19        -0.3280    1.6700   -7.8030 hc        1 22N      0.038533
     39 H20         2.2580   -1.8130   -3.2800 hc        1 22N      0.038533
     40 H21         3.8540   -2.1610   -4.0650 hc        1 22N      0.038533
     41 H22         3.4300   -0.4650   -3.5910 hc        1 22N      0.038533
     42 H23        -4.7150    0.6320   -2.0390 hn        1 22N      0.468800
     43 H24        -4.4370   -1.0020   -2.2790 hn        1 22N      0.468800
     44 H52        -1.1550   -1.2750    0.8640 ho        1 22N      0.422000
     45 H43        -4.5630   -0.0110   -3.5940 hn        1 22N      0.468800
@<TRIPOS>BOND
     1    1    2 2   
     2    1    3 1   
     3    1    4 1   
     4    3   44 1   
     5    4    5 1   
     6    4   13 2   
     7    5    6 1   
     8    5   21 1   
     9    5   22 1   
    10    6    7 1   
    11    6   20 1   
    12    6   23 1   
    13    7    8 1   
    14    7   12 1   
    15    7   24 1   
    16    8    9 1   
    17    8   25 1   
    18    9   10 2   
    19    9   11 1   
    20   11   26 1   
    21   11   27 1   
    22   11   28 1   
    23   12   13 1   
    24   12   14 1   
    25   12   29 1   
    26   13   30 1   
    27   14   15 1   
    28   15   16 1   
    29   15   17 1   
    30   15   31 1   
    31   16   19 1   
    32   16   32 1   
    33   16   33 1   
    34   17   18 1   
    35   17   34 1   
    36   17   35 1   
    37   18   36 1   
    38   18   37 1   
    39   18   38 1   
    40   19   39 1   
    41   19   40 1   
    42   19   41 1   
    43   20   42 1   
    44   20   43 1   
    45   20   45 1   
@<TRIPOS>SUBSTRUCTURE
     1 22N         1 TEMP              0 ****  ****    0 ROOT
