@<TRIPOS>MOLECULE
22N
   45    45     1     0     0
SMALL
bcc


@<TRIPOS>ATOM
      1 C1         -0.0080   -0.0290    0.0450 c         1 22N      0.627300
      2 O1A         0.9930    0.6440    0.2820 o         1 22N     -0.444000
      3 O1B        -0.4970   -0.7050    1.1250 oh        1 22N     -0.554100
      4 C2         -0.6910   -0.1250   -1.2660 ce        1 22N     -0.214400
      5 C3         -2.1720   -0.2540   -1.2410 c3        1 22N     -0.058200
      6 C4         -2.7680    0.1510   -2.5920 c3        1 22N      0.110500
      7 C5         -2.0420   -0.5700   -3.7780 c3        1 22N      0.084700
      8 N5         -2.1470   -2.0060   -3.7130 n         1 22N     -0.560900
      9 C10        -3.2180   -2.6590   -4.3230 c         1 22N      0.671100
     10 O10        -4.2830   -2.0260   -4.5080 o         1 22N     -0.667100
     11 C11        -3.0750   -4.1140   -4.6600 c3        1 22N     -0.176100
     12 C6         -0.5790   -0.0350   -3.7610 c3        1 22N      0.162300
     13 C7          0.0280   -0.0680   -2.3970 c2        1 22N     -0.096200
     14 O7          0.1650   -0.8300   -4.6710 os        1 22N     -0.425600
     15 C8          1.2740   -0.1470   -5.2990 c3        1 22N      0.140100
     16 C9          2.4220   -1.1530   -5.3350 c3        1 22N     -0.097900
     17 C81         0.8680    0.2690   -6.7080 c3        1 22N     -0.097900
     18 C82        -0.1280    1.3970   -6.7230 c3        1 22N     -0.097100
     19 C91         3.0290   -1.3710   -3.9750 c3        1 22N     -0.097100
     20 N4         -4.2440   -0.1040   -2.6370 n4        1 22N     -0.836600
     21 H2         -2.4380   -1.3220   -0.9990 hc        1 22N      0.078700
     22 H3         -2.5920    0.3980   -0.4260 hc        1 22N      0.078700
     23 H4         -2.6270    1.2650   -2.7430 hx        1 22N      0.115700
     24 H5         -2.5150   -0.2070   -4.7450 h1        1 22N      0.086700
     25 H6         -1.2720   -2.4900   -3.6870 hn        1 22N      0.343500
     26 H7         -4.0720   -4.5160   -4.9690 hc        1 22N      0.091700
     27 H8         -2.6990   -4.6980   -3.7850 hc        1 22N      0.091700
     28 H9         -2.3570   -4.2330   -5.5110 hc        1 22N      0.091700
     29 H10        -0.6090    1.0430   -4.1060 h1        1 22N      0.085700
     30 H11         1.1340   -0.0070   -2.3720 ha        1 22N      0.188000
     31 H12         1.5680    0.7520   -4.6920 h1        1 22N      0.053700
     32 H13         2.0420   -2.1260   -5.7450 hc        1 22N      0.065950
     33 H14         3.2030   -0.7660   -6.0430 hc        1 22N      0.065950
     34 H15         0.4440   -0.6210   -7.2430 hc        1 22N      0.065950
     35 H16         1.7950    0.5840   -7.2580 hc        1 22N      0.065950
     36 H17        -0.3250    1.7210   -7.7740 hc        1 22N      0.038533
     37 H18         0.2530    2.2770   -6.1500 hc        1 22N      0.038533
     38 H19        -1.0980    1.0720   -6.2720 hc        1 22N      0.038533
     39 H20         3.4250   -0.4140   -3.5550 hc        1 22N      0.038533
     40 H21         2.2670   -1.7790   -3.2670 hc        1 22N      0.038533
     41 H22         3.8730   -2.1000   -4.0430 hc        1 22N      0.038533
     42 H23        -4.7450    0.5710   -2.0570 hn        1 22N      0.468800
     43 H24        -4.4460   -1.0580   -2.3120 hn        1 22N      0.468800
     44 H52        -1.1860   -1.3250    0.8540 ho        1 22N      0.422000
     45 H43        -4.5730   -0.0540   -3.6170 hn        1 22N      0.468800
@<TRIPOS>BOND
     1    1    2 2   
     2    1    3 1   
     3    1    4 1   
     4    3   44 1   
     5    4    5 1   
     6    4   13 2   
     7    5    6 1   
     8    5   21 1   
     9    5   22 1   
    10    6    7 1   
    11    6   20 1   
    12    6   23 1   
    13    7    8 1   
    14    7   12 1   
    15    7   24 1   
    16    8    9 1   
    17    8   25 1   
    18    9   10 2   
    19    9   11 1   
    20   11   26 1   
    21   11   27 1   
    22   11   28 1   
    23   12   13 1   
    24   12   14 1   
    25   12   29 1   
    26   13   30 1   
    27   14   15 1   
    28   15   16 1   
    29   15   17 1   
    30   15   31 1   
    31   16   19 1   
    32   16   32 1   
    33   16   33 1   
    34   17   18 1   
    35   17   34 1   
    36   17   35 1   
    37   18   36 1   
    38   18   37 1   
    39   18   38 1   
    40   19   39 1   
    41   19   40 1   
    42   19   41 1   
    43   20   42 1   
    44   20   43 1   
    45   20   45 1   
@<TRIPOS>SUBSTRUCTURE
     1 22N         1 TEMP              0 ****  ****    0 ROOT
