@<TRIPOS>MOLECULE
22O
   42    41     1     0     0
SMALL
bcc


@<TRIPOS>ATOM
      1 C1          0.8020   -1.7360   -0.0980 c3        1 22O      0.101000
      2 N1          0.4410   -0.6270    0.2860 n         1 22O     -0.328000
      3 S1         -2.1130   -1.2080   -0.4160 s         1 22O     -0.303000
      4 BR1        -5.2740    2.2920   -4.7830 br        1 22O      0.063000
      5 C2          2.3810   -1.8490   -0.0960 c3        1 22O      0.002000
      6 N2         -1.0230    1.2880   -0.3380 n         1 22O     -0.281000
      7 O2          2.7400   -3.0540   -0.7160 oh        1 22O     -0.325000
      8 C3          3.0040   -1.8140    1.2800 c3        1 22O     -0.007000
      9 N3         -1.8590    2.0230    0.4690 n2        1 22O     -0.048000
     10 O3          2.7820   -0.4770    1.8630 oh        1 22O     -0.331000
     11 C4          2.4670   -2.8050    2.1800 c3        1 22O     -0.016000
     12 O4          2.9230   -4.1920    1.7040 oh        1 22O     -0.316000
     13 C5          1.0490   -2.8070    2.2680 c3        1 22O     -0.048000
     14 O5          0.3660   -2.8760    0.9490 os        1 22O     -0.249000
     15 C6          0.6020   -1.5200    2.9760 c3        1 22O     -0.053000
     16 O6         -0.2230   -1.8410    4.0310 oh        1 22O     -0.313000
     17 C7         -0.8440   -0.1260   -0.0940 c2        1 22O      0.196000
     18 C8         -2.6730    2.9220   -0.0620 c1        1 22O     -0.111000
     19 C9         -2.6840    3.1470   -1.5890 c1        1 22O     -0.091000
     20 C10        -1.6760    3.9070   -2.1880 c2        1 22O     -0.109000
     21 C11        -1.7350    4.1920   -3.5540 c1        1 22O     -0.126000
     22 C12        -2.7970    3.7210   -4.3170 c1        1 22O     -0.091000
     23 C13        -3.8040    2.9610   -3.7170 c2        1 22O     -0.168000
     24 C14        -3.7450    2.6760   -2.3530 c2        1 22O     -0.081000
     25 H1          0.4370   -1.9300   -1.0050 h2        1 22O      0.184000
     26 HN1         1.0200   -0.0950    0.7710 hn        1 22O      0.262000
     27 H2          2.7480   -1.0990   -0.6280 h1        1 22O      0.116000
     28 HN2        -0.5750    1.6890   -1.0050 hn        1 22O      0.259000
     29 HO2         3.3080   -2.8830   -1.4010 ho        1 22O      0.223000
     30 H3          3.9330   -1.9560    1.1940 h1        1 22O      0.117000
     31 HO3         3.5090   -0.2280    2.3240 ho        1 22O      0.216000
     32 H4          2.8310   -2.6460    3.0690 h1        1 22O      0.111000
     33 HO4         3.7480   -4.3760    2.0480 ho        1 22O      0.229000
     34 H5          0.7680   -3.5820    2.8110 h1        1 22O      0.149000
     35 H6          1.3770   -1.0460    3.3060 h1        1 22O      0.102000
     36 H6A         0.1090   -0.9440    2.3340 h1        1 22O      0.102000
     37 HO6         0.1820   -1.6360    4.7970 ho        1 22O      0.195000
     38 H8         -3.2700    3.4460    0.5160 ha        1 22O      0.174000
     39 H10        -0.9200    4.2430   -1.6440 ha        1 22O      0.145000
     40 H11        -1.0090    4.7390   -3.9860 ha        1 22O      0.145000
     41 H12        -2.8380    3.9170   -5.2600 ha        1 22O      0.152000
     42 H14        -4.4660    2.1920   -1.9310 ha        1 22O      0.153000
@<TRIPOS>BOND
     1    1    2 1   
     2    1    5 1   
     3    1   14 1   
     4    1   25 1   
     5    2   17 1   
     6    2   26 1   
     7    3   17 1   
     8    4   23 1   
     9    5    7 1   
    10    5    8 1   
    11    5   27 1   
    12    6    9 1   
    13    6   17 1   
    14    6   28 1   
    15    7   29 1   
    16    8   10 1   
    17    8   11 1   
    18    8   30 1   
    19    9   18 1   
    20   10   31 1   
    21   11   12 1   
    22   11   13 1   
    23   11   32 1   
    24   12   33 1   
    25   13   14 1   
    26   13   15 1   
    27   13   34 1   
    28   15   16 1   
    29   15   35 1   
    30   15   36 1   
    31   16   37 1   
    32   18   38 1   
    33   19   20 1   
    34   19   24 1   
    35   20   21 1   
    36   20   39 1   
    37   21   40 1   
    38   22   23 1   
    39   22   41 1   
    40   23   24 1   
    41   24   42 1   
@<TRIPOS>SUBSTRUCTURE
     1 22O         1 TEMP              0 ****  ****    0 ROOT
