@<TRIPOS>MOLECULE
22O
   42    43     1     0     0
SMALL
bcc


@<TRIPOS>ATOM
      1 C1         -2.7200   -0.3310    0.7440 c3        1 22O      0.236500
      2 N1         -1.3720   -0.8300    0.9460 n         1 22O     -0.478900
      3 S1         -2.2910   -3.2790    1.4320 s         1 22O     -0.524400
      4 BR1         4.4450    2.0260   -1.6120 br        1 22O     -0.081100
      5 C2         -3.0330    0.8780    1.6710 c3        1 22O      0.089100
      6 N2          0.1250   -2.7280    0.7480 n         1 22O     -0.294900
      7 O2         -3.1210    0.4920    3.0290 oh        1 22O     -0.598800
      8 C3         -4.4240    1.4280    1.3120 c3        1 22O      0.109100
      9 N3          1.1750   -1.9960    0.3870 n2        1 22O     -0.471300
     10 O3         -4.6800    2.6340    2.0100 oh        1 22O     -0.606800
     11 C4         -4.4880    1.7710   -0.1860 c3        1 22O      0.117100
     12 O4         -5.8060    2.1280   -0.5580 oh        1 22O     -0.592800
     13 C5         -4.0960    0.5300   -1.0060 c3        1 22O      0.149100
     14 O5         -2.7820    0.1170   -0.6250 os        1 22O     -0.439600
     15 C6         -4.0190    0.8650   -2.4980 c3        1 22O      0.135400
     16 O6         -4.2610   -0.3410   -3.2020 oh        1 22O     -0.594800
     17 C7         -1.1630   -2.2040    0.9960 c         1 22O      0.581400
     18 C8          2.3480   -2.5470    0.2080 ce        1 22O      0.389800
     19 C9          3.5190   -1.7660   -0.2000 ca        1 22O     -0.127900
     20 C10         4.7760   -2.3900   -0.1460 ca        1 22O     -0.102000
     21 C11         5.9180   -1.6920   -0.5260 ca        1 22O     -0.132000
     22 C12         5.8260   -0.3710   -0.9650 ca        1 22O     -0.091000
     23 C13         4.5770    0.2530   -1.0220 ca        1 22O     -0.032900
     24 C14         3.4250   -0.4400   -0.6410 ca        1 22O     -0.070000
     25 H1         -3.4750   -1.1600    0.9230 h2        1 22O      0.122700
     26 HN1        -0.6680   -0.2510    0.5300 hn        1 22O      0.325500
     27 H2         -2.2580    1.6840    1.5470 h1        1 22O      0.061700
     28 HN2         0.1960   -3.7220    0.9200 hn        1 22O      0.340500
     29 HO2        -2.2820    0.0830    3.2740 ho        1 22O      0.424000
     30 H3         -5.2120    0.6660    1.5720 h1        1 22O      0.070700
     31 HO3        -4.5940    2.4320    2.9510 ho        1 22O      0.429000
     32 H4         -3.7870    2.6230   -0.4060 h1        1 22O      0.059700
     33 HO4        -6.0830    2.8240    0.0540 ho        1 22O      0.426000
     34 H5         -4.8300   -0.3050   -0.8350 h1        1 22O      0.086700
     35 H6         -4.8180    1.6170   -2.7430 h1        1 22O      0.047700
     36 H6A        -3.0070    1.2770   -2.7530 h1        1 22O      0.047700
     37 HO6        -4.0720   -0.1600   -4.1300 ho        1 22O      0.404000
     38 H8          2.5540   -3.6310    0.3510 h4        1 22O     -0.001200
     39 H10         4.8590   -3.4320    0.1980 ha        1 22O      0.138000
     40 H11         6.9020   -2.1840   -0.4820 ha        1 22O      0.142000
     41 H12         6.7370    0.1700   -1.2640 ha        1 22O      0.150000
     42 H14         2.4420    0.0580   -0.6920 ha        1 22O      0.160000
@<TRIPOS>BOND
     1    1    2 1   
     2    1    5 1   
     3    1   14 1   
     4    1   25 1   
     5    2   17 1   
     6    2   26 1   
     7    3   17 2   
     8    4   23 1   
     9    5    7 1   
    10    5    8 1   
    11    5   27 1   
    12    6    9 1   
    13    6   17 1   
    14    6   28 1   
    15    7   29 1   
    16    8   10 1   
    17    8   11 1   
    18    8   30 1   
    19    9   18 2   
    20   10   31 1   
    21   11   12 1   
    22   11   13 1   
    23   11   32 1   
    24   12   33 1   
    25   13   14 1   
    26   13   15 1   
    27   13   34 1   
    28   15   16 1   
    29   15   35 1   
    30   15   36 1   
    31   16   37 1   
    32   18   19 1   
    33   18   38 1   
    34   19   20 ar  
    35   19   24 ar  
    36   20   21 ar  
    37   20   39 1   
    38   21   22 ar  
    39   21   40 1   
    40   22   23 ar  
    41   22   41 1   
    42   23   24 ar  
    43   24   42 1   
@<TRIPOS>SUBSTRUCTURE
     1 22O         1 TEMP              0 ****  ****    0 ROOT
