@<TRIPOS>MOLECULE
22O
   44    44     1     0     0
SMALL
bcc


@<TRIPOS>ATOM
      1 C1        -31.7480 -204.4220  420.2840 c3        1 22O      0.050000
      2 N1        -30.9960 -203.7300  419.1840 n4        1 22O     -0.077000
      3 S1        -31.6670 -203.3550  416.6990 s         1 22O      0.084000
      4 BR1        67.7940  438.9290 -905.0930 br        1 22O      0.198000
      5 C2        -30.8490 -205.4290  421.0500 c3        1 22O      0.001000
      6 N2        -32.7010 -202.0340  418.7460 n         1 22O     -0.326000
      7 O2        -30.4280 -206.3820  420.1000 oh        1 22O     -0.344000
      8 C3        -31.7030 -206.0440  422.1710 c3        1 22O      0.003000
      9 N3         67.3690  442.8930 -909.6960 n1        1 22O      0.121000
     10 O3        -30.8290 -206.8870  422.8920 oh        1 22O     -0.320000
     11 C4        -32.2630 -204.9260  423.0760 c3        1 22O     -0.030000
     12 O4        -33.1620 -205.5730  423.9570 oh        1 22O     -0.310000
     13 C5        -33.0170 -203.8910  422.2270 c3        1 22O     -0.028000
     14 O5        -32.1580 -203.3970  421.1820 os        1 22O     -0.294000
     15 C6        -33.4020 -202.6310  423.0140 c3        1 22O     -0.018000
     16 O6        -34.1610 -201.7750  422.1900 oh        1 22O     -0.319000
     17 C7        -31.8790 -202.9610  418.1960 c2        1 22O     -0.023000
     18 C8         68.0880  442.2140 -909.0880 c1        1 22O     -0.191000
     19 C9         68.9900  441.3710 -908.3300 c3        1 22O     -0.044000
     20 C10        69.6520  440.3520 -909.1800 c2        1 22O      0.071000
     21 C11        69.8010  439.0610 -908.7450 c2        1 22O     -0.213000
     22 C12        69.2510  438.6420 -907.5180 c2        1 22O      0.175000
     23 C13        68.5290  439.5430 -906.6950 c2        1 22O     -0.274000
     24 C14        68.3550  440.8460 -907.0960 c2        1 22O      0.073000
     25 H1        -32.6380 -204.9480  419.8240 hx        1 22O      0.158000
     26 HN1       -30.3080 -203.0930  419.6050 hn        1 22O      0.275000
     27 H2        -29.9540 -204.9120  421.4980 h1        1 22O      0.125000
     28 HN2       -32.8080 -201.8930  419.7320 hn        1 22O      0.284000
     29 HO2       -30.0970 -207.1540  420.5880 ho        1 22O      0.268000
     30 H3        -32.5520 -206.6450  421.7390 h1        1 22O      0.119000
     31 HO3       -31.3490 -207.2940  423.6010 ho        1 22O      0.247000
     32 H4        -31.4220 -204.4340  423.6360 h1        1 22O      0.119000
     33 HO4       -33.2230 -205.0380  424.7590 ho        1 22O      0.227000
     34 H5        -33.9290 -204.3610  421.7650 h1        1 22O      0.117000
     35 H6        -33.9560 -202.9400  423.9380 h1        1 22O      0.117000
     36 H6A       -32.4830 -202.0450  423.2860 h1        1 22O      0.117000
     37 HO6       -35.0900 -202.0240  422.2780 ho        1 22O      0.217000
     38 H8         69.8520  442.0510 -907.9510 hc        1 22O      0.248000
     39 H10        70.0440  440.6870 -910.1610 ha        1 22O      0.206000
     40 H11        70.3380  438.3200 -909.3700 ha        1 22O      0.208000
     41 H12        69.3740  437.5830 -907.2030 ha        1 22O      0.210000
     42 H14        67.7580  441.5680 -906.5000 ha        1 22O      0.212000
     43 H121      -30.4980 -204.4600  418.6330 hn        1 22O      0.275000
     44 H22       -33.2680 -201.4930  418.1270 hn        1 22O      0.284000
@<TRIPOS>BOND
     1    1    2 1   
     2    1    5 1   
     3    1   14 1   
     4    1   25 1   
     5    2   17 1   
     6    2   26 1   
     7    2   43 1   
     8    3   17 1   
     9    4   23 1   
    10    5    7 1   
    11    5    8 1   
    12    5   27 1   
    13    6   17 1   
    14    6   28 1   
    15    6   44 1   
    16    7   29 1   
    17    8   10 1   
    18    8   11 1   
    19    8   30 1   
    20    9   18 1   
    21   10   31 1   
    22   11   12 1   
    23   11   13 1   
    24   11   32 1   
    25   12   33 1   
    26   13   14 1   
    27   13   15 1   
    28   13   34 1   
    29   15   16 1   
    30   15   35 1   
    31   15   36 1   
    32   16   37 1   
    33   18   19 1   
    34   19   20 1   
    35   19   24 1   
    36   19   38 1   
    37   20   21 1   
    38   20   39 1   
    39   21   22 1   
    40   21   40 1   
    41   22   23 1   
    42   22   41 1   
    43   23   24 1   
    44   24   42 1   
@<TRIPOS>SUBSTRUCTURE
     1 22O         1 TEMP              0 ****  ****    0 ROOT
